MODEL 1
REMARK VINA RESULT:     -10.1      0.000      0.000
REMARK  6 active torsions:
REMARK  status: ('A' for Active; 'I' for Inactive)
REMARK    1  A    between atoms: C3_3  and  O1_4 
REMARK    2  A    between atoms: C7_8  and  N1_9 
REMARK    3  A    between atoms: N1_9  and  C8_10 
REMARK    4  A    between atoms: C12_15  and  N2_16 
REMARK    5  A    between atoms: N2_16  and  C13_17 
REMARK    6  A    between atoms: C16_21  and  C17_22 
ROOT
HETATM    1  C8  UNL     1      24.983   0.862  53.392  1.00  0.00     0.031 A 
HETATM    2  C9  UNL     1      23.901   0.012  53.475  1.00  0.00     0.031 A 
HETATM    3  C10 UNL     1      22.621   0.378  53.118  1.00  0.00     0.028 A 
HETATM    4  C11 UNL     1      22.393   1.656  52.653  1.00  0.00     0.061 A 
HETATM    5 CL1  UNL     1      20.797   2.211  52.175  1.00  0.00    -0.082 Cl
HETATM    6  C12 UNL     1      23.481   2.501  52.572  1.00  0.00     0.073 A 
HETATM    7  C22 UNL     1      24.767   2.142  52.927  1.00  0.00     0.060 A 
ENDROOT
BRANCH   6   8
HETATM    8  N2  UNL     1      23.247   3.816  52.095  1.00  0.00    -0.186 N 
HETATM    9  H11 UNL     1      22.871   4.584  52.692  1.00  0.00     0.184 HD
BRANCH   8  10
HETATM   10  C13 UNL     1      23.426   4.427  50.823  1.00  0.00     0.727 A 
HETATM   11  N3  UNL     1      22.331   4.666  50.056  1.00  0.00    -0.075 NA
HETATM   12  C14 UNL     1      22.538   5.244  48.856  1.00  0.00     0.139 A 
HETATM   13  C15 UNL     1      23.822   5.558  48.467  1.00  0.00     0.053 A 
HETATM   14  C16 UNL     1      24.938   5.317  49.240  1.00  0.00     0.089 A 
HETATM   15  N5  UNL     1      24.667   4.738  50.429  1.00  0.00    -0.062 NA
BRANCH  14  16
HETATM   16  C17 UNL     1      26.285   5.660  48.799  1.00  0.00     0.011 A 
HETATM   17  C18 UNL     1      26.661   6.888  48.300  1.00  0.00     0.017 A 
HETATM   18  C19 UNL     1      27.977   7.092  47.911  1.00  0.00     0.020 A 
HETATM   19  C20 UNL     1      28.913   6.060  48.024  1.00  0.00     0.116 A 
HETATM   20  N4  UNL     1      28.553   4.857  48.511  1.00  0.00    -0.272 NA
HETATM   21  C21 UNL     1      27.269   4.705  48.875  1.00  0.00     0.130 A 
ENDBRANCH  14  16
ENDBRANCH   8  10
ENDBRANCH   6   8
BRANCH   1  22
HETATM   22  N1  UNL     1      26.293   0.455  53.762  1.00  0.00    -0.378 N 
HETATM   23  H8  UNL     1      26.527   0.408  54.791  1.00  0.00     0.160 HD
BRANCH  22  24
HETATM   24  C7  UNL     1      27.375   0.088  52.877  1.00  0.00     0.140 A 
HETATM   25  C2  UNL     1      27.707  -1.340  52.938  1.00  0.00    -0.008 A 
HETATM   26  C1  UNL     1      26.676  -2.043  52.541  1.00  0.00     0.024 C 
HETATM   27  C3  UNL     1      28.906  -2.064  53.335  1.00  0.00     0.073 A 
HETATM   28  C4  UNL     1      29.910  -1.267  53.728  1.00  0.00     0.037 A 
HETATM   29  C5  UNL     1      29.729   0.190  53.723  1.00  0.00     0.001 A 
HETATM   30  C6  UNL     1      28.613   0.809  53.349  1.00  0.00     0.003 A 
BRANCH  27  31
HETATM   31  O1  UNL     1      28.924  -3.449  53.285  1.00  0.00    -0.360 OA
HETATM   32  H3  UNL     1      29.378  -3.868  52.470  1.00  0.00     0.217 HD
ENDBRANCH  27  31
ENDBRANCH  22  24
ENDBRANCH   1  22
TORSDOF 6
ENDMDL
MODEL 2
REMARK VINA RESULT:      -9.6      1.293      1.627
REMARK  6 active torsions:
REMARK  status: ('A' for Active; 'I' for Inactive)
REMARK    1  A    between atoms: C3_3  and  O1_4 
REMARK    2  A    between atoms: C7_8  and  N1_9 
REMARK    3  A    between atoms: N1_9  and  C8_10 
REMARK    4  A    between atoms: C12_15  and  N2_16 
REMARK    5  A    between atoms: N2_16  and  C13_17 
REMARK    6  A    between atoms: C16_21  and  C17_22 
ROOT
HETATM    1  C8  UNL     1      23.984  -0.214  53.608  1.00  0.00     0.031 A 
HETATM    2  C9  UNL     1      22.976  -0.994  54.132  1.00  0.00     0.031 A 
HETATM    3  C10 UNL     1      21.648  -0.847  53.790  1.00  0.00     0.028 A 
HETATM    4  C11 UNL     1      21.294   0.126  52.879  1.00  0.00     0.061 A 
HETATM    5 CL1  UNL     1      19.629   0.386  52.384  1.00  0.00    -0.082 Cl
HETATM    6  C12 UNL     1      22.308   0.903  52.359  1.00  0.00     0.073 A 
HETATM    7  C22 UNL     1      23.640   0.762  52.696  1.00  0.00     0.060 A 
ENDROOT
BRANCH   6   8
HETATM    8  N2  UNL     1      21.944   1.905  51.423  1.00  0.00    -0.186 N 
HETATM    9  H11 UNL     1      21.241   1.754  50.667  1.00  0.00     0.184 HD
BRANCH   8  10
HETATM   10  C13 UNL     1      22.363   3.251  51.240  1.00  0.00     0.727 A 
HETATM   11  N3  UNL     1      21.563   4.250  51.696  1.00  0.00    -0.075 NA
HETATM   12  C14 UNL     1      21.990   5.513  51.503  1.00  0.00     0.139 A 
HETATM   13  C15 UNL     1      23.191   5.733  50.864  1.00  0.00     0.053 A 
HETATM   14  C16 UNL     1      24.008   4.724  50.398  1.00  0.00     0.089 A 
HETATM   15  N5  UNL     1      23.527   3.482  50.621  1.00  0.00    -0.062 NA
BRANCH  14  16
HETATM   16  C17 UNL     1      25.273   4.990  49.724  1.00  0.00     0.011 A 
HETATM   17  C18 UNL     1      25.609   6.183  49.123  1.00  0.00     0.017 A 
HETATM   18  C19 UNL     1      26.847   6.313  48.511  1.00  0.00     0.020 A 
HETATM   19  C20 UNL     1      27.746   5.242  48.504  1.00  0.00     0.116 A 
HETATM   20  N4  UNL     1      27.424   4.073  49.090  1.00  0.00    -0.272 NA
HETATM   21  C21 UNL     1      26.215   3.992  49.670  1.00  0.00     0.130 A 
ENDBRANCH  14  16
ENDBRANCH   8  10
ENDBRANCH   6   8
BRANCH   1  22
HETATM   22  N1  UNL     1      25.345  -0.392  53.975  1.00  0.00    -0.378 N 
HETATM   23  H8  UNL     1      25.554  -0.802  54.926  1.00  0.00     0.160 HD
BRANCH  22  24
HETATM   24  C7  UNL     1      26.511  -0.071  53.183  1.00  0.00     0.140 A 
HETATM   25  C2  UNL     1      27.418  -1.211  53.009  1.00  0.00    -0.008 A 
HETATM   26  C1  UNL     1      26.801  -2.162  52.353  1.00  0.00     0.024 C 
HETATM   27  C3  UNL     1      28.796  -1.453  53.411  1.00  0.00     0.073 A 
HETATM   28  C4  UNL     1      29.350  -0.430  54.077  1.00  0.00     0.037 A 
HETATM   29  C5  UNL     1      28.564   0.785  54.331  1.00  0.00     0.001 A 
HETATM   30  C6  UNL     1      27.305   0.962  53.943  1.00  0.00     0.003 A 
BRANCH  27  31
HETATM   31  O1  UNL     1      29.405  -2.657  53.097  1.00  0.00    -0.360 OA
HETATM   32  H3  UNL     1      28.889  -3.277  52.468  1.00  0.00     0.217 HD
ENDBRANCH  27  31
ENDBRANCH  22  24
ENDBRANCH   1  22
TORSDOF 6
ENDMDL
MODEL 3
REMARK VINA RESULT:      -9.3      2.038      2.944
REMARK  6 active torsions:
REMARK  status: ('A' for Active; 'I' for Inactive)
REMARK    1  A    between atoms: C3_3  and  O1_4 
REMARK    2  A    between atoms: C7_8  and  N1_9 
REMARK    3  A    between atoms: N1_9  and  C8_10 
REMARK    4  A    between atoms: C12_15  and  N2_16 
REMARK    5  A    between atoms: N2_16  and  C13_17 
REMARK    6  A    between atoms: C16_21  and  C17_22 
ROOT
HETATM    1  C8  UNL     1      23.694  -0.506  53.852  1.00  0.00     0.031 A 
HETATM    2  C9  UNL     1      22.852  -1.138  54.741  1.00  0.00     0.031 A 
HETATM    3  C10 UNL     1      21.482  -1.187  54.582  1.00  0.00     0.028 A 
HETATM    4  C11 UNL     1      20.912  -0.577  53.485  1.00  0.00     0.061 A 
HETATM    5 CL1  UNL     1      19.179  -0.589  53.201  1.00  0.00    -0.082 Cl
HETATM    6  C12 UNL     1      21.762   0.053  52.600  1.00  0.00     0.073 A 
HETATM    7  C22 UNL     1      23.134   0.106  52.751  1.00  0.00     0.060 A 
ENDROOT
BRANCH   6   8
HETATM    8  N2  UNL     1      21.175   0.681  51.472  1.00  0.00    -0.186 N 
HETATM    9  H11 UNL     1      20.146   0.713  51.304  1.00  0.00     0.184 HD
BRANCH   8  10
HETATM   10  C13 UNL     1      21.726   1.373  50.359  1.00  0.00     0.727 A 
HETATM   11  N3  UNL     1      21.474   0.904  49.109  1.00  0.00    -0.075 NA
HETATM   12  C14 UNL     1      22.014   1.583  48.079  1.00  0.00     0.139 A 
HETATM   13  C15 UNL     1      22.782   2.700  48.330  1.00  0.00     0.053 A 
HETATM   14  C16 UNL     1      23.043   3.182  49.596  1.00  0.00     0.089 A 
HETATM   15  N5  UNL     1      22.475   2.459  50.586  1.00  0.00    -0.062 NA
BRANCH  14  16
HETATM   16  C17 UNL     1      23.861   4.365  49.829  1.00  0.00     0.011 A 
HETATM   17  C18 UNL     1      25.059   4.630  49.202  1.00  0.00     0.017 A 
HETATM   18  C19 UNL     1      25.748   5.794  49.510  1.00  0.00     0.020 A 
HETATM   19  C20 UNL     1      25.231   6.690  50.451  1.00  0.00     0.116 A 
HETATM   20  N4  UNL     1      24.061   6.438  51.068  1.00  0.00    -0.272 NA
HETATM   21  C21 UNL     1      23.429   5.299  50.738  1.00  0.00     0.130 A 
ENDBRANCH  14  16
ENDBRANCH   8  10
ENDBRANCH   6   8
BRANCH   1  22
HETATM   22  N1  UNL     1      25.103  -0.476  54.038  1.00  0.00    -0.378 N 
HETATM   23  H8  UNL     1      25.491  -0.823  54.958  1.00  0.00     0.160 HD
BRANCH  22  24
HETATM   24  C7  UNL     1      26.098  -0.017  53.096  1.00  0.00     0.140 A 
HETATM   25  C2  UNL     1      27.279  -0.885  53.039  1.00  0.00    -0.008 A 
HETATM   26  C1  UNL     1      26.924  -2.075  52.621  1.00  0.00     0.024 C 
HETATM   27  C3  UNL     1      28.685  -0.669  53.345  1.00  0.00     0.073 A 
HETATM   28  C4  UNL     1      28.959   0.574  53.766  1.00  0.00     0.037 A 
HETATM   29  C5  UNL     1      27.877   1.561  53.876  1.00  0.00     0.001 A 
HETATM   30  C6  UNL     1      26.604   1.318  53.584  1.00  0.00     0.003 A 
BRANCH  27  31
HETATM   31  O1  UNL     1      29.593  -1.705  53.190  1.00  0.00    -0.360 OA
HETATM   32  H3  UNL     1      29.224  -2.652  53.299  1.00  0.00     0.217 HD
ENDBRANCH  27  31
ENDBRANCH  22  24
ENDBRANCH   1  22
TORSDOF 6
ENDMDL
MODEL 4
REMARK VINA RESULT:      -9.0      3.620      7.927
REMARK  6 active torsions:
REMARK  status: ('A' for Active; 'I' for Inactive)
REMARK    1  A    between atoms: C3_3  and  O1_4 
REMARK    2  A    between atoms: C7_8  and  N1_9 
REMARK    3  A    between atoms: N1_9  and  C8_10 
REMARK    4  A    between atoms: C12_15  and  N2_16 
REMARK    5  A    between atoms: N2_16  and  C13_17 
REMARK    6  A    between atoms: C16_21  and  C17_22 
ROOT
HETATM    1  C8  UNL     1      28.845   6.119  48.140  1.00  0.00     0.031 A 
HETATM    2  C9  UNL     1      28.122   7.290  48.083  1.00  0.00     0.031 A 
HETATM    3  C10 UNL     1      26.782   7.370  48.403  1.00  0.00     0.028 A 
HETATM    4  C11 UNL     1      26.119   6.229  48.801  1.00  0.00     0.061 A 
HETATM    5 CL1  UNL     1      24.415   6.235  49.228  1.00  0.00    -0.082 Cl
HETATM    6  C12 UNL     1      26.849   5.060  48.856  1.00  0.00     0.073 A 
HETATM    7  C22 UNL     1      28.191   4.971  48.537  1.00  0.00     0.060 A 
ENDROOT
BRANCH   6   8
HETATM    8  N2  UNL     1      26.167   3.886  49.264  1.00  0.00    -0.186 N 
HETATM    9  H11 UNL     1      25.707   3.229  48.596  1.00  0.00     0.184 HD
BRANCH   8  10
HETATM   10  C13 UNL     1      25.923   3.306  50.539  1.00  0.00     0.727 A 
HETATM   11  N3  UNL     1      24.793   3.653  51.208  1.00  0.00    -0.075 NA
HETATM   12  C14 UNL     1      24.597   3.086  52.414  1.00  0.00     0.139 A 
HETATM   13  C15 UNL     1      25.529   2.199  52.907  1.00  0.00     0.053 A 
HETATM   14  C16 UNL     1      26.678   1.842  52.233  1.00  0.00     0.089 A 
HETATM   15  N5  UNL     1      26.819   2.442  51.032  1.00  0.00    -0.062 NA
BRANCH  14  16
HETATM   16  C17 UNL     1      27.647   0.901  52.783  1.00  0.00     0.011 A 
HETATM   17  C18 UNL     1      28.869   1.249  53.315  1.00  0.00     0.017 A 
HETATM   18  C19 UNL     1      29.706   0.258  53.807  1.00  0.00     0.020 A 
HETATM   19  C20 UNL     1      29.313  -1.083  53.763  1.00  0.00     0.116 A 
HETATM   20  N4  UNL     1      28.119  -1.431  53.245  1.00  0.00    -0.272 NA
HETATM   21  C21 UNL     1      27.342  -0.438  52.781  1.00  0.00     0.130 A 
ENDBRANCH  14  16
ENDBRANCH   8  10
ENDBRANCH   6   8
BRANCH   1  22
HETATM   22  N1  UNL     1      30.226   6.067  47.809  1.00  0.00    -0.378 N 
HETATM   23  H8  UNL     1      30.517   6.364  46.837  1.00  0.00     0.160 HD
BRANCH  22  24
HETATM   24  C7  UNL     1      31.313   5.645  48.664  1.00  0.00     0.140 A 
HETATM   25  C2  UNL     1      32.313   6.696  48.880  1.00  0.00    -0.008 A 
HETATM   26  C1  UNL     1      31.756   7.709  49.496  1.00  0.00     0.024 C 
HETATM   27  C3  UNL     1      33.728   6.802  48.551  1.00  0.00     0.073 A 
HETATM   28  C4  UNL     1      34.216   5.724  47.922  1.00  0.00     0.037 A 
HETATM   29  C5  UNL     1      33.333   4.586  47.634  1.00  0.00     0.001 A 
HETATM   30  C6  UNL     1      32.044   4.533  47.954  1.00  0.00     0.003 A 
BRANCH  27  31
HETATM   31  O1  UNL     1      34.431   7.947  48.891  1.00  0.00    -0.360 OA
HETATM   32  H3  UNL     1      35.426   7.824  49.097  1.00  0.00     0.217 HD
ENDBRANCH  27  31
ENDBRANCH  22  24
ENDBRANCH   1  22
TORSDOF 6
ENDMDL
MODEL 5
REMARK VINA RESULT:      -9.0      2.472      6.040
REMARK  6 active torsions:
REMARK  status: ('A' for Active; 'I' for Inactive)
REMARK    1  A    between atoms: C3_3  and  O1_4 
REMARK    2  A    between atoms: C7_8  and  N1_9 
REMARK    3  A    between atoms: N1_9  and  C8_10 
REMARK    4  A    between atoms: C12_15  and  N2_16 
REMARK    5  A    between atoms: N2_16  and  C13_17 
REMARK    6  A    between atoms: C16_21  and  C17_22 
ROOT
HETATM    1  C8  UNL     1      26.125   3.102  50.316  1.00  0.00     0.031 A 
HETATM    2  C9  UNL     1      26.740   4.152  49.670  1.00  0.00     0.031 A 
HETATM    3  C10 UNL     1      26.047   5.159  49.032  1.00  0.00     0.028 A 
HETATM    4  C11 UNL     1      24.668   5.128  49.030  1.00  0.00     0.061 A 
HETATM    5 CL1  UNL     1      23.704   6.367  48.244  1.00  0.00    -0.082 Cl
HETATM    6  C12 UNL     1      24.060   4.074  49.679  1.00  0.00     0.073 A 
HETATM    7  C22 UNL     1      24.747   3.061  50.320  1.00  0.00     0.060 A 
ENDROOT
BRANCH   6   8
HETATM    8  N2  UNL     1      22.642   4.040  49.675  1.00  0.00    -0.186 N 
HETATM    9  H11 UNL     1      22.062   4.420  48.896  1.00  0.00     0.184 HD
BRANCH   8  10
HETATM   10  C13 UNL     1      21.687   3.547  50.605  1.00  0.00     0.727 A 
HETATM   11  N3  UNL     1      20.511   4.211  50.746  1.00  0.00    -0.075 NA
HETATM   12  C14 UNL     1      19.631   3.717  51.639  1.00  0.00     0.139 A 
HETATM   13  C15 UNL     1      19.954   2.585  52.355  1.00  0.00     0.053 A 
HETATM   14  C16 UNL     1      21.146   1.905  52.217  1.00  0.00     0.089 A 
HETATM   15  N5  UNL     1      21.986   2.448  51.310  1.00  0.00    -0.062 NA
BRANCH  14  16
HETATM   16  C17 UNL     1      21.459   0.710  52.991  1.00  0.00     0.011 A 
HETATM   17  C18 UNL     1      22.724   0.346  53.400  1.00  0.00     0.017 A 
HETATM   18  C19 UNL     1      22.894  -0.820  54.133  1.00  0.00     0.020 A 
HETATM   19  C20 UNL     1      21.792  -1.618  54.454  1.00  0.00     0.116 A 
HETATM   20  N4  UNL     1      20.552  -1.267  54.059  1.00  0.00    -0.272 NA
HETATM   21  C21 UNL     1      20.436  -0.131  53.351  1.00  0.00     0.130 A 
ENDBRANCH  14  16
ENDBRANCH   8  10
ENDBRANCH   6   8
BRANCH   1  22
HETATM   22  N1  UNL     1      26.865   2.080  50.971  1.00  0.00    -0.378 N 
HETATM   23  H8  UNL     1      27.718   1.693  50.482  1.00  0.00     0.160 HD
BRANCH  22  24
HETATM   24  C7  UNL     1      26.585   1.489  52.260  1.00  0.00     0.140 A 
HETATM   25  C2  UNL     1      27.788   1.296  53.076  1.00  0.00    -0.008 A 
HETATM   26  C1  UNL     1      28.330   2.460  53.335  1.00  0.00     0.024 C 
HETATM   27  C3  UNL     1      28.442   0.112  53.615  1.00  0.00     0.073 A 
HETATM   28  C4  UNL     1      27.822  -1.035  53.301  1.00  0.00     0.037 A 
HETATM   29  C5  UNL     1      26.601  -1.004  52.486  1.00  0.00     0.001 A 
HETATM   30  C6  UNL     1      26.038   0.105  52.015  1.00  0.00     0.003 A 
BRANCH  27  31
HETATM   31  O1  UNL     1      29.596   0.245  54.371  1.00  0.00    -0.360 OA
HETATM   32  H3  UNL     1      30.340  -0.432  54.187  1.00  0.00     0.217 HD
ENDBRANCH  27  31
ENDBRANCH  22  24
ENDBRANCH   1  22
TORSDOF 6
ENDMDL
MODEL 6
REMARK VINA RESULT:      -8.8      3.033      6.269
REMARK  6 active torsions:
REMARK  status: ('A' for Active; 'I' for Inactive)
REMARK    1  A    between atoms: C3_3  and  O1_4 
REMARK    2  A    between atoms: C7_8  and  N1_9 
REMARK    3  A    between atoms: N1_9  and  C8_10 
REMARK    4  A    between atoms: C12_15  and  N2_16 
REMARK    5  A    between atoms: N2_16  and  C13_17 
REMARK    6  A    between atoms: C16_21  and  C17_22 
ROOT
HETATM    1  C8  UNL     1      25.938   2.205  53.094  1.00  0.00     0.031 A 
HETATM    2  C9  UNL     1      26.888   2.403  52.116  1.00  0.00     0.031 A 
HETATM    3  C10 UNL     1      26.598   2.930  50.874  1.00  0.00     0.028 A 
HETATM    4  C11 UNL     1      25.296   3.282  50.582  1.00  0.00     0.061 A 
HETATM    5 CL1  UNL     1      24.834   3.959  49.029  1.00  0.00    -0.082 Cl
HETATM    6  C12 UNL     1      24.352   3.080  51.566  1.00  0.00     0.073 A 
HETATM    7  C22 UNL     1      24.634   2.553  52.812  1.00  0.00     0.060 A 
ENDROOT
BRANCH   6   8
HETATM    8  N2  UNL     1      23.013   3.439  51.265  1.00  0.00    -0.186 N 
HETATM    9  H11 UNL     1      22.606   4.373  51.491  1.00  0.00     0.184 HD
BRANCH   8  10
HETATM   10  C13 UNL     1      21.943   2.738  50.645  1.00  0.00     0.727 A 
HETATM   11  N3  UNL     1      21.708   2.945  49.323  1.00  0.00    -0.075 NA
HETATM   12  C14 UNL     1      20.684   2.266  48.770  1.00  0.00     0.139 A 
HETATM   13  C15 UNL     1      19.935   1.412  49.550  1.00  0.00     0.053 A 
HETATM   14  C16 UNL     1      20.168   1.197  50.892  1.00  0.00     0.089 A 
HETATM   15  N5  UNL     1      21.205   1.905  51.389  1.00  0.00    -0.062 NA
BRANCH  14  16
HETATM   16  C17 UNL     1      19.357   0.287  51.691  1.00  0.00     0.011 A 
HETATM   17  C18 UNL     1      18.065  -0.086  51.391  1.00  0.00     0.017 A 
HETATM   18  C19 UNL     1      17.394  -0.961  52.233  1.00  0.00     0.020 A 
HETATM   19  C20 UNL     1      18.024  -1.459  53.378  1.00  0.00     0.116 A 
HETATM   20  N4  UNL     1      19.287  -1.099  53.678  1.00  0.00    -0.272 NA
HETATM   21  C21 UNL     1      19.897  -0.250  52.834  1.00  0.00     0.130 A 
ENDBRANCH  14  16
ENDBRANCH   8  10
ENDBRANCH   6   8
BRANCH   1  22
HETATM   22  N1  UNL     1      26.267   1.665  54.367  1.00  0.00    -0.378 N 
HETATM   23  H8  UNL     1      26.257   2.315  55.201  1.00  0.00     0.160 HD
BRANCH  22  24
HETATM   24  C7  UNL     1      26.623   0.297  54.668  1.00  0.00     0.140 A 
HETATM   25  C2  UNL     1      27.992  -0.042  54.265  1.00  0.00    -0.008 A 
HETATM   26  C1  UNL     1      28.839   0.697  54.938  1.00  0.00     0.024 C 
HETATM   27  C3  UNL     1      28.538  -0.995  53.310  1.00  0.00     0.073 A 
HETATM   28  C4  UNL     1      27.603  -1.707  52.666  1.00  0.00     0.037 A 
HETATM   29  C5  UNL     1      26.182  -1.480  52.962  1.00  0.00     0.001 A 
HETATM   30  C6  UNL     1      25.729  -0.597  53.845  1.00  0.00     0.003 A 
BRANCH  27  31
HETATM   31  O1  UNL     1      29.910  -1.094  53.141  1.00  0.00    -0.360 OA
HETATM   32  H3  UNL     1      30.406  -0.224  52.927  1.00  0.00     0.217 HD
ENDBRANCH  27  31
ENDBRANCH  22  24
ENDBRANCH   1  22
TORSDOF 6
ENDMDL
MODEL 7
REMARK VINA RESULT:      -8.7      3.141      5.285
REMARK  6 active torsions:
REMARK  status: ('A' for Active; 'I' for Inactive)
REMARK    1  A    between atoms: C3_3  and  O1_4 
REMARK    2  A    between atoms: C7_8  and  N1_9 
REMARK    3  A    between atoms: N1_9  and  C8_10 
REMARK    4  A    between atoms: C12_15  and  N2_16 
REMARK    5  A    between atoms: N2_16  and  C13_17 
REMARK    6  A    between atoms: C16_21  and  C17_22 
ROOT
HETATM    1  C8  UNL     1      24.364   0.145  53.044  1.00  0.00     0.031 A 
HETATM    2  C9  UNL     1      25.169  -0.210  54.104  1.00  0.00     0.031 A 
HETATM    3  C10 UNL     1      26.490   0.172  54.213  1.00  0.00     0.028 A 
HETATM    4  C11 UNL     1      27.048   0.948  53.218  1.00  0.00     0.061 A 
HETATM    5 CL1  UNL     1      28.720   1.482  53.272  1.00  0.00    -0.082 Cl
HETATM    6  C12 UNL     1      26.235   1.299  52.161  1.00  0.00     0.073 A 
HETATM    7  C22 UNL     1      24.911   0.921  52.045  1.00  0.00     0.060 A 
ENDROOT
BRANCH   6   8
HETATM    8  N2  UNL     1      26.808   2.096  51.137  1.00  0.00    -0.186 N 
HETATM    9  H11 UNL     1      27.766   1.936  50.756  1.00  0.00     0.184 HD
BRANCH   8  10
HETATM   10  C13 UNL     1      26.328   3.215  50.403  1.00  0.00     0.727 A 
HETATM   11  N3  UNL     1      24.991   3.452  50.377  1.00  0.00    -0.075 NA
HETATM   12  C14 UNL     1      24.572   4.519  49.669  1.00  0.00     0.139 A 
HETATM   13  C15 UNL     1      25.496   5.306  49.016  1.00  0.00     0.053 A 
HETATM   14  C16 UNL     1      26.855   5.070  49.037  1.00  0.00     0.089 A 
HETATM   15  N5  UNL     1      27.213   3.989  49.762  1.00  0.00    -0.062 NA
BRANCH  14  16
HETATM   16  C17 UNL     1      27.807   5.921  48.334  1.00  0.00     0.011 A 
HETATM   17  C18 UNL     1      27.500   7.130  47.749  1.00  0.00     0.017 A 
HETATM   18  C19 UNL     1      28.497   7.848  47.105  1.00  0.00     0.020 A 
HETATM   19  C20 UNL     1      29.802   7.350  47.051  1.00  0.00     0.116 A 
HETATM   20  N4  UNL     1      30.110   6.169  47.621  1.00  0.00    -0.272 NA
HETATM   21  C21 UNL     1      29.113   5.508  48.233  1.00  0.00     0.130 A 
ENDBRANCH  14  16
ENDBRANCH   8  10
ENDBRANCH   6   8
BRANCH   1  22
HETATM   22  N1  UNL     1      23.003  -0.260  52.962  1.00  0.00    -0.378 N 
HETATM   23  H8  UNL     1      22.795  -1.293  52.890  1.00  0.00     0.160 HD
BRANCH  22  24
HETATM   24  C7  UNL     1      21.838   0.595  52.963  1.00  0.00     0.140 A 
HETATM   25  C2  UNL     1      20.681  -0.014  53.627  1.00  0.00    -0.008 A 
HETATM   26  C1  UNL     1      20.963  -0.223  54.889  1.00  0.00     0.024 C 
HETATM   27  C3  UNL     1      19.358  -0.401  53.159  1.00  0.00     0.073 A 
HETATM   28  C4  UNL     1      19.154  -0.154  51.857  1.00  0.00     0.037 A 
HETATM   29  C5  UNL     1      20.223   0.455  51.055  1.00  0.00     0.001 A 
HETATM   30  C6  UNL     1      21.419   0.793  51.527  1.00  0.00     0.003 A 
BRANCH  27  31
HETATM   31  O1  UNL     1      18.451  -0.968  54.041  1.00  0.00    -0.360 OA
HETATM   32  H3  UNL     1      17.880  -0.318  54.586  1.00  0.00     0.217 HD
ENDBRANCH  27  31
ENDBRANCH  22  24
ENDBRANCH   1  22
TORSDOF 6
ENDMDL
MODEL 8
REMARK VINA RESULT:      -8.5      1.811      2.095
REMARK  6 active torsions:
REMARK  status: ('A' for Active; 'I' for Inactive)
REMARK    1  A    between atoms: C3_3  and  O1_4 
REMARK    2  A    between atoms: C7_8  and  N1_9 
REMARK    3  A    between atoms: N1_9  and  C8_10 
REMARK    4  A    between atoms: C12_15  and  N2_16 
REMARK    5  A    between atoms: N2_16  and  C13_17 
REMARK    6  A    between atoms: C16_21  and  C17_22 
ROOT
HETATM    1  C8  UNL     1      24.225   1.465  52.048  1.00  0.00     0.031 A 
HETATM    2  C9  UNL     1      23.003   0.838  52.159  1.00  0.00     0.031 A 
HETATM    3  C10 UNL     1      21.873   1.258  51.489  1.00  0.00     0.028 A 
HETATM    4  C11 UNL     1      21.953   2.359  50.662  1.00  0.00     0.061 A 
HETATM    5 CL1  UNL     1      20.567   2.964  49.770  1.00  0.00    -0.082 Cl
HETATM    6  C12 UNL     1      23.179   2.980  50.556  1.00  0.00     0.073 A 
HETATM    7  C22 UNL     1      24.316   2.567  51.223  1.00  0.00     0.060 A 
ENDROOT
BRANCH   6   8
HETATM    8  N2  UNL     1      23.262   4.113  49.707  1.00  0.00    -0.186 N 
HETATM    9  H11 UNL     1      23.122   4.067  48.674  1.00  0.00     0.184 HD
BRANCH   8  10
HETATM   10  C13 UNL     1      23.525   5.488  49.956  1.00  0.00     0.727 A 
HETATM   11  N3  UNL     1      22.524   6.265  50.447  1.00  0.00    -0.075 NA
HETATM   12  C14 UNL     1      22.809   7.563  50.668  1.00  0.00     0.139 A 
HETATM   13  C15 UNL     1      24.073   8.037  50.393  1.00  0.00     0.053 A 
HETATM   14  C16 UNL     1      25.094   7.255  49.895  1.00  0.00     0.089 A 
HETATM   15  N5  UNL     1      24.748   5.965  49.694  1.00  0.00    -0.062 NA
BRANCH  14  16
HETATM   16  C17 UNL     1      26.421   7.787  49.613  1.00  0.00     0.011 A 
HETATM   17  C18 UNL     1      26.932   8.951  50.144  1.00  0.00     0.017 A 
HETATM   18  C19 UNL     1      28.213   9.354  49.797  1.00  0.00     0.020 A 
HETATM   19  C20 UNL     1      28.979   8.586  48.915  1.00  0.00     0.116 A 
HETATM   20  N4  UNL     1      28.487   7.447  48.392  1.00  0.00    -0.272 NA
HETATM   21  C21 UNL     1      27.242   7.095  48.756  1.00  0.00     0.130 A 
ENDBRANCH  14  16
ENDBRANCH   8  10
ENDBRANCH   6   8
BRANCH   1  22
HETATM   22  N1  UNL     1      25.375   1.007  52.746  1.00  0.00    -0.378 N 
HETATM   23  H8  UNL     1      25.262   0.725  53.759  1.00  0.00     0.160 HD
BRANCH  22  24
HETATM   24  C7  UNL     1      26.717   0.878  52.227  1.00  0.00     0.140 A 
HETATM   25  C2  UNL     1      27.403  -0.329  52.702  1.00  0.00    -0.008 A 
HETATM   26  C1  UNL     1      26.760  -1.390  52.281  1.00  0.00     0.024 C 
HETATM   27  C3  UNL     1      28.596  -0.540  53.508  1.00  0.00     0.073 A 
HETATM   28  C4  UNL     1      29.190   0.597  53.898  1.00  0.00     0.037 A 
HETATM   29  C5  UNL     1      28.620   1.891  53.500  1.00  0.00     0.001 A 
HETATM   30  C6  UNL     1      27.525   2.035  52.760  1.00  0.00     0.003 A 
BRANCH  27  31
HETATM   31  O1  UNL     1      29.012  -1.829  53.802  1.00  0.00    -0.360 OA
HETATM   32  H3  UNL     1      28.620  -2.251  54.648  1.00  0.00     0.217 HD
ENDBRANCH  27  31
ENDBRANCH  22  24
ENDBRANCH   1  22
TORSDOF 6
ENDMDL
MODEL 9
REMARK VINA RESULT:      -8.4      3.174      5.993
REMARK  6 active torsions:
REMARK  status: ('A' for Active; 'I' for Inactive)
REMARK    1  A    between atoms: C3_3  and  O1_4 
REMARK    2  A    between atoms: C7_8  and  N1_9 
REMARK    3  A    between atoms: N1_9  and  C8_10 
REMARK    4  A    between atoms: C12_15  and  N2_16 
REMARK    5  A    between atoms: N2_16  and  C13_17 
REMARK    6  A    between atoms: C16_21  and  C17_22 
ROOT
HETATM    1  C8  UNL     1      24.375   0.398  52.946  1.00  0.00     0.031 A 
HETATM    2  C9  UNL     1      25.125   0.142  54.073  1.00  0.00     0.031 A 
HETATM    3  C10 UNL     1      26.422   0.583  54.235  1.00  0.00     0.028 A 
HETATM    4  C11 UNL     1      27.012   1.318  53.228  1.00  0.00     0.061 A 
HETATM    5 CL1  UNL     1      28.657   1.921  53.347  1.00  0.00    -0.082 Cl
HETATM    6  C12 UNL     1      26.254   1.570  52.104  1.00  0.00     0.073 A 
HETATM    7  C22 UNL     1      24.955   1.132  51.933  1.00  0.00     0.060 A 
ENDROOT
BRANCH   6   8
HETATM    8  N2  UNL     1      26.861   2.324  51.068  1.00  0.00    -0.186 N 
HETATM    9  H11 UNL     1      27.801   2.103  50.673  1.00  0.00     0.184 HD
BRANCH   8  10
HETATM   10  C13 UNL     1      26.441   3.468  50.334  1.00  0.00     0.727 A 
HETATM   11  N3  UNL     1      27.326   4.065  49.495  1.00  0.00    -0.075 NA
HETATM   12  C14 UNL     1      26.895   5.147  48.818  1.00  0.00     0.139 A 
HETATM   13  C15 UNL     1      25.604   5.593  49.003  1.00  0.00     0.053 A 
HETATM   14  C16 UNL     1      24.700   4.992  49.854  1.00  0.00     0.089 A 
HETATM   15  N5  UNL     1      25.190   3.914  50.503  1.00  0.00    -0.062 NA
BRANCH  14  16
HETATM   16  C17 UNL     1      23.341   5.489  50.029  1.00  0.00     0.011 A 
HETATM   17  C18 UNL     1      22.997   6.598  50.771  1.00  0.00     0.017 A 
HETATM   18  C19 UNL     1      21.664   6.971  50.862  1.00  0.00     0.020 A 
HETATM   19  C20 UNL     1      20.678   6.228  50.208  1.00  0.00     0.116 A 
HETATM   20  N4  UNL     1      21.006   5.142  49.480  1.00  0.00    -0.272 NA
HETATM   21  C21 UNL     1      22.308   4.819  49.420  1.00  0.00     0.130 A 
ENDBRANCH  14  16
ENDBRANCH   8  10
ENDBRANCH   6   8
BRANCH   1  22
HETATM   22  N1  UNL     1      23.038  -0.064  52.809  1.00  0.00    -0.378 N 
HETATM   23  H8  UNL     1      22.882  -1.100  52.663  1.00  0.00     0.160 HD
BRANCH  22  24
HETATM   24  C7  UNL     1      21.832   0.731  52.844  1.00  0.00     0.140 A 
HETATM   25  C2  UNL     1      20.729   0.069  53.550  1.00  0.00    -0.008 A 
HETATM   26  C1  UNL     1      21.063  -0.116  54.803  1.00  0.00     0.024 C 
HETATM   27  C3  UNL     1      19.412  -0.387  53.128  1.00  0.00     0.073 A 
HETATM   28  C4  UNL     1      19.154  -0.159  51.832  1.00  0.00     0.037 A 
HETATM   29  C5  UNL     1      20.164   0.497  50.992  1.00  0.00     0.001 A 
HETATM   30  C6  UNL     1      21.356   0.898  51.422  1.00  0.00     0.003 A 
BRANCH  27  31
HETATM   31  O1  UNL     1      18.565  -0.992  54.043  1.00  0.00    -0.360 OA
HETATM   32  H3  UNL     1      18.578  -2.014  54.067  1.00  0.00     0.217 HD
ENDBRANCH  27  31
ENDBRANCH  22  24
ENDBRANCH   1  22
TORSDOF 6
ENDMDL
