MODEL 1
REMARK VINA RESULT:      -8.5      0.000      0.000
REMARK  3 active torsions:
REMARK  status: ('A' for Active; 'I' for Inactive)
REMARK       I    between atoms: C1_2  and  N1_3 
REMARK       I    between atoms: C1_2  and  N2_10 
REMARK    1  A    between atoms: N1_3  and  C2_4 
REMARK    2  A    between atoms: C11_14  and  O2_15 
REMARK    3  A    between atoms: C16_20  and  O3_21 
ROOT
HETATM    1  O1  UNL     1      25.316   2.122  52.995  1.00  0.00    -0.246 OA
HETATM    2  C1  UNL     1      24.172   1.595  53.082  1.00  0.00     0.327 C 
HETATM    3  N1  UNL     1      24.417   0.231  53.457  1.00  0.00    -0.309 N 
HETATM    4  N2  UNL     1      23.156   2.606  52.773  1.00  0.00    -0.303 N 
HETATM    5  C8  UNL     1      23.861   3.872  52.709  1.00  0.00     0.139 C 
HETATM    6  C9  UNL     1      24.082   4.559  51.464  1.00  0.00     0.021 C 
HETATM    7  C10 UNL     1      23.210   4.364  50.400  1.00  0.00     0.059 C 
HETATM    8  C11 UNL     1      23.271   4.977  49.017  1.00  0.00     0.045 C 
HETATM    9  C12 UNL     1      22.255   4.684  48.164  1.00  0.00     0.007 C 
HETATM   10  C13 UNL     1      20.977   3.859  48.228  1.00  0.00     0.006 C 
HETATM   11  C14 UNL     1      20.001   3.043  48.748  1.00  0.00     0.065 C 
HETATM   12  C15 UNL     1      19.946   2.446  50.162  1.00  0.00    -0.023 C 
HETATM   13  C16 UNL     1      19.603   2.785  51.463  1.00  0.00     0.055 C 
HETATM   14  C17 UNL     1      20.417   2.539  52.708  1.00  0.00     0.122 C 
HETATM   15  C18 UNL     1      21.808   2.150  52.485  1.00  0.00     0.022 C 
HETATM   16  C19 UNL     1      22.151   1.043  51.748  1.00  0.00     0.025 C 
HETATM   17  C20 UNL     1      21.287   0.232  50.796  1.00  0.00     0.003 C 
HETATM   18  C21 UNL     1      20.474   1.023  49.969  1.00  0.00     0.010 C 
HETATM   19  H1  UNL     1      23.456  -0.200  53.581  1.00  0.00     0.170 HD
ENDROOT
BRANCH   3  20
HETATM   20  C2  UNL     1      25.808  -0.044  53.564  1.00  0.00     0.036 A 
HETATM   21  C3  UNL     1      26.438   0.431  54.707  1.00  0.00     0.029 A 
HETATM   22  C4  UNL     1      27.787   0.183  54.845  1.00  0.00     0.002 A 
HETATM   23  C5  UNL     1      28.440  -0.514  53.857  1.00  0.00     0.000 A 
HETATM   24  C6  UNL     1      27.802  -0.990  52.708  1.00  0.00     0.002 A 
HETATM   25  C7  UNL     1      26.464  -0.744  52.572  1.00  0.00     0.029 A 
ENDBRANCH   3  20
BRANCH  13  26
HETATM   26  O3  UNL     1      18.418   3.427  51.853  1.00  0.00    -0.364 OA
HETATM   27  H15 UNL     1      18.553   4.174  52.548  1.00  0.00     0.217 HD
ENDBRANCH  13  26
BRANCH   8  28
HETATM   28  O2  UNL     1      24.010   5.829  48.101  1.00  0.00    -0.365 OA
HETATM   29  H11 UNL     1      24.525   6.554  48.587  1.00  0.00     0.217 HD
ENDBRANCH   8  28
TORSDOF 3
ENDMDL
MODEL 2
REMARK VINA RESULT:      -7.8      2.520      3.760
REMARK  3 active torsions:
REMARK  status: ('A' for Active; 'I' for Inactive)
REMARK       I    between atoms: C1_2  and  N1_3 
REMARK       I    between atoms: C1_2  and  N2_10 
REMARK    1  A    between atoms: N1_3  and  C2_4 
REMARK    2  A    between atoms: C11_14  and  O2_15 
REMARK    3  A    between atoms: C16_20  and  O3_21 
ROOT
HETATM    1  O1  UNL     1      21.699   1.902  52.930  1.00  0.00    -0.246 OA
HETATM    2  C1  UNL     1      21.293   1.586  51.778  1.00  0.00     0.327 C 
HETATM    3  N1  UNL     1      21.545   0.176  51.667  1.00  0.00    -0.309 N 
HETATM    4  N2  UNL     1      20.760   2.780  51.114  1.00  0.00    -0.303 N 
HETATM    5  C8  UNL     1      20.706   3.810  52.134  1.00  0.00     0.139 C 
HETATM    6  C9  UNL     1      21.609   4.930  52.134  1.00  0.00     0.021 C 
HETATM    7  C10 UNL     1      22.170   5.370  50.942  1.00  0.00     0.059 C 
HETATM    8  C11 UNL     1      23.142   6.512  50.730  1.00  0.00     0.045 C 
HETATM    9  C12 UNL     1      23.496   6.795  49.450  1.00  0.00     0.007 C 
HETATM   10  C13 UNL     1      23.148   6.247  48.073  1.00  0.00     0.006 C 
HETATM   11  C14 UNL     1      22.554   5.457  47.119  1.00  0.00     0.065 C 
HETATM   12  C15 UNL     1      21.553   4.315  47.351  1.00  0.00    -0.023 C 
HETATM   13  C16 UNL     1      20.207   4.096  47.602  1.00  0.00     0.055 C 
HETATM   14  C17 UNL     1      19.617   3.196  48.659  1.00  0.00     0.122 C 
HETATM   15  C18 UNL     1      20.551   2.725  49.678  1.00  0.00     0.022 C 
HETATM   16  C19 UNL     1      21.685   2.017  49.363  1.00  0.00     0.025 C 
HETATM   17  C20 UNL     1      22.361   1.863  48.010  1.00  0.00     0.003 C 
HETATM   18  C21 UNL     1      22.423   3.058  47.278  1.00  0.00     0.010 C 
HETATM   19  H1  UNL     1      21.158  -0.102  50.720  1.00  0.00     0.170 HD
ENDROOT
BRANCH   3  20
HETATM   20  C2  UNL     1      22.167  -0.339  52.836  1.00  0.00     0.036 A 
HETATM   21  C3  UNL     1      21.334  -0.996  53.733  1.00  0.00     0.029 A 
HETATM   22  C4  UNL     1      21.902  -1.510  54.878  1.00  0.00     0.002 A 
HETATM   23  C5  UNL     1      23.253  -1.352  55.079  1.00  0.00     0.000 A 
HETATM   24  C6  UNL     1      24.089  -0.690  54.175  1.00  0.00     0.002 A 
HETATM   25  C7  UNL     1      23.524  -0.181  53.039  1.00  0.00     0.029 A 
ENDBRANCH   3  20
BRANCH  13  26
HETATM   26  O3  UNL     1      19.141   4.683  46.904  1.00  0.00    -0.364 OA
HETATM   27  H15 UNL     1      18.509   5.245  47.493  1.00  0.00     0.217 HD
ENDBRANCH  13  26
BRANCH   8  28
HETATM   28  O2  UNL     1      23.948   7.547  51.354  1.00  0.00    -0.365 OA
HETATM   29  H11 UNL     1      24.879   7.596  50.958  1.00  0.00     0.217 HD
ENDBRANCH   8  28
TORSDOF 3
ENDMDL
MODEL 3
REMARK VINA RESULT:      -7.7      7.896      9.643
REMARK  3 active torsions:
REMARK  status: ('A' for Active; 'I' for Inactive)
REMARK       I    between atoms: C1_2  and  N1_3 
REMARK       I    between atoms: C1_2  and  N2_10 
REMARK    1  A    between atoms: N1_3  and  C2_4 
REMARK    2  A    between atoms: C11_14  and  O2_15 
REMARK    3  A    between atoms: C16_20  and  O3_21 
ROOT
HETATM    1  O1  UNL     1      32.178   6.722  46.984  1.00  0.00    -0.246 OA
HETATM    2  C1  UNL     1      31.319   6.701  47.909  1.00  0.00     0.327 C 
HETATM    3  N1  UNL     1      31.535   5.455  48.589  1.00  0.00    -0.309 N 
HETATM    4  N2  UNL     1      30.530   7.936  47.858  1.00  0.00    -0.303 N 
HETATM    5  C8  UNL     1      31.200   8.796  46.899  1.00  0.00     0.139 C 
HETATM    6  C9  UNL     1      30.639   9.075  45.604  1.00  0.00     0.021 C 
HETATM    7  C10 UNL     1      29.263   9.013  45.416  1.00  0.00     0.059 C 
HETATM    8  C11 UNL     1      28.482   9.259  44.143  1.00  0.00     0.045 C 
HETATM    9  C12 UNL     1      27.127   9.207  44.227  1.00  0.00     0.007 C 
HETATM   10  C13 UNL     1      26.110   8.963  45.333  1.00  0.00     0.006 C 
HETATM   11  C14 UNL     1      25.617   8.706  46.589  1.00  0.00     0.065 C 
HETATM   12  C15 UNL     1      26.425   8.480  47.876  1.00  0.00    -0.023 C 
HETATM   13  C16 UNL     1      27.095   9.182  48.866  1.00  0.00     0.055 C 
HETATM   14  C17 UNL     1      28.480   8.906  49.395  1.00  0.00     0.122 C 
HETATM   15  C18 UNL     1      29.285   7.980  48.601  1.00  0.00     0.022 C 
HETATM   16  C19 UNL     1      28.870   6.700  48.325  1.00  0.00     0.025 C 
HETATM   17  C20 UNL     1      27.479   6.103  48.461  1.00  0.00     0.003 C 
HETATM   18  C21 UNL     1      26.459   6.955  48.011  1.00  0.00     0.010 C 
HETATM   19  H1  UNL     1      30.849   5.458  49.398  1.00  0.00     0.170 HD
ENDROOT
BRANCH   3  20
HETATM   20  C2  UNL     1      32.576   4.700  47.986  1.00  0.00     0.036 A 
HETATM   21  C3  UNL     1      32.180   3.743  47.060  1.00  0.00     0.029 A 
HETATM   22  C4  UNL     1      33.163   2.992  46.454  1.00  0.00     0.002 A 
HETATM   23  C5  UNL     1      34.477   3.220  46.789  1.00  0.00     0.000 A 
HETATM   24  C6  UNL     1      34.872   4.183  47.721  1.00  0.00     0.002 A 
HETATM   25  C7  UNL     1      33.896   4.929  48.322  1.00  0.00     0.029 A 
ENDBRANCH   3  20
BRANCH  13  26
HETATM   26  O3  UNL     1      26.592  10.293  49.560  1.00  0.00    -0.364 OA
HETATM   27  H15 UNL     1      26.666  10.219  50.584  1.00  0.00     0.217 HD
ENDBRANCH  13  26
BRANCH   8  28
HETATM   28  O2  UNL     1      28.544   9.557  42.722  1.00  0.00    -0.365 OA
HETATM   29  H11 UNL     1      28.947  10.469  42.541  1.00  0.00     0.217 HD
ENDBRANCH   8  28
TORSDOF 3
ENDMDL
MODEL 4
REMARK VINA RESULT:      -7.7      3.524      6.469
REMARK  3 active torsions:
REMARK  status: ('A' for Active; 'I' for Inactive)
REMARK       I    between atoms: C1_2  and  N1_3 
REMARK       I    between atoms: C1_2  and  N2_10 
REMARK    1  A    between atoms: N1_3  and  C2_4 
REMARK    2  A    between atoms: C11_14  and  O2_15 
REMARK    3  A    between atoms: C16_20  and  O3_21 
ROOT
HETATM    1  O1  UNL     1      26.765   5.416  49.448  1.00  0.00    -0.246 OA
HETATM    2  C1  UNL     1      25.577   5.306  49.037  1.00  0.00     0.327 C 
HETATM    3  N1  UNL     1      25.189   6.635  48.656  1.00  0.00    -0.309 N 
HETATM    4  N2  UNL     1      25.165   3.902  49.135  1.00  0.00    -0.303 N 
HETATM    5  C8  UNL     1      26.368   3.157  49.455  1.00  0.00     0.139 C 
HETATM    6  C9  UNL     1      26.581   2.575  50.754  1.00  0.00     0.021 C 
HETATM    7  C10 UNL     1      25.493   2.224  51.544  1.00  0.00     0.059 C 
HETATM    8  C11 UNL     1      25.501   1.616  52.931  1.00  0.00     0.045 C 
HETATM    9  C12 UNL     1      24.298   1.294  53.473  1.00  0.00     0.007 C 
HETATM   10  C13 UNL     1      22.844   1.373  53.032  1.00  0.00     0.006 C 
HETATM   11  C14 UNL     1      21.758   1.631  52.230  1.00  0.00     0.065 C 
HETATM   12  C15 UNL     1      21.770   2.230  50.816  1.00  0.00    -0.023 C 
HETATM   13  C16 UNL     1      21.985   1.870  49.494  1.00  0.00     0.055 C 
HETATM   14  C17 UNL     1      22.850   2.587  48.488  1.00  0.00     0.122 C 
HETATM   15  C18 UNL     1      23.749   3.599  49.037  1.00  0.00     0.022 C 
HETATM   16  C19 UNL     1      23.290   4.667  49.770  1.00  0.00     0.025 C 
HETATM   17  C20 UNL     1      21.928   4.860  50.416  1.00  0.00     0.003 C 
HETATM   18  C21 UNL     1      21.444   3.707  51.052  1.00  0.00     0.010 C 
HETATM   19  H1  UNL     1      24.209   6.537  48.263  1.00  0.00     0.170 HD
ENDROOT
BRANCH   3  20
HETATM   20  C2  UNL     1      26.229   7.574  48.894  1.00  0.00     0.036 A 
HETATM   21  C3  UNL     1      26.189   8.231  50.118  1.00  0.00     0.029 A 
HETATM   22  C4  UNL     1      27.182   9.149  50.385  1.00  0.00     0.002 A 
HETATM   23  C5  UNL     1      28.154   9.371  49.440  1.00  0.00     0.000 A 
HETATM   24  C6  UNL     1      28.191   8.709  48.209  1.00  0.00     0.002 A 
HETATM   25  C7  UNL     1      27.206   7.798  47.945  1.00  0.00     0.029 A 
ENDBRANCH   3  20
BRANCH  13  26
HETATM   26  O3  UNL     1      21.426   0.755  48.852  1.00  0.00    -0.364 OA
HETATM   27  H15 UNL     1      21.871  -0.141  49.097  1.00  0.00     0.217 HD
ENDBRANCH  13  26
BRANCH   8  28
HETATM   28  O2  UNL     1      26.309   1.178  54.056  1.00  0.00    -0.365 OA
HETATM   29  H11 UNL     1      26.054   1.650  54.915  1.00  0.00     0.217 HD
ENDBRANCH   8  28
TORSDOF 3
ENDMDL
MODEL 5
REMARK VINA RESULT:      -7.6      1.991      2.882
REMARK  3 active torsions:
REMARK  status: ('A' for Active; 'I' for Inactive)
REMARK       I    between atoms: C1_2  and  N1_3 
REMARK       I    between atoms: C1_2  and  N2_10 
REMARK    1  A    between atoms: N1_3  and  C2_4 
REMARK    2  A    between atoms: C11_14  and  O2_15 
REMARK    3  A    between atoms: C16_20  and  O3_21 
ROOT
HETATM    1  O1  UNL     1      24.326   2.780  52.848  1.00  0.00    -0.246 OA
HETATM    2  C1  UNL     1      23.471   2.421  51.992  1.00  0.00     0.327 C 
HETATM    3  N1  UNL     1      23.738   1.029  51.759  1.00  0.00    -0.309 N 
HETATM    4  N2  UNL     1      22.622   3.568  51.652  1.00  0.00    -0.303 N 
HETATM    5  C8  UNL     1      22.961   4.608  52.605  1.00  0.00     0.139 C 
HETATM    6  C9  UNL     1      23.696   5.784  52.221  1.00  0.00     0.021 C 
HETATM    7  C10 UNL     1      23.639   6.240  50.910  1.00  0.00     0.059 C 
HETATM    8  C11 UNL     1      24.340   7.439  50.306  1.00  0.00     0.045 C 
HETATM    9  C12 UNL     1      24.068   7.725  49.006  1.00  0.00     0.007 C 
HETATM   10  C13 UNL     1      23.181   7.135  47.919  1.00  0.00     0.006 C 
HETATM   11  C14 UNL     1      22.276   6.294  47.317  1.00  0.00     0.065 C 
HETATM   12  C15 UNL     1      21.559   5.094  47.952  1.00  0.00    -0.023 C 
HETATM   13  C16 UNL     1      20.482   4.792  48.773  1.00  0.00     0.055 C 
HETATM   14  C17 UNL     1      20.483   3.872  49.968  1.00  0.00     0.122 C 
HETATM   15  C18 UNL     1      21.801   3.477  50.459  1.00  0.00     0.022 C 
HETATM   16  C19 UNL     1      22.720   2.840  49.661  1.00  0.00     0.025 C 
HETATM   17  C20 UNL     1      22.733   2.709  48.147  1.00  0.00     0.003 C 
HETATM   18  C21 UNL     1      22.385   3.894  47.481  1.00  0.00     0.010 C 
HETATM   19  H1  UNL     1      22.989   0.712  51.079  1.00  0.00     0.170 HD
ENDROOT
BRANCH   3  20
HETATM   20  C2  UNL     1      24.847   0.572  52.522  1.00  0.00     0.036 A 
HETATM   21  C3  UNL     1      26.098   0.745  51.944  1.00  0.00     0.029 A 
HETATM   22  C4  UNL     1      27.197   0.314  52.655  1.00  0.00     0.002 A 
HETATM   23  C5  UNL     1      27.008  -0.261  53.889  1.00  0.00     0.000 A 
HETATM   24  C6  UNL     1      25.747  -0.433  54.467  1.00  0.00     0.002 A 
HETATM   25  C7  UNL     1      24.657  -0.005  53.762  1.00  0.00     0.029 A 
ENDBRANCH   3  20
BRANCH  13  26
HETATM   26  O3  UNL     1      19.182   5.299  48.630  1.00  0.00    -0.364 OA
HETATM   27  H15 UNL     1      18.922   5.999  49.340  1.00  0.00     0.217 HD
ENDBRANCH  13  26
BRANCH   8  28
HETATM   28  O2  UNL     1      25.271   8.533  50.522  1.00  0.00    -0.365 OA
HETATM   29  H11 UNL     1      25.833   8.724  49.701  1.00  0.00     0.217 HD
ENDBRANCH   8  28
TORSDOF 3
ENDMDL
MODEL 6
REMARK VINA RESULT:      -7.6      9.684     12.740
REMARK  3 active torsions:
REMARK  status: ('A' for Active; 'I' for Inactive)
REMARK       I    between atoms: C1_2  and  N1_3 
REMARK       I    between atoms: C1_2  and  N2_10 
REMARK    1  A    between atoms: N1_3  and  C2_4 
REMARK    2  A    between atoms: C11_14  and  O2_15 
REMARK    3  A    between atoms: C16_20  and  O3_21 
ROOT
HETATM    1  O1  UNL     1      30.527   7.774  48.986  1.00  0.00    -0.246 OA
HETATM    2  C1  UNL     1      30.785   8.319  47.877  1.00  0.00     0.327 C 
HETATM    3  N1  UNL     1      29.533   8.862  47.429  1.00  0.00    -0.309 N 
HETATM    4  N2  UNL     1      32.211   8.152  47.581  1.00  0.00    -0.303 N 
HETATM    5  C8  UNL     1      32.808   7.619  48.791  1.00  0.00     0.139 C 
HETATM    6  C9  UNL     1      33.266   6.257  48.879  1.00  0.00     0.021 C 
HETATM    7  C10 UNL     1      33.662   5.583  47.731  1.00  0.00     0.059 C 
HETATM    8  C11 UNL     1      34.160   4.158  47.607  1.00  0.00     0.045 C 
HETATM    9  C12 UNL     1      34.556   3.745  46.376  1.00  0.00     0.007 C 
HETATM   10  C13 UNL     1      34.655   4.371  44.992  1.00  0.00     0.006 C 
HETATM   11  C14 UNL     1      34.566   5.322  44.004  1.00  0.00     0.065 C 
HETATM   12  C15 UNL     1      34.077   6.771  44.152  1.00  0.00    -0.023 C 
HETATM   13  C16 UNL     1      34.513   8.018  44.572  1.00  0.00     0.055 C 
HETATM   14  C17 UNL     1      33.792   8.967  45.497  1.00  0.00     0.122 C 
HETATM   15  C18 UNL     1      32.658   8.400  46.222  1.00  0.00     0.022 C 
HETATM   16  C19 UNL     1      31.588   7.827  45.578  1.00  0.00     0.025 C 
HETATM   17  C20 UNL     1      31.482   7.377  44.131  1.00  0.00     0.003 C 
HETATM   18  C21 UNL     1      32.626   6.708  43.669  1.00  0.00     0.010 C 
HETATM   19  H1  UNL     1      29.756   9.364  46.523  1.00  0.00     0.170 HD
ENDROOT
BRANCH   3  20
HETATM   20  C2  UNL     1      28.480   8.577  48.341  1.00  0.00     0.036 A 
HETATM   21  C3  UNL     1      27.769   7.407  48.108  1.00  0.00     0.029 A 
HETATM   22  C4  UNL     1      26.742   7.098  48.972  1.00  0.00     0.002 A 
HETATM   23  C5  UNL     1      26.469   7.952  50.014  1.00  0.00     0.000 A 
HETATM   24  C6  UNL     1      27.186   9.130  50.245  1.00  0.00     0.002 A 
HETATM   25  C7  UNL     1      28.206   9.435  49.388  1.00  0.00     0.029 A 
ENDBRANCH   3  20
BRANCH  13  26
HETATM   26  O3  UNL     1      35.723   8.626  44.203  1.00  0.00    -0.364 OA
HETATM   27  H15 UNL     1      35.626   9.354  43.482  1.00  0.00     0.217 HD
ENDBRANCH  13  26
BRANCH   8  28
HETATM   28  O2  UNL     1      34.430   2.906  48.294  1.00  0.00    -0.365 OA
HETATM   29  H11 UNL     1      33.812   2.764  49.084  1.00  0.00     0.217 HD
ENDBRANCH   8  28
TORSDOF 3
ENDMDL
MODEL 7
REMARK VINA RESULT:      -7.5      4.000      6.527
REMARK  3 active torsions:
REMARK  status: ('A' for Active; 'I' for Inactive)
REMARK       I    between atoms: C1_2  and  N1_3 
REMARK       I    between atoms: C1_2  and  N2_10 
REMARK    1  A    between atoms: N1_3  and  C2_4 
REMARK    2  A    between atoms: C11_14  and  O2_15 
REMARK    3  A    between atoms: C16_20  and  O3_21 
ROOT
HETATM    1  O1  UNL     1      25.689   7.496  48.019  1.00  0.00    -0.246 OA
HETATM    2  C1  UNL     1      25.619   6.948  49.154  1.00  0.00     0.327 C 
HETATM    3  N1  UNL     1      26.949   7.030  49.690  1.00  0.00    -0.309 N 
HETATM    4  N2  UNL     1      24.242   6.503  49.388  1.00  0.00    -0.303 N 
HETATM    5  C8  UNL     1      23.453   7.071  48.311  1.00  0.00     0.139 C 
HETATM    6  C9  UNL     1      22.915   6.261  47.250  1.00  0.00     0.021 C 
HETATM    7  C10 UNL     1      22.648   4.916  47.472  1.00  0.00     0.059 C 
HETATM    8  C11 UNL     1      22.096   3.898  46.497  1.00  0.00     0.045 C 
HETATM    9  C12 UNL     1      21.854   2.650  46.974  1.00  0.00     0.007 C 
HETATM   10  C13 UNL     1      21.985   1.949  48.319  1.00  0.00     0.006 C 
HETATM   11  C14 UNL     1      22.262   1.775  49.653  1.00  0.00     0.065 C 
HETATM   12  C15 UNL     1      22.803   2.825  50.634  1.00  0.00    -0.023 C 
HETATM   13  C16 UNL     1      22.380   3.894  51.411  1.00  0.00     0.055 C 
HETATM   14  C17 UNL     1      23.015   5.258  51.498  1.00  0.00     0.122 C 
HETATM   15  C18 UNL     1      24.004   5.561  50.466  1.00  0.00     0.022 C 
HETATM   16  C19 UNL     1      25.121   4.786  50.272  1.00  0.00     0.025 C 
HETATM   17  C20 UNL     1      25.404   3.384  50.787  1.00  0.00     0.003 C 
HETATM   18  C21 UNL     1      24.302   2.521  50.692  1.00  0.00     0.010 C 
HETATM   19  H1  UNL     1      26.882   6.616  50.664  1.00  0.00     0.170 HD
ENDROOT
BRANCH   3  20
HETATM   20  C2  UNL     1      27.847   7.647  48.777  1.00  0.00     0.036 A 
HETATM   21  C3  UNL     1      28.475   6.801  47.872  1.00  0.00     0.029 A 
HETATM   22  C4  UNL     1      29.352   7.363  46.970  1.00  0.00     0.002 A 
HETATM   23  C5  UNL     1      29.563   8.721  47.007  1.00  0.00     0.000 A 
HETATM   24  C6  UNL     1      28.929   9.570  47.919  1.00  0.00     0.002 A 
HETATM   25  C7  UNL     1      28.059   9.011  48.813  1.00  0.00     0.029 A 
ENDBRANCH   3  20
BRANCH  13  26
HETATM   26  O3  UNL     1      21.269   3.889  52.268  1.00  0.00    -0.364 OA
HETATM   27  H15 UNL     1      21.215   3.066  52.884  1.00  0.00     0.217 HD
ENDBRANCH  13  26
BRANCH   8  28
HETATM   28  O2  UNL     1      21.665   3.638  45.134  1.00  0.00    -0.365 OA
HETATM   29  H11 UNL     1      20.709   3.304  45.093  1.00  0.00     0.217 HD
ENDBRANCH   8  28
TORSDOF 3
ENDMDL
MODEL 8
REMARK VINA RESULT:      -7.5      2.997      7.107
REMARK  3 active torsions:
REMARK  status: ('A' for Active; 'I' for Inactive)
REMARK       I    between atoms: C1_2  and  N1_3 
REMARK       I    between atoms: C1_2  and  N2_10 
REMARK    1  A    between atoms: N1_3  and  C2_4 
REMARK    2  A    between atoms: C11_14  and  O2_15 
REMARK    3  A    between atoms: C16_20  and  O3_21 
ROOT
HETATM    1  O1  UNL     1      20.556   3.531  51.792  1.00  0.00    -0.246 OA
HETATM    2  C1  UNL     1      20.822   4.617  51.208  1.00  0.00     0.327 C 
HETATM    3  N1  UNL     1      19.663   4.905  50.411  1.00  0.00    -0.309 N 
HETATM    4  N2  UNL     1      22.157   5.065  51.615  1.00  0.00    -0.303 N 
HETATM    5  C8  UNL     1      22.552   4.194  52.706  1.00  0.00     0.139 C 
HETATM    6  C9  UNL     1      23.576   3.194  52.551  1.00  0.00     0.021 C 
HETATM    7  C10 UNL     1      24.573   3.364  51.598  1.00  0.00     0.059 C 
HETATM    8  C11 UNL     1      25.722   2.435  51.271  1.00  0.00     0.045 C 
HETATM    9  C12 UNL     1      26.614   2.857  50.338  1.00  0.00     0.007 C 
HETATM   10  C13 UNL     1      26.792   4.102  49.480  1.00  0.00     0.006 C 
HETATM   11  C14 UNL     1      26.539   5.347  48.958  1.00  0.00     0.065 C 
HETATM   12  C15 UNL     1      25.377   6.286  49.316  1.00  0.00    -0.023 C 
HETATM   13  C16 UNL     1      24.990   7.202  50.283  1.00  0.00     0.055 C 
HETATM   14  C17 UNL     1      23.659   7.269  50.987  1.00  0.00     0.122 C 
HETATM   15  C18 UNL     1      22.800   6.099  50.824  1.00  0.00     0.022 C 
HETATM   16  C19 UNL     1      22.400   5.648  49.590  1.00  0.00     0.025 C 
HETATM   17  C20 UNL     1      22.964   6.001  48.223  1.00  0.00     0.003 C 
HETATM   18  C21 UNL     1      24.366   6.047  48.193  1.00  0.00     0.010 C 
HETATM   19  H1  UNL     1      19.863   5.843  49.958  1.00  0.00     0.170 HD
ENDROOT
BRANCH   3  20
HETATM   20  C2  UNL     1      18.676   3.890  50.532  1.00  0.00     0.036 A 
HETATM   21  C3  UNL     1      18.777   2.830  49.641  1.00  0.00     0.029 A 
HETATM   22  C4  UNL     1      17.837   1.826  49.729  1.00  0.00     0.002 A 
HETATM   23  C5  UNL     1      16.853   1.918  50.684  1.00  0.00     0.000 A 
HETATM   24  C6  UNL     1      16.753   2.987  51.579  1.00  0.00     0.002 A 
HETATM   25  C7  UNL     1      17.687   3.982  51.491  1.00  0.00     0.029 A 
ENDBRANCH   3  20
BRANCH  13  26
HETATM   26  O3  UNL     1      25.786   8.244  50.783  1.00  0.00    -0.364 OA
HETATM   27  H15 UNL     1      26.765   7.979  50.961  1.00  0.00     0.217 HD
ENDBRANCH  13  26
BRANCH   8  28
HETATM   28  O2  UNL     1      26.362   1.158  51.541  1.00  0.00    -0.365 OA
HETATM   29  H11 UNL     1      25.876   0.632  52.258  1.00  0.00     0.217 HD
ENDBRANCH   8  28
TORSDOF 3
ENDMDL
MODEL 9
REMARK VINA RESULT:      -7.4      5.345      9.591
REMARK  3 active torsions:
REMARK  status: ('A' for Active; 'I' for Inactive)
REMARK       I    between atoms: C1_2  and  N1_3 
REMARK       I    between atoms: C1_2  and  N2_10 
REMARK    1  A    between atoms: N1_3  and  C2_4 
REMARK    2  A    between atoms: C11_14  and  O2_15 
REMARK    3  A    between atoms: C16_20  and  O3_21 
ROOT
HETATM    1  O1  UNL     1      21.952   8.072  49.666  1.00  0.00    -0.246 OA
HETATM    2  C1  UNL     1      22.868   8.827  49.238  1.00  0.00     0.327 C 
HETATM    3  N1  UNL     1      22.229   9.681  48.276  1.00  0.00    -0.309 N 
HETATM    4  N2  UNL     1      24.124   8.489  49.916  1.00  0.00    -0.303 N 
HETATM    5  C8  UNL     1      23.766   7.567  50.977  1.00  0.00     0.139 C 
HETATM    6  C9  UNL     1      24.102   6.169  50.917  1.00  0.00     0.021 C 
HETATM    7  C10 UNL     1      25.200   5.750  50.176  1.00  0.00     0.059 C 
HETATM    8  C11 UNL     1      25.712   4.339  49.978  1.00  0.00     0.045 C 
HETATM    9  C12 UNL     1      26.855   4.190  49.261  1.00  0.00     0.007 C 
HETATM   10  C13 UNL     1      27.838   5.120  48.563  1.00  0.00     0.006 C 
HETATM   11  C14 UNL     1      28.400   6.292  48.117  1.00  0.00     0.065 C 
HETATM   12  C15 UNL     1      27.877   7.718  48.346  1.00  0.00    -0.023 C 
HETATM   13  C16 UNL     1      27.858   8.718  49.306  1.00  0.00     0.055 C 
HETATM   14  C17 UNL     1      26.661   9.512  49.764  1.00  0.00     0.122 C 
HETATM   15  C18 UNL     1      25.362   8.991  49.347  1.00  0.00     0.022 C 
HETATM   16  C19 UNL     1      25.037   8.803  48.026  1.00  0.00     0.025 C 
HETATM   17  C20 UNL     1      25.960   8.763  46.819  1.00  0.00     0.003 C 
HETATM   18  C21 UNL     1      27.142   8.041  47.043  1.00  0.00     0.010 C 
HETATM   19  H1  UNL     1      22.985  10.350  47.952  1.00  0.00     0.170 HD
ENDROOT
BRANCH   3  20
HETATM   20  C2  UNL     1      20.851   9.366  48.128  1.00  0.00     0.036 A 
HETATM   21  C3  UNL     1      19.973  10.071  48.941  1.00  0.00     0.029 A 
HETATM   22  C4  UNL     1      18.628   9.793  48.825  1.00  0.00     0.002 A 
HETATM   23  C5  UNL     1      18.221   8.842  47.920  1.00  0.00     0.000 A 
HETATM   24  C6  UNL     1      19.108   8.134  47.103  1.00  0.00     0.002 A 
HETATM   25  C7  UNL     1      20.442   8.411  47.219  1.00  0.00     0.029 A 
ENDBRANCH   3  20
BRANCH  13  26
HETATM   26  O3  UNL     1      28.970   9.173  50.031  1.00  0.00    -0.364 OA
HETATM   27  H15 UNL     1      29.015   8.822  50.998  1.00  0.00     0.217 HD
ENDBRANCH  13  26
BRANCH   8  28
HETATM   28  O2  UNL     1      25.500   2.926  50.243  1.00  0.00    -0.365 OA
HETATM   29  H11 UNL     1      26.194   2.548  50.877  1.00  0.00     0.217 HD
ENDBRANCH   8  28
TORSDOF 3
ENDMDL
