MODEL 1
REMARK VINA RESULT:      -9.2      0.000      0.000
REMARK  1 active torsions:
REMARK  status: ('A' for Active; 'I' for Inactive)
REMARK    1  A    between atoms: O1_2  and  C2_3 
ROOT
HETATM    1  C2  UNL     1      27.374   0.892  54.548  1.00  0.00     0.060 C 
HETATM    2  C3  UNL     1      27.302   1.720  53.439  1.00  0.00     0.017 C 
HETATM    3  C4  UNL     1      26.201   1.552  52.569  1.00  0.00     0.047 C 
HETATM    4  C5  UNL     1      26.325   0.219  51.875  1.00  0.00     0.033 C 
HETATM    5  C6  UNL     1      26.240  -0.968  52.746  1.00  0.00     0.124 C 
HETATM    6  N1  UNL     1      25.596  -0.427  53.913  1.00  0.00    -0.370 N 
HETATM    7  C7  UNL     1      26.306  -0.060  55.128  1.00  0.00     0.187 C 
HETATM    8  C8  UNL     1      24.185  -0.229  54.000  1.00  0.00     0.095 A 
HETATM    9  C9  UNL     1      23.863  -1.260  54.859  1.00  0.00     0.151 A 
HETATM   10  N2  UNL     1      22.548  -1.418  55.150  1.00  0.00    -0.252 NA
HETATM   11  C10 UNL     1      21.601  -0.624  54.640  1.00  0.00     0.235 A 
HETATM   12  N3  UNL     1      21.956   0.372  53.810  1.00  0.00    -0.222 NA
HETATM   13  C11 UNL     1      23.224   0.632  53.446  1.00  0.00     0.157 A 
HETATM   14  N4  UNL     1      23.514   1.724  52.632  1.00  0.00    -0.339 N 
HETATM   15  C12 UNL     1      24.140   2.397  51.560  1.00  0.00     0.042 A 
HETATM   16  C13 UNL     1      23.485   3.091  50.586  1.00  0.00     0.057 A 
HETATM   17  C14 UNL     1      24.231   3.727  49.622  1.00  0.00     0.074 A 
HETATM   18 CL1  UNL     1      23.379   4.613  48.378  1.00  0.00    -0.081 Cl
HETATM   19  C15 UNL     1      25.597   3.647  49.664  1.00  0.00     0.138 A 
HETATM   20  F1  UNL     1      26.239   4.303  48.675  1.00  0.00    -0.204 F 
HETATM   21  C16 UNL     1      26.341   2.973  50.604  1.00  0.00     0.054 A 
HETATM   22  C17 UNL     1      25.587   2.339  51.565  1.00  0.00    -0.021 A 
HETATM   23  H14 UNL     1      22.965   2.550  53.043  1.00  0.00     0.167 HD
ENDROOT
BRANCH   1  24
HETATM   24  O1  UNL     1      28.575   0.940  55.213  1.00  0.00    -0.359 OA
HETATM   25  C1  UNL     1      29.587   1.772  54.675  1.00  0.00     0.209 C 
ENDBRANCH   1  24
TORSDOF 1
ENDMDL
MODEL 2
REMARK VINA RESULT:      -8.6      3.355      5.346
REMARK  1 active torsions:
REMARK  status: ('A' for Active; 'I' for Inactive)
REMARK    1  A    between atoms: O1_2  and  C2_3 
ROOT
HETATM    1  C2  UNL     1      26.732   0.189  52.411  1.00  0.00     0.060 C 
HETATM    2  C3  UNL     1      25.594  -0.431  52.905  1.00  0.00     0.017 C 
HETATM    3  C4  UNL     1      24.378   0.285  52.837  1.00  0.00     0.047 C 
HETATM    4  C5  UNL     1      24.450   1.460  53.780  1.00  0.00     0.033 C 
HETATM    5  C6  UNL     1      25.455   2.487  53.451  1.00  0.00     0.124 C 
HETATM    6  N1  UNL     1      25.701   2.218  52.059  1.00  0.00    -0.370 N 
HETATM    7  C7  UNL     1      26.855   1.479  51.572  1.00  0.00     0.187 C 
HETATM    8  C8  UNL     1      24.846   2.683  51.015  1.00  0.00     0.095 A 
HETATM    9  C9  UNL     1      25.644   3.681  50.494  1.00  0.00     0.151 A 
HETATM   10  N2  UNL     1      25.121   4.403  49.471  1.00  0.00    -0.252 NA
HETATM   11  C10 UNL     1      23.899   4.170  48.981  1.00  0.00     0.235 A 
HETATM   12  N3  UNL     1      23.155   3.185  49.514  1.00  0.00    -0.222 NA
HETATM   13  C11 UNL     1      23.559   2.401  50.528  1.00  0.00     0.157 A 
HETATM   14  N4  UNL     1      22.752   1.360  50.979  1.00  0.00    -0.339 N 
HETATM   15  C12 UNL     1      22.116   0.555  51.950  1.00  0.00     0.042 A 
HETATM   16  C13 UNL     1      20.775   0.311  52.004  1.00  0.00     0.057 A 
HETATM   17  C14 UNL     1      20.302  -0.524  52.989  1.00  0.00     0.074 A 
HETATM   18 CL1  UNL     1      18.581  -0.828  53.049  1.00  0.00    -0.081 Cl
HETATM   19  C15 UNL     1      21.179  -1.082  53.879  1.00  0.00     0.138 A 
HETATM   20  F1  UNL     1      20.618  -1.885  54.807  1.00  0.00    -0.204 F 
HETATM   21  C16 UNL     1      22.542  -0.894  53.901  1.00  0.00     0.054 A 
HETATM   22  C17 UNL     1      23.007  -0.057  52.913  1.00  0.00    -0.021 A 
HETATM   23  H14 UNL     1      22.412   0.850  50.098  1.00  0.00     0.167 HD
ENDROOT
BRANCH   1  24
HETATM   24  O1  UNL     1      27.906  -0.452  52.722  1.00  0.00    -0.359 OA
HETATM   25  C1  UNL     1      28.497  -0.163  53.976  1.00  0.00     0.209 C 
ENDBRANCH   1  24
TORSDOF 1
ENDMDL
MODEL 3
REMARK VINA RESULT:      -8.4      3.276      5.147
REMARK  1 active torsions:
REMARK  status: ('A' for Active; 'I' for Inactive)
REMARK    1  A    between atoms: O1_2  and  C2_3 
ROOT
HETATM    1  C2  UNL     1      22.544   2.118  49.837  1.00  0.00     0.060 C 
HETATM    2  C3  UNL     1      23.856   2.221  50.274  1.00  0.00     0.017 C 
HETATM    3  C4  UNL     1      24.123   1.893  51.622  1.00  0.00     0.047 C 
HETATM    4  C5  UNL     1      23.483   2.928  52.512  1.00  0.00     0.033 C 
HETATM    5  C6  UNL     1      22.011   2.986  52.475  1.00  0.00     0.124 C 
HETATM    6  N1  UNL     1      21.683   1.695  51.931  1.00  0.00    -0.370 N 
HETATM    7  C7  UNL     1      21.329   1.472  50.538  1.00  0.00     0.187 C 
HETATM    8  C8  UNL     1      21.642   0.506  52.722  1.00  0.00     0.095 A 
HETATM    9  C9  UNL     1      20.277   0.321  52.784  1.00  0.00     0.151 A 
HETATM   10  N2  UNL     1      19.841  -0.731  53.521  1.00  0.00    -0.252 NA
HETATM   11  C10 UNL     1      20.679  -1.555  54.158  1.00  0.00     0.235 A 
HETATM   12  N3  UNL     1      22.004  -1.343  54.068  1.00  0.00    -0.222 NA
HETATM   13  C11 UNL     1      22.559  -0.338  53.370  1.00  0.00     0.157 A 
HETATM   14  N4  UNL     1      23.943  -0.226  53.274  1.00  0.00    -0.339 N 
HETATM   15  C12 UNL     1      25.182   0.453  53.290  1.00  0.00     0.042 A 
HETATM   16  C13 UNL     1      26.246   0.116  54.074  1.00  0.00     0.057 A 
HETATM   17  C14 UNL     1      27.403   0.849  53.956  1.00  0.00     0.074 A 
HETATM   18 CL1  UNL     1      28.760   0.408  54.968  1.00  0.00    -0.081 Cl
HETATM   19  C15 UNL     1      27.456   1.887  53.065  1.00  0.00     0.138 A 
HETATM   20  F1  UNL     1      28.633   2.545  53.025  1.00  0.00    -0.204 F 
HETATM   21  C16 UNL     1      26.437   2.298  52.238  1.00  0.00     0.054 A 
HETATM   22  C17 UNL     1      25.283   1.560  52.362  1.00  0.00    -0.021 A 
HETATM   23  H14 UNL     1      24.302  -1.211  53.043  1.00  0.00     0.167 HD
ENDROOT
BRANCH   1  24
HETATM   24  O1  UNL     1      22.313   2.674  48.603  1.00  0.00    -0.359 OA
HETATM   25  C1  UNL     1      22.805   3.982  48.373  1.00  0.00     0.209 C 
ENDBRANCH   1  24
TORSDOF 1
ENDMDL
MODEL 4
REMARK VINA RESULT:      -8.3      3.998      6.795
REMARK  1 active torsions:
REMARK  status: ('A' for Active; 'I' for Inactive)
REMARK    1  A    between atoms: O1_2  and  C2_3 
ROOT
HETATM    1  C2  UNL     1      21.218   3.597  51.873  1.00  0.00     0.060 C 
HETATM    2  C3  UNL     1      22.007   2.615  52.453  1.00  0.00     0.017 C 
HETATM    3  C4  UNL     1      23.238   2.313  51.829  1.00  0.00     0.047 C 
HETATM    4  C5  UNL     1      22.964   1.657  50.499  1.00  0.00     0.033 C 
HETATM    5  C6  UNL     1      22.286   2.499  49.496  1.00  0.00     0.124 C 
HETATM    6  N1  UNL     1      22.544   3.820  50.002  1.00  0.00    -0.370 N 
HETATM    7  C7  UNL     1      21.573   4.600  50.754  1.00  0.00     0.187 C 
HETATM    8  C8  UNL     1      23.776   4.509  49.785  1.00  0.00     0.095 A 
HETATM    9  C9  UNL     1      23.356   5.440  48.857  1.00  0.00     0.151 A 
HETATM   10  N2  UNL     1      24.305   6.275  48.365  1.00  0.00    -0.252 NA
HETATM   11  C10 UNL     1      25.583   6.214  48.751  1.00  0.00     0.235 A 
HETATM   12  N3  UNL     1      25.951   5.294  49.660  1.00  0.00    -0.222 NA
HETATM   13  C11 UNL     1      25.107   4.411  50.222  1.00  0.00     0.157 A 
HETATM   14  N4  UNL     1      25.556   3.534  51.205  1.00  0.00    -0.339 N 
HETATM   15  C12 UNL     1      25.683   2.285  51.851  1.00  0.00     0.042 A 
HETATM   16  C13 UNL     1      26.868   1.680  52.154  1.00  0.00     0.057 A 
HETATM   17  C14 UNL     1      26.836   0.477  52.819  1.00  0.00     0.074 A 
HETATM   18 CL1  UNL     1      28.361  -0.289  53.201  1.00  0.00    -0.081 Cl
HETATM   19  C15 UNL     1      25.630  -0.077  53.155  1.00  0.00     0.138 A 
HETATM   20  F1  UNL     1      25.704  -1.258  53.803  1.00  0.00    -0.204 F 
HETATM   21  C16 UNL     1      24.391   0.458  52.891  1.00  0.00     0.054 A 
HETATM   22  C17 UNL     1      24.431   1.662  52.226  1.00  0.00    -0.021 A 
HETATM   23  H14 UNL     1      26.135   4.128  51.886  1.00  0.00     0.167 HD
ENDROOT
BRANCH   1  24
HETATM   24  O1  UNL     1      19.945   3.673  52.380  1.00  0.00    -0.359 OA
HETATM   25  C1  UNL     1      18.902   3.093  51.618  1.00  0.00     0.209 C 
ENDBRANCH   1  24
TORSDOF 1
ENDMDL
MODEL 5
REMARK VINA RESULT:      -8.3      3.654      6.018
REMARK  1 active torsions:
REMARK  status: ('A' for Active; 'I' for Inactive)
REMARK    1  A    between atoms: O1_2  and  C2_3 
ROOT
HETATM    1  C2  UNL     1      20.866   0.797  53.422  1.00  0.00     0.060 C 
HETATM    2  C3  UNL     1      22.135   0.283  53.643  1.00  0.00     0.017 C 
HETATM    3  C4  UNL     1      23.217   0.905  52.980  1.00  0.00     0.047 C 
HETATM    4  C5  UNL     1      23.097   0.643  51.499  1.00  0.00     0.033 C 
HETATM    5  C6  UNL     1      21.921   1.235  50.836  1.00  0.00     0.124 C 
HETATM    6  N1  UNL     1      21.542   2.257  51.773  1.00  0.00    -0.370 N 
HETATM    7  C7  UNL     1      20.453   2.112  52.728  1.00  0.00     0.187 C 
HETATM    8  C8  UNL     1      22.181   3.533  51.834  1.00  0.00     0.095 A 
HETATM    9  C9  UNL     1      21.188   4.312  51.278  1.00  0.00     0.151 A 
HETATM   10  N2  UNL     1      21.466   5.631  51.126  1.00  0.00    -0.252 NA
HETATM   11  C10 UNL     1      22.636   6.163  51.494  1.00  0.00     0.235 A 
HETATM   12  N3  UNL     1      23.576   5.370  52.037  1.00  0.00    -0.222 NA
HETATM   13  C11 UNL     1      23.422   4.050  52.239  1.00  0.00     0.157 A 
HETATM   14  N4  UNL     1      24.421   3.312  52.867  1.00  0.00    -0.339 N 
HETATM   15  C12 UNL     1      25.285   2.208  53.044  1.00  0.00     0.042 A 
HETATM   16  C13 UNL     1      26.643   2.289  53.144  1.00  0.00     0.057 A 
HETATM   17  C14 UNL     1      27.353   1.129  53.350  1.00  0.00     0.074 A 
HETATM   18 CL1  UNL     1      29.093   1.245  53.477  1.00  0.00    -0.081 Cl
HETATM   19  C15 UNL     1      26.686  -0.062  53.448  1.00  0.00     0.138 A 
HETATM   20  F1  UNL     1      27.470  -1.141  53.649  1.00  0.00    -0.204 F 
HETATM   21  C16 UNL     1      25.325  -0.239  53.359  1.00  0.00     0.054 A 
HETATM   22  C17 UNL     1      24.622   0.925  53.153  1.00  0.00    -0.021 A 
HETATM   23  H14 UNL     1      24.716   3.886  53.724  1.00  0.00     0.167 HD
ENDROOT
BRANCH   1  24
HETATM   24  O1  UNL     1      19.847   0.010  53.897  1.00  0.00    -0.359 OA
HETATM   25  C1  UNL     1      18.944  -0.533  52.950  1.00  0.00     0.209 C 
ENDBRANCH   1  24
TORSDOF 1
ENDMDL
MODEL 6
REMARK VINA RESULT:      -8.1      2.831      4.942
REMARK  1 active torsions:
REMARK  status: ('A' for Active; 'I' for Inactive)
REMARK    1  A    between atoms: O1_2  and  C2_3 
ROOT
HETATM    1  C2  UNL     1      22.889   1.250  51.270  1.00  0.00     0.060 C 
HETATM    2  C3  UNL     1      23.015   2.292  50.363  1.00  0.00     0.017 C 
HETATM    3  C4  UNL     1      24.032   3.244  50.600  1.00  0.00     0.047 C 
HETATM    4  C5  UNL     1      23.684   4.033  51.838  1.00  0.00     0.033 C 
HETATM    5  C6  UNL     1      23.651   3.268  53.098  1.00  0.00     0.124 C 
HETATM    6  N1  UNL     1      24.428   2.107  52.754  1.00  0.00    -0.370 N 
HETATM    7  C7  UNL     1      23.845   0.821  52.404  1.00  0.00     0.187 C 
HETATM    8  C8  UNL     1      25.856   2.099  52.757  1.00  0.00     0.095 A 
HETATM    9  C9  UNL     1      26.077   1.349  53.893  1.00  0.00     0.151 A 
HETATM   10  N2  UNL     1      27.372   1.161  54.252  1.00  0.00    -0.252 NA
HETATM   11  C10 UNL     1      28.391   1.669  53.550  1.00  0.00     0.235 A 
HETATM   12  N3  UNL     1      28.132   2.390  52.446  1.00  0.00    -0.222 NA
HETATM   13  C11 UNL     1      26.895   2.647  51.986  1.00  0.00     0.157 A 
HETATM   14  N4  UNL     1      26.716   3.348  50.798  1.00  0.00    -0.339 N 
HETATM   15  C12 UNL     1      26.131   4.319  49.954  1.00  0.00     0.042 A 
HETATM   16  C13 UNL     1      26.822   5.276  49.271  1.00  0.00     0.057 A 
HETATM   17  C14 UNL     1      26.119   6.133  48.458  1.00  0.00     0.074 A 
HETATM   18 CL1  UNL     1      27.016   7.357  47.587  1.00  0.00    -0.081 Cl
HETATM   19  C15 UNL     1      24.760   6.006  48.356  1.00  0.00     0.138 A 
HETATM   20  F1  UNL     1      24.162   6.894  47.535  1.00  0.00    -0.204 F 
HETATM   21  C16 UNL     1      23.983   5.075  49.005  1.00  0.00     0.054 A 
HETATM   22  C17 UNL     1      24.693   4.221  49.818  1.00  0.00    -0.021 A 
HETATM   23  H14 UNL     1      27.396   2.910  50.093  1.00  0.00     0.167 HD
ENDROOT
BRANCH   1  24
HETATM   24  O1  UNL     1      21.746   0.505  51.120  1.00  0.00    -0.359 OA
HETATM   25  C1  UNL     1      20.534   1.204  50.903  1.00  0.00     0.209 C 
ENDBRANCH   1  24
TORSDOF 1
ENDMDL
MODEL 7
REMARK VINA RESULT:      -8.0      4.179      6.341
REMARK  1 active torsions:
REMARK  status: ('A' for Active; 'I' for Inactive)
REMARK    1  A    between atoms: O1_2  and  C2_3 
ROOT
HETATM    1  C2  UNL     1      22.144   3.807  52.168  1.00  0.00     0.060 C 
HETATM    2  C3  UNL     1      20.962   3.082  52.208  1.00  0.00     0.017 C 
HETATM    3  C4  UNL     1      21.060   1.674  52.257  1.00  0.00     0.047 C 
HETATM    4  C5  UNL     1      21.612   1.176  50.945  1.00  0.00     0.033 C 
HETATM    5  C6  UNL     1      22.991   1.590  50.630  1.00  0.00     0.124 C 
HETATM    6  N1  UNL     1      23.490   1.953  51.930  1.00  0.00    -0.370 N 
HETATM    7  C7  UNL     1      23.592   3.325  52.401  1.00  0.00     0.187 C 
HETATM    8  C8  UNL     1      23.966   0.994  52.875  1.00  0.00     0.095 A 
HETATM    9  C9  UNL     1      25.320   1.241  52.788  1.00  0.00     0.151 A 
HETATM   10  N2  UNL     1      26.129   0.457  53.544  1.00  0.00    -0.252 NA
HETATM   11  C10 UNL     1      25.653  -0.508  54.337  1.00  0.00     0.235 A 
HETATM   12  N3  UNL     1      24.326  -0.715  54.396  1.00  0.00    -0.222 NA
HETATM   13  C11 UNL     1      23.422  -0.006  53.699  1.00  0.00     0.157 A 
HETATM   14  N4  UNL     1      22.060  -0.240  53.867  1.00  0.00    -0.339 N 
HETATM   15  C12 UNL     1      20.729  -0.440  53.440  1.00  0.00     0.042 A 
HETATM   16  C13 UNL     1      19.956  -1.513  53.775  1.00  0.00     0.057 A 
HETATM   17  C14 UNL     1      18.662  -1.556  53.312  1.00  0.00     0.074 A 
HETATM   18 CL1  UNL     1      17.681  -2.937  53.747  1.00  0.00    -0.081 Cl
HETATM   19  C15 UNL     1      18.188  -0.532  52.537  1.00  0.00     0.138 A 
HETATM   20  F1  UNL     1      16.908  -0.667  52.131  1.00  0.00    -0.204 F 
HETATM   21  C16 UNL     1      18.892   0.585  52.150  1.00  0.00     0.054 A 
HETATM   22  C17 UNL     1      20.186   0.620  52.616  1.00  0.00    -0.021 A 
HETATM   23  H14 UNL     1      21.900  -0.290  54.927  1.00  0.00     0.167 HD
ENDROOT
BRANCH   1  24
HETATM   24  O1  UNL     1      21.982   5.139  51.880  1.00  0.00    -0.359 OA
HETATM   25  C1  UNL     1      23.078   5.820  51.296  1.00  0.00     0.209 C 
ENDBRANCH   1  24
TORSDOF 1
ENDMDL
MODEL 8
REMARK VINA RESULT:      -7.6      7.906     10.587
REMARK  1 active torsions:
REMARK  status: ('A' for Active; 'I' for Inactive)
REMARK    1  A    between atoms: O1_2  and  C2_3 
ROOT
HETATM    1  C2  UNL     1      31.878   8.193  46.540  1.00  0.00     0.060 C 
HETATM    2  C3  UNL     1      30.982   7.167  46.802  1.00  0.00     0.017 C 
HETATM    3  C4  UNL     1      30.042   7.368  47.838  1.00  0.00     0.047 C 
HETATM    4  C5  UNL     1      30.771   7.404  49.158  1.00  0.00     0.033 C 
HETATM    5  C6  UNL     1      31.709   8.526  49.343  1.00  0.00     0.124 C 
HETATM    6  N1  UNL     1      31.243   9.461  48.355  1.00  0.00    -0.370 N 
HETATM    7  C7  UNL     1      31.875   9.647  47.058  1.00  0.00     0.187 C 
HETATM    8  C8  UNL     1      30.127  10.326  48.569  1.00  0.00     0.095 A 
HETATM    9  C9  UNL     1      30.793  11.523  48.728  1.00  0.00     0.151 A 
HETATM   10  N2  UNL     1      30.029  12.610  49.004  1.00  0.00    -0.252 NA
HETATM   11  C10 UNL     1      28.699  12.540  49.116  1.00  0.00     0.235 A 
HETATM   12  N3  UNL     1      28.087  11.355  48.949  1.00  0.00    -0.222 NA
HETATM   13  C11 UNL     1      28.731  10.208  48.673  1.00  0.00     0.157 A 
HETATM   14  N4  UNL     1      28.017   9.034  48.451  1.00  0.00    -0.339 N 
HETATM   15  C12 UNL     1      27.733   7.657  48.587  1.00  0.00     0.042 A 
HETATM   16  C13 UNL     1      26.541   7.144  49.007  1.00  0.00     0.057 A 
HETATM   17  C14 UNL     1      26.398   5.778  49.057  1.00  0.00     0.074 A 
HETATM   18 CL1  UNL     1      24.866   5.132  49.598  1.00  0.00    -0.081 Cl
HETATM   19  C15 UNL     1      27.445   4.976  48.688  1.00  0.00     0.138 A 
HETATM   20  F1  UNL     1      27.208   3.651  48.773  1.00  0.00    -0.204 F 
HETATM   21  C16 UNL     1      28.679   5.403  48.253  1.00  0.00     0.054 A 
HETATM   22  C17 UNL     1      28.813   6.771  48.207  1.00  0.00    -0.021 A 
HETATM   23  H14 UNL     1      27.221   9.298  47.781  1.00  0.00     0.167 HD
ENDROOT
BRANCH   1  24
HETATM   24  O1  UNL     1      32.906   7.846  45.699  1.00  0.00    -0.359 OA
HETATM   25  C1  UNL     1      32.699   6.743  44.834  1.00  0.00     0.209 C 
ENDBRANCH   1  24
TORSDOF 1
ENDMDL
MODEL 9
REMARK VINA RESULT:      -7.5      3.843      6.282
REMARK  1 active torsions:
REMARK  status: ('A' for Active; 'I' for Inactive)
REMARK    1  A    between atoms: O1_2  and  C2_3 
ROOT
HETATM    1  C2  UNL     1      22.319   4.608  49.402  1.00  0.00     0.060 C 
HETATM    2  C3  UNL     1      23.212   5.437  48.740  1.00  0.00     0.017 C 
HETATM    3  C4  UNL     1      24.539   5.486  49.222  1.00  0.00     0.047 C 
HETATM    4  C5  UNL     1      24.542   6.149  50.577  1.00  0.00     0.033 C 
HETATM    5  C6  UNL     1      23.831   5.427  51.647  1.00  0.00     0.124 C 
HETATM    6  N1  UNL     1      23.775   4.094  51.111  1.00  0.00    -0.370 N 
HETATM    7  C7  UNL     1      22.597   3.529  50.471  1.00  0.00     0.187 C 
HETATM    8  C8  UNL     1      24.870   3.179  51.187  1.00  0.00     0.095 A 
HETATM    9  C9  UNL     1      24.385   2.322  52.153  1.00  0.00     0.151 A 
HETATM   10  N2  UNL     1      25.205   1.311  52.532  1.00  0.00    -0.252 NA
HETATM   11  C10 UNL     1      26.422   1.139  52.006  1.00  0.00     0.235 A 
HETATM   12  N3  UNL     1      26.855   1.994  51.063  1.00  0.00    -0.222 NA
HETATM   13  C11 UNL     1      26.139   3.034  50.602  1.00  0.00     0.157 A 
HETATM   14  N4  UNL     1      26.636   3.834  49.578  1.00  0.00    -0.339 N 
HETATM   15  C12 UNL     1      26.926   5.052  48.924  1.00  0.00     0.042 A 
HETATM   16  C13 UNL     1      28.164   5.429  48.492  1.00  0.00     0.057 A 
HETATM   17  C14 UNL     1      28.289   6.632  47.838  1.00  0.00     0.074 A 
HETATM   18 CL1  UNL     1      29.880   7.105  47.289  1.00  0.00    -0.081 Cl
HETATM   19  C15 UNL     1      27.181   7.412  47.641  1.00  0.00     0.138 A 
HETATM   20  F1  UNL     1      27.407   8.573  46.992  1.00  0.00    -0.204 F 
HETATM   21  C16 UNL     1      25.899   7.114  48.042  1.00  0.00     0.054 A 
HETATM   22  C17 UNL     1      25.782   5.910  48.695  1.00  0.00    -0.021 A 
HETATM   23  H14 UNL     1      27.012   3.158  48.834  1.00  0.00     0.167 HD
ENDROOT
BRANCH   1  24
HETATM   24  O1  UNL     1      21.006   4.786  49.042  1.00  0.00    -0.359 OA
HETATM   25  C1  UNL     1      20.241   5.710  49.794  1.00  0.00     0.209 C 
ENDBRANCH   1  24
TORSDOF 1
ENDMDL
