MODEL 1
REMARK VINA RESULT:      -7.5      0.000      0.000
REMARK  4 active torsions:
REMARK  status: ('A' for Active; 'I' for Inactive)
REMARK    1  A    between atoms: C2_2  and  C3_3 
REMARK    2  A    between atoms: C3_3  and  C4_4 
REMARK    3  A    between atoms: C4_4  and  C5_6 
REMARK    4  A    between atoms: C23_28  and  N5_29 
ROOT
HETATM    1  C5  UNL     1      23.737   4.913  51.576  1.00  0.00     0.025 C 
HETATM    2  C6  UNL     1      23.195   3.949  52.339  1.00  0.00     0.016 C 
HETATM    3  C7  UNL     1      22.909   2.443  52.176  1.00  0.00     0.035 C 
HETATM    4  C8  UNL     1      22.628   1.977  50.864  1.00  0.00     0.087 A 
HETATM    5  C9  UNL     1      22.799   2.645  49.512  1.00  0.00     0.087 A 
HETATM    6  N1  UNL     1      21.927   2.128  48.832  1.00  0.00    -0.238 NA
HETATM    7  C10 UNL     1      21.006   1.126  49.167  1.00  0.00     0.256 A 
HETATM    8  N2  UNL     1      20.932   0.563  50.383  1.00  0.00    -0.160 NA
HETATM    9  N3  UNL     1      21.754   0.934  51.414  1.00  0.00    -0.233 N 
HETATM   10  C11 UNL     1      21.603   0.260  52.608  1.00  0.00     0.059 C 
HETATM   11  C12 UNL     1      20.570   0.482  53.310  1.00  0.00     0.031 C 
HETATM   12  C13 UNL     1      20.770   0.248  54.824  1.00  0.00     0.019 C 
HETATM   13  C14 UNL     1      22.008  -0.153  54.971  1.00  0.00     0.086 C 
HETATM   14  N4  UNL     1      23.108  -0.554  54.221  1.00  0.00    -0.377 N 
HETATM   15  C15 UNL     1      24.531  -0.862  54.602  1.00  0.00     0.150 C 
HETATM   16  C16 UNL     1      25.400   0.213  54.065  1.00  0.00    -0.011 C 
HETATM   17  C17 UNL     1      26.273   1.146  53.878  1.00  0.00    -0.023 C 
HETATM   18  C18 UNL     1      26.026   1.467  52.614  1.00  0.00     0.020 C 
HETATM   19  C19 UNL     1      26.062   2.137  51.302  1.00  0.00     0.003 C 
HETATM   20  C20 UNL     1      26.461   3.138  50.184  1.00  0.00     0.042 C 
HETATM   21  C21 UNL     1      25.022   3.723  49.852  1.00  0.00    -0.040 C 
HETATM   22  C22 UNL     1      23.881   3.538  49.151  1.00  0.00     0.039 C 
HETATM   23  C23 UNL     1      24.997   4.961  50.751  1.00  0.00     0.283 C 
HETATM   24  C24 UNL     1      22.807  -0.632  52.827  1.00  0.00     0.132 C 
HETATM   25  C25 UNL     1      22.541  -2.073  52.450  1.00  0.00     0.039 C 
ENDROOT
BRANCH   1  26
HETATM   26  C4  UNL     1      23.041   6.146  51.056  1.00  0.00     0.158 C 
HETATM   27  O1  UNL     1      23.338   7.332  50.725  1.00  0.00    -0.293 OA
BRANCH  26  28
HETATM   28  C3  UNL     1      21.617   5.938  50.867  1.00  0.00     0.083 C 
BRANCH  28  29
HETATM   29  C2  UNL     1      21.084   5.946  49.464  1.00  0.00     0.003 C 
HETATM   30  C1  UNL     1      19.863   5.020  49.476  1.00  0.00     0.005 C 
ENDBRANCH  28  29
ENDBRANCH  26  28
ENDBRANCH   1  26
BRANCH  23  31
HETATM   31  N5  UNL     1      24.961   6.094  49.824  1.00  0.00     0.091 N 
HETATM   32  H24 UNL     1      25.742   6.135  49.158  1.00  0.00     0.314 HD
HETATM   33  H25 UNL     1      24.068   6.155  49.276  1.00  0.00     0.314 HD
ENDBRANCH  23  31
TORSDOF 4
ENDMDL
MODEL 2
REMARK VINA RESULT:      -7.3      8.468     12.457
REMARK  4 active torsions:
REMARK  status: ('A' for Active; 'I' for Inactive)
REMARK    1  A    between atoms: C2_2  and  C3_3 
REMARK    2  A    between atoms: C3_3  and  C4_4 
REMARK    3  A    between atoms: C4_4  and  C5_6 
REMARK    4  A    between atoms: C23_28  and  N5_29 
ROOT
HETATM    1  C5  UNL     1      33.072   6.197  45.590  1.00  0.00     0.025 C 
HETATM    2  C6  UNL     1      32.058   6.995  45.219  1.00  0.00     0.016 C 
HETATM    3  C7  UNL     1      30.911   7.729  45.941  1.00  0.00     0.035 C 
HETATM    4  C8  UNL     1      30.397   7.124  47.120  1.00  0.00     0.087 A 
HETATM    5  C9  UNL     1      30.934   5.989  47.971  1.00  0.00     0.087 A 
HETATM    6  N1  UNL     1      29.925   5.494  48.447  1.00  0.00    -0.238 NA
HETATM    7  C10 UNL     1      28.584   5.880  48.304  1.00  0.00     0.256 A 
HETATM    8  N2  UNL     1      28.188   6.917  47.550  1.00  0.00    -0.160 NA
HETATM    9  N3  UNL     1      29.071   7.686  46.838  1.00  0.00    -0.233 N 
HETATM   10  C11 UNL     1      28.545   8.743  46.124  1.00  0.00     0.059 C 
HETATM   11  C12 UNL     1      27.866   8.500  45.081  1.00  0.00     0.031 C 
HETATM   12  C13 UNL     1      27.889   9.634  44.032  1.00  0.00     0.019 C 
HETATM   13  C14 UNL     1      28.624  10.589  44.543  1.00  0.00     0.086 C 
HETATM   14  N4  UNL     1      29.247  10.953  45.732  1.00  0.00    -0.377 N 
HETATM   15  C15 UNL     1      30.186  12.076  46.077  1.00  0.00     0.150 C 
HETATM   16  C16 UNL     1      31.528  11.499  46.332  1.00  0.00    -0.011 C 
HETATM   17  C17 UNL     1      32.789  11.220  46.369  1.00  0.00    -0.023 C 
HETATM   18  C18 UNL     1      32.784  10.153  47.157  1.00  0.00     0.020 C 
HETATM   19  C19 UNL     1      33.215   8.972  47.927  1.00  0.00     0.003 C 
HETATM   20  C20 UNL     1      34.137   7.872  48.517  1.00  0.00     0.042 C 
HETATM   21  C21 UNL     1      33.354   6.590  47.999  1.00  0.00    -0.040 C 
HETATM   22  C22 UNL     1      32.334   5.737  48.243  1.00  0.00     0.039 C 
HETATM   23  C23 UNL     1      34.095   6.306  46.692  1.00  0.00     0.283 C 
HETATM   24  C24 UNL     1      28.954  10.040  46.791  1.00  0.00     0.132 C 
HETATM   25  C25 UNL     1      27.861  10.616  47.664  1.00  0.00     0.039 C 
ENDROOT
BRANCH   1  26
HETATM   26  C4  UNL     1      33.273   4.755  45.195  1.00  0.00     0.158 C 
HETATM   27  O1  UNL     1      32.909   3.606  45.585  1.00  0.00    -0.293 OA
BRANCH  26  28
HETATM   28  C3  UNL     1      34.125   4.616  44.028  1.00  0.00     0.083 C 
BRANCH  28  29
HETATM   29  C2  UNL     1      33.480   4.680  42.674  1.00  0.00     0.003 C 
HETATM   30  C1  UNL     1      34.113   5.884  41.967  1.00  0.00     0.005 C 
ENDBRANCH  28  29
ENDBRANCH  26  28
ENDBRANCH   1  26
BRANCH  23  31
HETATM   31  N5  UNL     1      34.754   5.016  46.910  1.00  0.00     0.091 N 
HETATM   32  H24 UNL     1      34.936   4.782  47.893  1.00  0.00     0.314 HD
HETATM   33  H25 UNL     1      34.242   4.209  46.477  1.00  0.00     0.314 HD
ENDBRANCH  23  31
TORSDOF 4
ENDMDL
MODEL 3
REMARK VINA RESULT:      -7.2      3.043      7.040
REMARK  4 active torsions:
REMARK  status: ('A' for Active; 'I' for Inactive)
REMARK    1  A    between atoms: C2_2  and  C3_3 
REMARK    2  A    between atoms: C3_3  and  C4_4 
REMARK    3  A    between atoms: C4_4  and  C5_6 
REMARK    4  A    between atoms: C23_28  and  N5_29 
ROOT
HETATM    1  C5  UNL     1      22.651   2.951  48.737  1.00  0.00     0.025 C 
HETATM    2  C6  UNL     1      23.111   4.049  48.115  1.00  0.00     0.016 C 
HETATM    3  C7  UNL     1      23.592   5.446  48.555  1.00  0.00     0.035 C 
HETATM    4  C8  UNL     1      23.006   5.991  49.729  1.00  0.00     0.087 A 
HETATM    5  C9  UNL     1      22.152   5.349  50.806  1.00  0.00     0.087 A 
HETATM    6  N1  UNL     1      21.465   6.275  51.208  1.00  0.00    -0.238 NA
HETATM    7  C10 UNL     1      21.469   7.624  50.826  1.00  0.00     0.256 A 
HETATM    8  N2  UNL     1      22.275   8.125  49.879  1.00  0.00    -0.160 NA
HETATM    9  N3  UNL     1      23.166   7.346  49.188  1.00  0.00    -0.233 N 
HETATM   10  C11 UNL     1      23.964   7.982  48.259  1.00  0.00     0.059 C 
HETATM   11  C12 UNL     1      23.438   8.394  47.180  1.00  0.00     0.031 C 
HETATM   12  C13 UNL     1      24.416   8.467  45.986  1.00  0.00     0.019 C 
HETATM   13  C14 UNL     1      25.581   8.083  46.445  1.00  0.00     0.086 C 
HETATM   14  N4  UNL     1      26.224   7.779  47.640  1.00  0.00    -0.377 N 
HETATM   15  C15 UNL     1      27.585   7.212  47.939  1.00  0.00     0.150 C 
HETATM   16  C16 UNL     1      27.411   5.834  48.459  1.00  0.00    -0.011 C 
HETATM   17  C17 UNL     1      27.478   4.569  48.709  1.00  0.00    -0.023 C 
HETATM   18  C18 UNL     1      26.540   4.450  49.641  1.00  0.00     0.020 C 
HETATM   19  C19 UNL     1      25.606   3.884  50.630  1.00  0.00     0.003 C 
HETATM   20  C20 UNL     1      24.857   2.839  51.499  1.00  0.00     0.042 C 
HETATM   21  C21 UNL     1      23.367   3.188  51.076  1.00  0.00    -0.040 C 
HETATM   22  C22 UNL     1      22.308   3.998  51.302  1.00  0.00     0.039 C 
HETATM   23  C23 UNL     1      23.145   2.188  49.940  1.00  0.00     0.283 C 
HETATM   24  C24 UNL     1      25.387   8.019  48.774  1.00  0.00     0.132 C 
HETATM   25  C25 UNL     1      25.749   9.351  49.392  1.00  0.00     0.039 C 
ENDROOT
BRANCH   1  26
HETATM   26  C4  UNL     1      21.278   2.343  48.593  1.00  0.00     0.158 C 
HETATM   27  O1  UNL     1      20.738   1.199  48.649  1.00  0.00    -0.293 OA
BRANCH  26  28
HETATM   28  C3  UNL     1      20.260   3.339  48.311  1.00  0.00     0.083 C 
BRANCH  28  29
HETATM   29  C2  UNL     1      19.198   3.572  49.346  1.00  0.00     0.003 C 
HETATM   30  C1  UNL     1      18.763   5.032  49.175  1.00  0.00     0.005 C 
ENDBRANCH  28  29
ENDBRANCH  26  28
ENDBRANCH   1  26
BRANCH  23  31
HETATM   31  N5  UNL     1      22.106   1.284  50.436  1.00  0.00     0.091 N 
HETATM   32  H24 UNL     1      21.371   1.052  49.757  1.00  0.00     0.314 HD
HETATM   33  H25 UNL     1      22.486   0.384  50.819  1.00  0.00     0.314 HD
ENDBRANCH  23  31
TORSDOF 4
ENDMDL
MODEL 4
REMARK VINA RESULT:      -7.1      2.332      4.924
REMARK  4 active torsions:
REMARK  status: ('A' for Active; 'I' for Inactive)
REMARK    1  A    between atoms: C2_2  and  C3_3 
REMARK    2  A    between atoms: C3_3  and  C4_4 
REMARK    3  A    between atoms: C4_4  and  C5_6 
REMARK    4  A    between atoms: C23_28  and  N5_29 
ROOT
HETATM    1  C5  UNL     1      20.873   2.109  48.808  1.00  0.00     0.025 C 
HETATM    2  C6  UNL     1      22.086   1.793  49.290  1.00  0.00     0.016 C 
HETATM    3  C7  UNL     1      22.942   2.228  50.497  1.00  0.00     0.035 C 
HETATM    4  C8  UNL     1      22.776   3.561  50.959  1.00  0.00     0.087 A 
HETATM    5  C9  UNL     1      21.714   4.598  50.646  1.00  0.00     0.087 A 
HETATM    6  N1  UNL     1      22.306   5.657  50.789  1.00  0.00    -0.238 NA
HETATM    7  C10 UNL     1      23.628   5.896  51.189  1.00  0.00     0.256 A 
HETATM    8  N2  UNL     1      24.505   4.922  51.475  1.00  0.00    -0.160 NA
HETATM    9  N3  UNL     1      24.179   3.594  51.387  1.00  0.00    -0.233 N 
HETATM   10  C11 UNL     1      25.158   2.686  51.736  1.00  0.00     0.059 C 
HETATM   11  C12 UNL     1      26.150   2.528  50.963  1.00  0.00     0.031 C 
HETATM   12  C13 UNL     1      26.801   1.128  51.046  1.00  0.00     0.019 C 
HETATM   13  C14 UNL     1      26.126   0.466  51.952  1.00  0.00     0.086 C 
HETATM   14  N4  UNL     1      25.146   0.654  52.919  1.00  0.00    -0.377 N 
HETATM   15  C15 UNL     1      24.394  -0.311  53.797  1.00  0.00     0.150 C 
HETATM   16  C16 UNL     1      22.985  -0.357  53.337  1.00  0.00    -0.011 C 
HETATM   17  C17 UNL     1      21.800  -0.697  52.954  1.00  0.00    -0.023 C 
HETATM   18  C18 UNL     1      21.257   0.494  52.737  1.00  0.00     0.020 C 
HETATM   19  C19 UNL     1      20.314   1.560  52.354  1.00  0.00     0.003 C 
HETATM   20  C20 UNL     1      19.030   2.251  51.823  1.00  0.00     0.042 C 
HETATM   21  C21 UNL     1      19.684   3.151  50.689  1.00  0.00    -0.040 C 
HETATM   22  C22 UNL     1      20.312   4.318  50.420  1.00  0.00     0.039 C 
HETATM   23  C23 UNL     1      19.525   2.243  49.469  1.00  0.00     0.283 C 
HETATM   24  C24 UNL     1      24.774   2.027  53.045  1.00  0.00     0.132 C 
HETATM   25  C25 UNL     1      25.486   2.634  54.234  1.00  0.00     0.039 C 
ENDROOT
BRANCH   1  26
HETATM   26  C4  UNL     1      20.575   2.760  47.481  1.00  0.00     0.158 C 
HETATM   27  O1  UNL     1      19.579   2.951  46.722  1.00  0.00    -0.293 OA
BRANCH  26  28
HETATM   28  C3  UNL     1      21.755   3.352  46.878  1.00  0.00     0.083 C 
BRANCH  28  29
HETATM   29  C2  UNL     1      21.934   4.838  46.991  1.00  0.00     0.003 C 
HETATM   30  C1  UNL     1      22.018   5.358  45.552  1.00  0.00     0.005 C 
ENDBRANCH  28  29
ENDBRANCH  26  28
ENDBRANCH   1  26
BRANCH  23  31
HETATM   31  N5  UNL     1      18.592   2.954  48.593  1.00  0.00     0.091 N 
HETATM   32  H24 UNL     1      18.689   2.743  47.592  1.00  0.00     0.314 HD
HETATM   33  H25 UNL     1      17.586   2.813  48.854  1.00  0.00     0.314 HD
ENDBRANCH  23  31
TORSDOF 4
ENDMDL
MODEL 5
REMARK VINA RESULT:      -7.1      2.823      5.549
REMARK  4 active torsions:
REMARK  status: ('A' for Active; 'I' for Inactive)
REMARK    1  A    between atoms: C2_2  and  C3_3 
REMARK    2  A    between atoms: C3_3  and  C4_4 
REMARK    3  A    between atoms: C4_4  and  C5_6 
REMARK    4  A    between atoms: C23_28  and  N5_29 
ROOT
HETATM    1  C5  UNL     1      21.510   3.170  46.715  1.00  0.00     0.025 C 
HETATM    2  C6  UNL     1      22.527   2.930  47.558  1.00  0.00     0.016 C 
HETATM    3  C7  UNL     1      22.917   3.393  48.976  1.00  0.00     0.035 C 
HETATM    4  C8  UNL     1      22.509   4.697  49.365  1.00  0.00     0.087 A 
HETATM    5  C9  UNL     1      21.524   5.662  48.732  1.00  0.00     0.087 A 
HETATM    6  N1  UNL     1      21.954   6.757  49.060  1.00  0.00    -0.238 NA
HETATM    7  C10 UNL     1      23.057   7.082  49.862  1.00  0.00     0.256 A 
HETATM    8  N2  UNL     1      23.871   6.167  50.410  1.00  0.00    -0.160 NA
HETATM    9  N3  UNL     1      23.696   4.822  50.218  1.00  0.00    -0.233 N 
HETATM   10  C11 UNL     1      24.581   3.979  50.860  1.00  0.00     0.059 C 
HETATM   11  C12 UNL     1      25.777   3.915  50.444  1.00  0.00     0.031 C 
HETATM   12  C13 UNL     1      26.475   2.566  50.726  1.00  0.00     0.019 C 
HETATM   13  C14 UNL     1      25.601   1.830  51.367  1.00  0.00     0.086 C 
HETATM   14  N4  UNL     1      24.352   1.919  51.971  1.00  0.00    -0.377 N 
HETATM   15  C15 UNL     1      23.439   0.878  52.560  1.00  0.00     0.150 C 
HETATM   16  C16 UNL     1      22.257   0.741  51.674  1.00  0.00    -0.011 C 
HETATM   17  C17 UNL     1      21.286   0.325  50.931  1.00  0.00    -0.023 C 
HETATM   18  C18 UNL     1      20.749   1.479  50.556  1.00  0.00     0.020 C 
HETATM   19  C19 UNL     1      19.896   2.483  49.894  1.00  0.00     0.003 C 
HETATM   20  C20 UNL     1      18.797   3.092  48.983  1.00  0.00     0.042 C 
HETATM   21  C21 UNL     1      19.706   4.069  48.120  1.00  0.00    -0.040 C 
HETATM   22  C22 UNL     1      20.293   5.286  48.069  1.00  0.00     0.039 C 
HETATM   23  C23 UNL     1      20.016   3.186  46.911  1.00  0.00     0.283 C 
HETATM   24  C24 UNL     1      23.853   3.257  51.975  1.00  0.00     0.132 C 
HETATM   25  C25 UNL     1      24.100   3.882  53.331  1.00  0.00     0.039 C 
ENDROOT
BRANCH   1  26
HETATM   26  C4  UNL     1      21.599   3.834  45.363  1.00  0.00     0.158 C 
HETATM   27  O1  UNL     1      21.253   3.599  44.168  1.00  0.00    -0.293 OA
BRANCH  26  28
HETATM   28  C3  UNL     1      22.270   5.120  45.423  1.00  0.00     0.083 C 
BRANCH  28  29
HETATM   29  C2  UNL     1      21.872   6.169  44.426  1.00  0.00     0.003 C 
HETATM   30  C1  UNL     1      21.443   7.387  45.250  1.00  0.00     0.005 C 
ENDBRANCH  28  29
ENDBRANCH  26  28
ENDBRANCH   1  26
BRANCH  23  31
HETATM   31  N5  UNL     1      19.357   3.851  45.785  1.00  0.00     0.091 N 
HETATM   32  H24 UNL     1      18.517   4.390  46.029  1.00  0.00     0.314 HD
HETATM   33  H25 UNL     1      19.997   4.482  45.242  1.00  0.00     0.314 HD
ENDBRANCH  23  31
TORSDOF 4
ENDMDL
MODEL 6
REMARK VINA RESULT:      -7.0      3.014      6.793
REMARK  4 active torsions:
REMARK  status: ('A' for Active; 'I' for Inactive)
REMARK    1  A    between atoms: C2_2  and  C3_3 
REMARK    2  A    between atoms: C3_3  and  C4_4 
REMARK    3  A    between atoms: C4_4  and  C5_6 
REMARK    4  A    between atoms: C23_28  and  N5_29 
ROOT
HETATM    1  C5  UNL     1      23.972   3.056  50.587  1.00  0.00     0.025 C 
HETATM    2  C6  UNL     1      23.487   3.272  49.354  1.00  0.00     0.016 C 
HETATM    3  C7  UNL     1      22.394   4.170  48.741  1.00  0.00     0.035 C 
HETATM    4  C8  UNL     1      21.274   4.476  49.560  1.00  0.00     0.087 A 
HETATM    5  C9  UNL     1      21.050   4.290  51.049  1.00  0.00     0.087 A 
HETATM    6  N1  UNL     1      19.840   4.145  51.134  1.00  0.00    -0.238 NA
HETATM    7  C10 UNL     1      18.861   4.181  50.131  1.00  0.00     0.256 A 
HETATM    8  N2  UNL     1      19.136   4.377  48.832  1.00  0.00    -0.160 NA
HETATM    9  N3  UNL     1      20.416   4.547  48.372  1.00  0.00    -0.233 N 
HETATM   10  C11 UNL     1      20.568   4.771  47.019  1.00  0.00     0.059 C 
HETATM   11  C12 UNL     1      20.372   3.811  46.214  1.00  0.00     0.031 C 
HETATM   12  C13 UNL     1      21.162   3.923  44.890  1.00  0.00     0.019 C 
HETATM   13  C14 UNL     1      21.836   5.044  44.961  1.00  0.00     0.086 C 
HETATM   14  N4  UNL     1      21.954   6.184  45.748  1.00  0.00    -0.377 N 
HETATM   15  C15 UNL     1      22.922   7.336  45.717  1.00  0.00     0.150 C 
HETATM   16  C16 UNL     1      23.801   7.236  46.907  1.00  0.00    -0.011 C 
HETATM   17  C17 UNL     1      24.788   7.197  47.740  1.00  0.00    -0.023 C 
HETATM   18  C18 UNL     1      24.145   6.959  48.876  1.00  0.00     0.020 C 
HETATM   19  C19 UNL     1      23.852   6.673  50.292  1.00  0.00     0.003 C 
HETATM   20  C20 UNL     1      24.080   6.377  51.798  1.00  0.00     0.042 C 
HETATM   21  C21 UNL     1      23.278   5.010  51.906  1.00  0.00    -0.040 C 
HETATM   22  C22 UNL     1      22.061   4.445  52.073  1.00  0.00     0.039 C 
HETATM   23  C23 UNL     1      24.401   3.996  51.685  1.00  0.00     0.283 C 
HETATM   24  C24 UNL     1      20.990   6.209  46.802  1.00  0.00     0.132 C 
HETATM   25  C25 UNL     1      19.834   7.102  46.404  1.00  0.00     0.039 C 
ENDROOT
BRANCH   1  26
HETATM   26  C4  UNL     1      23.916   1.764  51.363  1.00  0.00     0.158 C 
HETATM   27  O1  UNL     1      24.680   1.057  52.084  1.00  0.00    -0.293 OA
BRANCH  26  28
HETATM   28  C3  UNL     1      22.615   1.125  51.278  1.00  0.00     0.083 C 
BRANCH  28  29
HETATM   29  C2  UNL     1      22.191   0.235  52.410  1.00  0.00     0.003 C 
HETATM   30  C1  UNL     1      21.112   1.013  53.170  1.00  0.00     0.005 C 
ENDBRANCH  28  29
ENDBRANCH  26  28
ENDBRANCH   1  26
BRANCH  23  31
HETATM   31  N5  UNL     1      24.514   3.281  52.958  1.00  0.00     0.091 N 
HETATM   32  H24 UNL     1      24.990   2.372  52.906  1.00  0.00     0.314 HD
HETATM   33  H25 UNL     1      24.979   3.844  53.712  1.00  0.00     0.314 HD
ENDBRANCH  23  31
TORSDOF 4
ENDMDL
MODEL 7
REMARK VINA RESULT:      -7.0      2.678      4.416
REMARK  4 active torsions:
REMARK  status: ('A' for Active; 'I' for Inactive)
REMARK    1  A    between atoms: C2_2  and  C3_3 
REMARK    2  A    between atoms: C3_3  and  C4_4 
REMARK    3  A    between atoms: C4_4  and  C5_6 
REMARK    4  A    between atoms: C23_28  and  N5_29 
ROOT
HETATM    1  C5  UNL     1      22.052   3.831  52.248  1.00  0.00     0.025 C 
HETATM    2  C6  UNL     1      20.738   3.558  52.197  1.00  0.00     0.016 C 
HETATM    3  C7  UNL     1      19.827   2.685  51.312  1.00  0.00     0.035 C 
HETATM    4  C8  UNL     1      20.222   2.501  49.960  1.00  0.00     0.087 A 
HETATM    5  C9  UNL     1      21.532   2.802  49.257  1.00  0.00     0.087 A 
HETATM    6  N1  UNL     1      21.188   3.022  48.106  1.00  0.00    -0.238 NA
HETATM    7  C10 UNL     1      19.911   2.973  47.528  1.00  0.00     0.256 A 
HETATM    8  N2  UNL     1      18.798   2.672  48.214  1.00  0.00    -0.160 NA
HETATM    9  N3  UNL     1      18.816   2.397  49.556  1.00  0.00    -0.233 N 
HETATM   10  C11 UNL     1      17.610   2.072  50.143  1.00  0.00     0.059 C 
HETATM   11  C12 UNL     1      16.744   2.983  50.308  1.00  0.00     0.031 C 
HETATM   12  C13 UNL     1      15.780   2.735  51.491  1.00  0.00     0.019 C 
HETATM   13  C14 UNL     1      16.130   1.585  52.011  1.00  0.00     0.086 C 
HETATM   14  N4  UNL     1      16.961   0.497  51.765  1.00  0.00    -0.377 N 
HETATM   15  C15 UNL     1      17.318  -0.708  52.591  1.00  0.00     0.150 C 
HETATM   16  C16 UNL     1      18.732  -0.578  53.017  1.00  0.00    -0.011 C 
HETATM   17  C17 UNL     1      19.851  -0.538  53.661  1.00  0.00    -0.023 C 
HETATM   18  C18 UNL     1      20.684  -0.185  52.689  1.00  0.00     0.020 C 
HETATM   19  C19 UNL     1      21.898   0.215  51.955  1.00  0.00     0.003 C 
HETATM   20  C20 UNL     1      23.375   0.601  51.677  1.00  0.00     0.042 C 
HETATM   21  C21 UNL     1      23.137   2.016  50.996  1.00  0.00    -0.040 C 
HETATM   22  C22 UNL     1      22.849   2.660  49.843  1.00  0.00     0.039 C 
HETATM   23  C23 UNL     1      23.272   2.946  52.203  1.00  0.00     0.283 C 
HETATM   24  C24 UNL     1      17.617   0.600  50.500  1.00  0.00     0.132 C 
HETATM   25  C25 UNL     1      16.885  -0.250  49.483  1.00  0.00     0.039 C 
ENDROOT
BRANCH   1  26
HETATM   26  C4  UNL     1      22.702   5.175  52.031  1.00  0.00     0.158 C 
HETATM   27  O1  UNL     1      23.717   5.813  52.438  1.00  0.00    -0.293 OA
BRANCH  26  28
HETATM   28  C3  UNL     1      21.971   5.994  51.081  1.00  0.00     0.083 C 
BRANCH  28  29
HETATM   29  C2  UNL     1      22.747   6.982  50.260  1.00  0.00     0.003 C 
HETATM   30  C1  UNL     1      23.130   6.245  48.972  1.00  0.00     0.005 C 
ENDBRANCH  28  29
ENDBRANCH  26  28
ENDBRANCH   1  26
BRANCH  23  31
HETATM   31  N5  UNL     1      24.472   3.739  51.929  1.00  0.00     0.091 N 
HETATM   32  H24 UNL     1      24.918   4.152  52.758  1.00  0.00     0.314 HD
HETATM   33  H25 UNL     1      25.207   3.212  51.398  1.00  0.00     0.314 HD
ENDBRANCH  23  31
TORSDOF 4
ENDMDL
MODEL 8
REMARK VINA RESULT:      -6.8      3.129      7.746
REMARK  4 active torsions:
REMARK  status: ('A' for Active; 'I' for Inactive)
REMARK    1  A    between atoms: C2_2  and  C3_3 
REMARK    2  A    between atoms: C3_3  and  C4_4 
REMARK    3  A    between atoms: C4_4  and  C5_6 
REMARK    4  A    between atoms: C23_28  and  N5_29 
ROOT
HETATM    1  C5  UNL     1      21.697   4.963  50.221  1.00  0.00     0.025 C 
HETATM    2  C6  UNL     1      22.546   5.996  50.097  1.00  0.00     0.016 C 
HETATM    3  C7  UNL     1      23.849   6.265  49.319  1.00  0.00     0.035 C 
HETATM    4  C8  UNL     1      24.696   5.151  49.071  1.00  0.00     0.087 A 
HETATM    5  C9  UNL     1      24.447   3.661  49.211  1.00  0.00     0.087 A 
HETATM    6  N1  UNL     1      25.557   3.213  49.451  1.00  0.00    -0.238 NA
HETATM    7  C10 UNL     1      26.791   3.875  49.537  1.00  0.00     0.256 A 
HETATM    8  N2  UNL     1      26.935   5.199  49.375  1.00  0.00    -0.160 NA
HETATM    9  N3  UNL     1      25.873   6.026  49.121  1.00  0.00    -0.233 N 
HETATM   10  C11 UNL     1      26.153   7.366  48.943  1.00  0.00     0.059 C 
HETATM   11  C12 UNL     1      26.493   8.059  49.949  1.00  0.00     0.031 C 
HETATM   12  C13 UNL     1      26.149   9.561  49.829  1.00  0.00     0.019 C 
HETATM   13  C14 UNL     1      25.589   9.714  48.655  1.00  0.00     0.086 C 
HETATM   14  N4  UNL     1      25.344   9.018  47.477  1.00  0.00    -0.377 N 
HETATM   15  C15 UNL     1      24.539   9.357  46.252  1.00  0.00     0.150 C 
HETATM   16  C16 UNL     1      23.339   8.486  46.228  1.00  0.00    -0.011 C 
HETATM   17  C17 UNL     1      22.149   7.990  46.152  1.00  0.00    -0.023 C 
HETATM   18  C18 UNL     1      22.399   6.709  46.393  1.00  0.00     0.020 C 
HETATM   19  C19 UNL     1      22.227   5.266  46.641  1.00  0.00     0.003 C 
HETATM   20  C20 UNL     1      21.533   3.894  46.854  1.00  0.00     0.042 C 
HETATM   21  C21 UNL     1      22.139   3.528  48.276  1.00  0.00    -0.040 C 
HETATM   22  C22 UNL     1      23.194   2.992  48.931  1.00  0.00     0.039 C 
HETATM   23  C23 UNL     1      21.046   4.061  49.203  1.00  0.00     0.283 C 
HETATM   24  C24 UNL     1      25.947   7.723  47.485  1.00  0.00     0.132 C 
HETATM   25  C25 UNL     1      27.245   7.768  46.708  1.00  0.00     0.039 C 
ENDROOT
BRANCH   1  26
HETATM   26  C4  UNL     1      21.401   4.186  51.479  1.00  0.00     0.158 C 
HETATM   27  O1  UNL     1      20.411   3.628  52.038  1.00  0.00    -0.293 OA
BRANCH  26  28
HETATM   28  C3  UNL     1      22.580   4.008  52.308  1.00  0.00     0.083 C 
BRANCH  28  29
HETATM   29  C2  UNL     1      23.082   2.611  52.527  1.00  0.00     0.003 C 
HETATM   30  C1  UNL     1      24.532   2.758  53.002  1.00  0.00     0.005 C 
ENDBRANCH  28  29
ENDBRANCH  26  28
ENDBRANCH   1  26
BRANCH  23  31
HETATM   31  N5  UNL     1      20.494   2.870  49.852  1.00  0.00     0.091 N 
HETATM   32  H24 UNL     1      20.595   1.998  49.317  1.00  0.00     0.314 HD
HETATM   33  H25 UNL     1      20.880   2.703  50.813  1.00  0.00     0.314 HD
ENDBRANCH  23  31
TORSDOF 4
ENDMDL
MODEL 9
REMARK VINA RESULT:      -6.8      8.970     12.486
REMARK  4 active torsions:
REMARK  status: ('A' for Active; 'I' for Inactive)
REMARK    1  A    between atoms: C2_2  and  C3_3 
REMARK    2  A    between atoms: C3_3  and  C4_4 
REMARK    3  A    between atoms: C4_4  and  C5_6 
REMARK    4  A    between atoms: C23_28  and  N5_29 
ROOT
HETATM    1  C5  UNL     1      32.710   7.243  44.234  1.00  0.00     0.025 C 
HETATM    2  C6  UNL     1      31.489   7.377  44.777  1.00  0.00     0.016 C 
HETATM    3  C7  UNL     1      30.934   7.786  46.156  1.00  0.00     0.035 C 
HETATM    4  C8  UNL     1      31.733   7.482  47.290  1.00  0.00     0.087 A 
HETATM    5  C9  UNL     1      33.181   7.041  47.399  1.00  0.00     0.087 A 
HETATM    6  N1  UNL     1      33.196   6.383  48.427  1.00  0.00    -0.238 NA
HETATM    7  C10 UNL     1      32.162   6.116  49.336  1.00  0.00     0.256 A 
HETATM    8  N2  UNL     1      30.907   6.565  49.184  1.00  0.00    -0.160 NA
HETATM    9  N3  UNL     1      30.525   7.321  48.107  1.00  0.00    -0.233 N 
HETATM   10  C11 UNL     1      29.213   7.749  48.078  1.00  0.00     0.059 C 
HETATM   11  C12 UNL     1      28.297   6.902  47.850  1.00  0.00     0.031 C 
HETATM   12  C13 UNL     1      27.030   7.499  47.197  1.00  0.00     0.019 C 
HETATM   13  C14 UNL     1      27.256   8.783  47.071  1.00  0.00     0.086 C 
HETATM   14  N4  UNL     1      28.170   9.761  47.447  1.00  0.00    -0.377 N 
HETATM   15  C15 UNL     1      28.311  11.210  47.070  1.00  0.00     0.150 C 
HETATM   16  C16 UNL     1      29.519  11.355  46.222  1.00  0.00    -0.011 C 
HETATM   17  C17 UNL     1      30.384  11.643  45.307  1.00  0.00    -0.023 C 
HETATM   18  C18 UNL     1      31.457  11.018  45.774  1.00  0.00     0.020 C 
HETATM   19  C19 UNL     1      32.818  10.467  45.902  1.00  0.00     0.003 C 
HETATM   20  C20 UNL     1      34.290  10.118  45.555  1.00  0.00     0.042 C 
HETATM   21  C21 UNL     1      34.208   8.537  45.689  1.00  0.00    -0.040 C 
HETATM   22  C22 UNL     1      34.259   7.490  46.543  1.00  0.00     0.039 C 
HETATM   23  C23 UNL     1      33.924   8.137  44.241  1.00  0.00     0.283 C 
HETATM   24  C24 UNL     1      29.178   9.244  48.318  1.00  0.00     0.132 C 
HETATM   25  C25 UNL     1      28.833   9.596  49.749  1.00  0.00     0.039 C 
ENDROOT
BRANCH   1  26
HETATM   26  C4  UNL     1      33.333   5.968  43.721  1.00  0.00     0.158 C 
HETATM   27  O1  UNL     1      34.022   5.581  42.732  1.00  0.00    -0.293 OA
BRANCH  26  28
HETATM   28  C3  UNL     1      33.088   4.841  44.603  1.00  0.00     0.083 C 
BRANCH  28  29
HETATM   29  C2  UNL     1      34.275   4.150  45.209  1.00  0.00     0.003 C 
HETATM   30  C1  UNL     1      33.737   3.384  46.422  1.00  0.00     0.005 C 
ENDBRANCH  28  29
ENDBRANCH  26  28
ENDBRANCH   1  26
BRANCH  23  31
HETATM   31  N5  UNL     1      35.112   7.392  43.820  1.00  0.00     0.091 N 
HETATM   32  H24 UNL     1      35.965   7.956  43.720  1.00  0.00     0.314 HD
HETATM   33  H25 UNL     1      35.337   6.579  44.444  1.00  0.00     0.314 HD
ENDBRANCH  23  31
TORSDOF 4
ENDMDL
