MODEL 1
REMARK VINA RESULT:      -7.4      0.000      0.000
REMARK  6 active torsions:
REMARK  status: ('A' for Active; 'I' for Inactive)
REMARK    1  A    between atoms: C2_2  and  C3_3 
REMARK       I    between atoms: C3_3  and  N1_5 
REMARK    2  A    between atoms: N1_5  and  C4_6 
REMARK    3  A    between atoms: C4_6  and  S1_23 
REMARK    4  A    between atoms: C5_7  and  C6_8 
REMARK    5  A    between atoms: C9_11  and  N2_12 
REMARK    6  A    between atoms: N2_12  and  C10_13 
ROOT
HETATM    1  C6  UNL     1      28.944   6.386  48.020  1.00  0.00     0.030 C 
HETATM    2  C7  UNL     1      27.709   6.090  48.385  1.00  0.00     0.043 A 
HETATM    3  C8  UNL     1      27.451   4.707  48.820  1.00  0.00     0.137 A 
HETATM    4  C9  UNL     1      26.030   4.573  49.180  1.00  0.00     0.111 A 
HETATM    5  N3  UNL     1      25.191   5.550  49.106  1.00  0.00    -0.228 NA
HETATM    6  C16 UNL     1      25.508   6.844  48.681  1.00  0.00     0.235 A 
HETATM    7  N4  UNL     1      26.727   7.110  48.330  1.00  0.00    -0.246 NA
ENDROOT
BRANCH   1   8
HETATM    8  C5  UNL     1      30.057   5.449  48.020  1.00  0.00     0.039 C 
HETATM    9  C4  UNL     1      31.258   5.686  48.511  1.00  0.00     0.072 C 
BRANCH   9  10
HETATM   10  N1  UNL     1      32.369   4.816  48.535  1.00  0.00    -0.318 N 
HETATM   11  C3  UNL     1      33.312   4.565  47.507  1.00  0.00     0.245 C 
HETATM   12  O1  UNL     1      33.215   5.149  46.416  1.00  0.00    -0.268 OA
HETATM   13  H4  UNL     1      32.566   4.264  49.388  1.00  0.00     0.169 HD
BRANCH  11  14
HETATM   14  C2  UNL     1      34.421   3.638  47.656  1.00  0.00     0.064 C 
HETATM   15  C1  UNL     1      35.131   3.272  46.606  1.00  0.00     0.017 C 
ENDBRANCH  11  14
ENDBRANCH   9  10
BRANCH   9  16
HETATM   16  S1  UNL     1      31.443   7.315  49.213  1.00  0.00    -0.117 SA
HETATM   17  C17 UNL     1      32.657   8.267  48.237  1.00  0.00     0.097 C 
ENDBRANCH   9  16
ENDBRANCH   1   8
BRANCH   4  18
HETATM   18  N2  UNL     1      25.615   3.285  49.625  1.00  0.00    -0.344 N 
HETATM   19  H9  UNL     1      25.179   2.562  49.014  1.00  0.00     0.167 HD
BRANCH  18  20
HETATM   20  C10 UNL     1      25.773   2.878  50.992  1.00  0.00     0.034 A 
HETATM   21  C11 UNL     1      24.651   3.082  51.773  1.00  0.00     0.029 A 
HETATM   22  C12 UNL     1      24.582   2.765  53.116  1.00  0.00     0.004 A 
HETATM   23  C13 UNL     1      25.723   2.205  53.705  1.00  0.00     0.019 A 
HETATM   24  C14 UNL     1      26.839   2.003  52.919  1.00  0.00     0.013 A 
HETATM   25 BR1  UNL     1      28.421   1.244  53.666  1.00  0.00    -0.051 Br
HETATM   26  C15 UNL     1      26.893   2.325  51.579  1.00  0.00     0.048 A 
ENDBRANCH  18  20
ENDBRANCH   4  18
TORSDOF 6
ENDMDL
MODEL 2
REMARK VINA RESULT:      -7.4      5.779      7.794
REMARK  6 active torsions:
REMARK  status: ('A' for Active; 'I' for Inactive)
REMARK    1  A    between atoms: C2_2  and  C3_3 
REMARK       I    between atoms: C3_3  and  N1_5 
REMARK    2  A    between atoms: N1_5  and  C4_6 
REMARK    3  A    between atoms: C4_6  and  S1_23 
REMARK    4  A    between atoms: C5_7  and  C6_8 
REMARK    5  A    between atoms: C9_11  and  N2_12 
REMARK    6  A    between atoms: N2_12  and  C10_13 
ROOT
HETATM    1  C6  UNL     1      23.695   1.597  51.968  1.00  0.00     0.030 C 
HETATM    2  C7  UNL     1      23.176   2.812  51.951  1.00  0.00     0.043 A 
HETATM    3  C8  UNL     1      24.116   3.944  51.999  1.00  0.00     0.137 A 
HETATM    4  C9  UNL     1      23.355   5.204  51.975  1.00  0.00     0.111 A 
HETATM    5  N3  UNL     1      22.067   5.245  51.920  1.00  0.00    -0.228 NA
HETATM    6  C16 UNL     1      21.233   4.123  51.876  1.00  0.00     0.235 A 
HETATM    7  N4  UNL     1      21.766   2.942  51.892  1.00  0.00    -0.246 NA
ENDROOT
BRANCH   1   8
HETATM    8  C5  UNL     1      25.118   1.303  52.029  1.00  0.00     0.039 C 
HETATM    9  C4  UNL     1      25.673   0.344  52.747  1.00  0.00     0.072 C 
BRANCH   9  10
HETATM   10  N1  UNL     1      27.042   0.018  52.842  1.00  0.00    -0.318 N 
HETATM   11  C3  UNL     1      28.024   0.582  53.695  1.00  0.00     0.245 C 
HETATM   12  O1  UNL     1      27.714   1.484  54.490  1.00  0.00    -0.268 OA
HETATM   13  H4  UNL     1      27.435  -0.720  52.232  1.00  0.00     0.169 HD
BRANCH  11  14
HETATM   14  C2  UNL     1      29.412   0.157  53.699  1.00  0.00     0.064 C 
HETATM   15  C1  UNL     1      29.727  -1.096  53.427  1.00  0.00     0.017 C 
ENDBRANCH  11  14
ENDBRANCH   9  10
BRANCH   9  16
HETATM   16  S1  UNL     1      24.505  -0.622  53.688  1.00  0.00    -0.117 SA
HETATM   17  C17 UNL     1      25.158  -0.899  55.370  1.00  0.00     0.097 C 
ENDBRANCH   9  16
ENDBRANCH   1   8
BRANCH   4  18
HETATM   18  N2  UNL     1      24.124   6.402  52.017  1.00  0.00    -0.344 N 
HETATM   19  H9  UNL     1      24.390   6.902  52.891  1.00  0.00     0.167 HD
BRANCH  18  20
HETATM   20  C10 UNL     1      24.602   7.026  50.816  1.00  0.00     0.034 A 
HETATM   21  C11 UNL     1      23.784   8.033  50.341  1.00  0.00     0.029 A 
HETATM   22  C12 UNL     1      24.051   8.766  49.201  1.00  0.00     0.004 A 
HETATM   23  C13 UNL     1      25.222   8.459  48.497  1.00  0.00     0.019 A 
HETATM   24  C14 UNL     1      26.035   7.453  48.978  1.00  0.00     0.013 A 
HETATM   25 BR1  UNL     1      27.643   6.991  48.062  1.00  0.00    -0.051 Br
HETATM   26  C15 UNL     1      25.756   6.729  50.119  1.00  0.00     0.048 A 
ENDBRANCH  18  20
ENDBRANCH   4  18
TORSDOF 6
ENDMDL
MODEL 3
REMARK VINA RESULT:      -7.3      4.978      7.851
REMARK  6 active torsions:
REMARK  status: ('A' for Active; 'I' for Inactive)
REMARK    1  A    between atoms: C2_2  and  C3_3 
REMARK       I    between atoms: C3_3  and  N1_5 
REMARK    2  A    between atoms: N1_5  and  C4_6 
REMARK    3  A    between atoms: C4_6  and  S1_23 
REMARK    4  A    between atoms: C5_7  and  C6_8 
REMARK    5  A    between atoms: C9_11  and  N2_12 
REMARK    6  A    between atoms: N2_12  and  C10_13 
ROOT
HETATM    1  C6  UNL     1      21.722   0.971  51.198  1.00  0.00     0.030 C 
HETATM    2  C7  UNL     1      21.841   0.315  52.339  1.00  0.00     0.043 A 
HETATM    3  C8  UNL     1      23.200   0.156  52.883  1.00  0.00     0.137 A 
HETATM    4  C9  UNL     1      23.128  -0.598  54.146  1.00  0.00     0.111 A 
HETATM    5  N3  UNL     1      22.018  -1.024  54.647  1.00  0.00    -0.228 NA
HETATM    6  C16 UNL     1      20.757  -0.834  54.072  1.00  0.00     0.235 A 
HETATM    7  N4  UNL     1      20.666  -0.186  52.954  1.00  0.00    -0.246 NA
ENDROOT
BRANCH   1   8
HETATM    8  C5  UNL     1      22.831   1.541  50.449  1.00  0.00     0.039 C 
HETATM    9  C4  UNL     1      23.185   2.812  50.453  1.00  0.00     0.072 C 
BRANCH   9  10
HETATM   10  N1  UNL     1      24.248   3.415  49.746  1.00  0.00    -0.318 N 
HETATM   11  C3  UNL     1      25.623   3.451  50.087  1.00  0.00     0.245 C 
HETATM   12  O1  UNL     1      26.022   2.900  51.126  1.00  0.00    -0.268 OA
HETATM   13  H4  UNL     1      24.053   3.912  48.859  1.00  0.00     0.169 HD
BRANCH  11  14
HETATM   14  C2  UNL     1      26.626   4.110  49.270  1.00  0.00     0.064 C 
HETATM   15  C1  UNL     1      26.506   5.389  48.967  1.00  0.00     0.017 C 
ENDBRANCH  11  14
ENDBRANCH   9  10
BRANCH   9  16
HETATM   16  S1  UNL     1      22.165   3.844  51.490  1.00  0.00    -0.117 SA
HETATM   17  C17 UNL     1      23.224   4.833  52.599  1.00  0.00     0.097 C 
ENDBRANCH   9  16
ENDBRANCH   1   8
BRANCH   4  18
HETATM   18  N2  UNL     1      24.368  -0.840  54.803  1.00  0.00    -0.344 N 
HETATM   19  H9  UNL     1      24.460  -1.237  55.762  1.00  0.00     0.167 HD
BRANCH  18  20
HETATM   20  C10 UNL     1      25.621  -0.543  54.169  1.00  0.00     0.034 A 
HETATM   21  C11 UNL     1      26.115  -1.572  53.391  1.00  0.00     0.029 A 
HETATM   22  C12 UNL     1      27.305  -1.503  52.692  1.00  0.00     0.004 A 
HETATM   23  C13 UNL     1      28.041  -0.315  52.789  1.00  0.00     0.019 A 
HETATM   24  C14 UNL     1      27.541   0.709  53.568  1.00  0.00     0.013 A 
HETATM   25 BR1  UNL     1      28.499   2.349  53.736  1.00  0.00    -0.051 Br
HETATM   26  C15 UNL     1      26.351   0.625  54.259  1.00  0.00     0.048 A 
ENDBRANCH  18  20
ENDBRANCH   4  18
TORSDOF 6
ENDMDL
MODEL 4
REMARK VINA RESULT:      -7.3      1.964      2.878
REMARK  6 active torsions:
REMARK  status: ('A' for Active; 'I' for Inactive)
REMARK    1  A    between atoms: C2_2  and  C3_3 
REMARK       I    between atoms: C3_3  and  N1_5 
REMARK    2  A    between atoms: N1_5  and  C4_6 
REMARK    3  A    between atoms: C4_6  and  S1_23 
REMARK    4  A    between atoms: C5_7  and  C6_8 
REMARK    5  A    between atoms: C9_11  and  N2_12 
REMARK    6  A    between atoms: N2_12  and  C10_13 
ROOT
HETATM    1  C6  UNL     1      26.767   5.347  48.956  1.00  0.00     0.030 C 
HETATM    2  C7  UNL     1      25.934   4.696  49.749  1.00  0.00     0.043 A 
HETATM    3  C8  UNL     1      26.362   3.371  50.230  1.00  0.00     0.137 A 
HETATM    4  C9  UNL     1      25.309   2.807  51.090  1.00  0.00     0.111 A 
HETATM    5  N3  UNL     1      24.205   3.425  51.346  1.00  0.00    -0.228 NA
HETATM    6  C16 UNL     1      23.864   4.688  50.852  1.00  0.00     0.235 A 
HETATM    7  N4  UNL     1      24.699   5.308  50.078  1.00  0.00    -0.246 NA
ENDROOT
BRANCH   1   8
HETATM    8  C5  UNL     1      28.066   4.850  48.529  1.00  0.00     0.039 C 
HETATM    9  C4  UNL     1      29.077   5.597  48.128  1.00  0.00     0.072 C 
BRANCH   9  10
HETATM   10  N1  UNL     1      30.353   5.168  47.704  1.00  0.00    -0.318 N 
HETATM   11  C3  UNL     1      31.558   5.120  48.449  1.00  0.00     0.245 C 
HETATM   12  O1  UNL     1      31.571   5.485  49.635  1.00  0.00    -0.268 OA
HETATM   13  H4  UNL     1      30.483   4.837  46.732  1.00  0.00     0.169 HD
BRANCH  11  14
HETATM   14  C2  UNL     1      32.816   4.654  47.894  1.00  0.00     0.064 C 
HETATM   15  C1  UNL     1      32.846   3.604  47.095  1.00  0.00     0.017 C 
ENDBRANCH  11  14
ENDBRANCH   9  10
BRANCH   9  16
HETATM   16  S1  UNL     1      28.734   7.347  48.141  1.00  0.00    -0.117 SA
HETATM   17  C17 UNL     1      29.020   8.039  46.476  1.00  0.00     0.097 C 
ENDBRANCH   9  16
ENDBRANCH   1   8
BRANCH   4  18
HETATM   18  N2  UNL     1      25.570   1.519  51.638  1.00  0.00    -0.344 N 
HETATM   19  H9  UNL     1      24.929   0.702  51.557  1.00  0.00     0.167 HD
BRANCH  18  20
HETATM   20  C10 UNL     1      26.776   1.246  52.366  1.00  0.00     0.034 A 
HETATM   21  C11 UNL     1      27.323   2.354  52.985  1.00  0.00     0.029 A 
HETATM   22  C12 UNL     1      28.481   2.321  53.737  1.00  0.00     0.004 A 
HETATM   23  C13 UNL     1      29.128   1.085  53.870  1.00  0.00     0.019 A 
HETATM   24  C14 UNL     1      28.576  -0.017  53.249  1.00  0.00     0.013 A 
HETATM   25 BR1  UNL     1      29.411  -1.725  53.395  1.00  0.00    -0.051 Br
HETATM   26  C15 UNL     1      27.418   0.031  52.502  1.00  0.00     0.048 A 
ENDBRANCH  18  20
ENDBRANCH   4  18
TORSDOF 6
ENDMDL
MODEL 5
REMARK VINA RESULT:      -6.9      3.886      7.830
REMARK  6 active torsions:
REMARK  status: ('A' for Active; 'I' for Inactive)
REMARK    1  A    between atoms: C2_2  and  C3_3 
REMARK       I    between atoms: C3_3  and  N1_5 
REMARK    2  A    between atoms: N1_5  and  C4_6 
REMARK    3  A    between atoms: C4_6  and  S1_23 
REMARK    4  A    between atoms: C5_7  and  C6_8 
REMARK    5  A    between atoms: C9_11  and  N2_12 
REMARK    6  A    between atoms: N2_12  and  C10_13 
ROOT
HETATM    1  C6  UNL     1      26.432   4.909  48.956  1.00  0.00     0.030 C 
HETATM    2  C7  UNL     1      27.331   5.758  48.493  1.00  0.00     0.043 A 
HETATM    3  C8  UNL     1      28.748   5.385  48.644  1.00  0.00     0.137 A 
HETATM    4  C9  UNL     1      29.590   6.449  48.075  1.00  0.00     0.111 A 
HETATM    5  N3  UNL     1      29.106   7.518  47.540  1.00  0.00    -0.228 NA
HETATM    6  C16 UNL     1      27.742   7.808  47.429  1.00  0.00     0.235 A 
HETATM    7  N4  UNL     1      26.878   6.958  47.890  1.00  0.00    -0.246 NA
ENDROOT
BRANCH   1   8
HETATM    8  C5  UNL     1      26.740   3.642  49.600  1.00  0.00     0.039 C 
HETATM    9  C4  UNL     1      26.004   3.051  50.522  1.00  0.00     0.072 C 
BRANCH   9  10
HETATM   10  N1  UNL     1      26.257   1.827  51.177  1.00  0.00    -0.318 N 
HETATM   11  C3  UNL     1      27.201   1.554  52.198  1.00  0.00     0.245 C 
HETATM   12  O1  UNL     1      27.936   2.459  52.624  1.00  0.00    -0.268 OA
HETATM   13  H4  UNL     1      25.712   0.986  50.915  1.00  0.00     0.169 HD
BRANCH  11  14
HETATM   14  C2  UNL     1      27.367   0.241  52.795  1.00  0.00     0.064 C 
HETATM   15  C1  UNL     1      26.707  -0.798  52.319  1.00  0.00     0.017 C 
ENDBRANCH  11  14
ENDBRANCH   9  10
BRANCH   9  16
HETATM   16  S1  UNL     1      24.526   3.953  50.954  1.00  0.00    -0.117 SA
HETATM   17  C17 UNL     1      24.029   3.530  52.659  1.00  0.00     0.097 C 
ENDBRANCH   9  16
ENDBRANCH   1   8
BRANCH   4  18
HETATM   18  N2  UNL     1      30.997   6.239  48.144  1.00  0.00    -0.344 N 
HETATM   19  H9  UNL     1      31.584   6.442  48.981  1.00  0.00     0.167 HD
BRANCH  18  20
HETATM   20  C10 UNL     1      31.732   5.716  47.027  1.00  0.00     0.034 A 
HETATM   21  C11 UNL     1      31.916   4.347  47.066  1.00  0.00     0.029 A 
HETATM   22  C12 UNL     1      32.594   3.636  46.096  1.00  0.00     0.004 A 
HETATM   23  C13 UNL     1      33.120   4.358  45.017  1.00  0.00     0.019 A 
HETATM   24  C14 UNL     1      32.932   5.725  44.984  1.00  0.00     0.013 A 
HETATM   25 BR1  UNL     1      33.625   6.760  43.540  1.00  0.00    -0.051 Br
HETATM   26  C15 UNL     1      32.252   6.422  45.961  1.00  0.00     0.048 A 
ENDBRANCH  18  20
ENDBRANCH   4  18
TORSDOF 6
ENDMDL
MODEL 6
REMARK VINA RESULT:      -6.8      2.759      3.436
REMARK  6 active torsions:
REMARK  status: ('A' for Active; 'I' for Inactive)
REMARK    1  A    between atoms: C2_2  and  C3_3 
REMARK       I    between atoms: C3_3  and  N1_5 
REMARK    2  A    between atoms: N1_5  and  C4_6 
REMARK    3  A    between atoms: C4_6  and  S1_23 
REMARK    4  A    between atoms: C5_7  and  C6_8 
REMARK    5  A    between atoms: C9_11  and  N2_12 
REMARK    6  A    between atoms: N2_12  and  C10_13 
ROOT
HETATM    1  C6  UNL     1      26.569   6.272  48.933  1.00  0.00     0.030 C 
HETATM    2  C7  UNL     1      25.664   5.695  49.704  1.00  0.00     0.043 A 
HETATM    3  C8  UNL     1      25.873   4.276  50.037  1.00  0.00     0.137 A 
HETATM    4  C9  UNL     1      24.768   3.815  50.894  1.00  0.00     0.111 A 
HETATM    5  N3  UNL     1      23.798   4.581  51.263  1.00  0.00    -0.228 NA
HETATM    6  C16 UNL     1      23.664   5.927  50.906  1.00  0.00     0.235 A 
HETATM    7  N4  UNL     1      24.565   6.471  50.151  1.00  0.00    -0.246 NA
ENDROOT
BRANCH   1   8
HETATM    8  C5  UNL     1      27.747   5.609  48.395  1.00  0.00     0.039 C 
HETATM    9  C4  UNL     1      28.900   6.193  48.129  1.00  0.00     0.072 C 
BRANCH   9  10
HETATM   10  N1  UNL     1      30.069   5.598  47.608  1.00  0.00    -0.318 N 
HETATM   11  C3  UNL     1      31.246   5.218  48.300  1.00  0.00     0.245 C 
HETATM   12  O1  UNL     1      31.334   5.399  49.525  1.00  0.00    -0.268 OA
HETATM   13  H4  UNL     1      30.129   5.393  46.595  1.00  0.00     0.169 HD
BRANCH  11  14
HETATM   14  C2  UNL     1      32.391   4.611  47.645  1.00  0.00     0.064 C 
HETATM   15  C1  UNL     1      32.217   3.748  46.661  1.00  0.00     0.017 C 
ENDBRANCH  11  14
ENDBRANCH   9  10
BRANCH   9  16
HETATM   16  S1  UNL     1      28.926   7.940  48.488  1.00  0.00    -0.117 SA
HETATM   17  C17 UNL     1      28.628   8.883  46.955  1.00  0.00     0.097 C 
ENDBRANCH   9  16
ENDBRANCH   1   8
BRANCH   4  18
HETATM   18  N2  UNL     1      24.822   2.453  51.306  1.00  0.00    -0.344 N 
HETATM   19  H9  UNL     1      25.701   1.931  51.508  1.00  0.00     0.167 HD
BRANCH  18  20
HETATM   20  C10 UNL     1      23.627   1.675  51.477  1.00  0.00     0.034 A 
HETATM   21  C11 UNL     1      22.810   1.646  50.363  1.00  0.00     0.029 A 
HETATM   22  C12 UNL     1      21.612   0.961  50.308  1.00  0.00     0.004 A 
HETATM   23  C13 UNL     1      21.217   0.260  51.455  1.00  0.00     0.019 A 
HETATM   24  C14 UNL     1      22.038   0.292  52.563  1.00  0.00     0.013 A 
HETATM   25 BR1  UNL     1      21.553  -0.643  54.152  1.00  0.00    -0.051 Br
HETATM   26  C15 UNL     1      23.232   0.981  52.604  1.00  0.00     0.048 A 
ENDBRANCH  18  20
ENDBRANCH   4  18
TORSDOF 6
ENDMDL
MODEL 7
REMARK VINA RESULT:      -6.8      5.446      9.906
REMARK  6 active torsions:
REMARK  status: ('A' for Active; 'I' for Inactive)
REMARK    1  A    between atoms: C2_2  and  C3_3 
REMARK       I    between atoms: C3_3  and  N1_5 
REMARK    2  A    between atoms: N1_5  and  C4_6 
REMARK    3  A    between atoms: C4_6  and  S1_23 
REMARK    4  A    between atoms: C5_7  and  C6_8 
REMARK    5  A    between atoms: C9_11  and  N2_12 
REMARK    6  A    between atoms: N2_12  and  C10_13 
ROOT
HETATM    1  C6  UNL     1      23.649   1.223  53.074  1.00  0.00     0.030 C 
HETATM    2  C7  UNL     1      24.815   1.620  52.594  1.00  0.00     0.043 A 
HETATM    3  C8  UNL     1      24.843   2.087  51.198  1.00  0.00     0.137 A 
HETATM    4  C9  UNL     1      26.218   2.479  50.848  1.00  0.00     0.111 A 
HETATM    5  N3  UNL     1      27.203   2.404  51.678  1.00  0.00    -0.228 NA
HETATM    6  C16 UNL     1      27.102   1.948  52.997  1.00  0.00     0.235 A 
HETATM    7  N4  UNL     1      25.948   1.567  53.445  1.00  0.00    -0.246 NA
ENDROOT
BRANCH   1   8
HETATM    8  C5  UNL     1      22.402   1.217  52.325  1.00  0.00     0.039 C 
HETATM    9  C4  UNL     1      21.250   0.743  52.759  1.00  0.00     0.072 C 
BRANCH   9  10
HETATM   10  N1  UNL     1      20.016   0.712  52.076  1.00  0.00    -0.318 N 
HETATM   11  C3  UNL     1      19.780   0.787  50.680  1.00  0.00     0.245 C 
HETATM   12  O1  UNL     1      20.734   0.895  49.893  1.00  0.00    -0.268 OA
HETATM   13  H4  UNL     1      19.136   0.625  52.615  1.00  0.00     0.169 HD
BRANCH  11  14
HETATM   14  C2  UNL     1      18.452   0.744  50.096  1.00  0.00     0.064 C 
HETATM   15  C1  UNL     1      17.536  -0.075  50.578  1.00  0.00     0.017 C 
ENDBRANCH  11  14
ENDBRANCH   9  10
BRANCH   9  16
HETATM   16  S1  UNL     1      21.321   0.072  54.411  1.00  0.00    -0.117 SA
HETATM   17  C17 UNL     1      21.598  -1.730  54.327  1.00  0.00     0.097 C 
ENDBRANCH   9  16
ENDBRANCH   1   8
BRANCH   4  18
HETATM   18  N2  UNL     1      26.415   2.956  49.521  1.00  0.00    -0.344 N 
HETATM   19  H9  UNL     1      26.404   2.355  48.670  1.00  0.00     0.167 HD
BRANCH  18  20
HETATM   20  C10 UNL     1      26.652   4.346  49.253  1.00  0.00     0.034 A 
HETATM   21  C11 UNL     1      25.648   5.184  49.699  1.00  0.00     0.029 A 
HETATM   22  C12 UNL     1      25.669   6.557  49.546  1.00  0.00     0.004 A 
HETATM   23  C13 UNL     1      26.778   7.116  48.899  1.00  0.00     0.019 A 
HETATM   24  C14 UNL     1      27.778   6.273  48.457  1.00  0.00     0.013 A 
HETATM   25 BR1  UNL     1      29.312   6.978  47.571  1.00  0.00    -0.051 Br
HETATM   26  C15 UNL     1      27.743   4.904  48.617  1.00  0.00     0.048 A 
ENDBRANCH  18  20
ENDBRANCH   4  18
TORSDOF 6
ENDMDL
MODEL 8
REMARK VINA RESULT:      -6.8      5.190      7.689
REMARK  6 active torsions:
REMARK  status: ('A' for Active; 'I' for Inactive)
REMARK    1  A    between atoms: C2_2  and  C3_3 
REMARK       I    between atoms: C3_3  and  N1_5 
REMARK    2  A    between atoms: N1_5  and  C4_6 
REMARK    3  A    between atoms: C4_6  and  S1_23 
REMARK    4  A    between atoms: C5_7  and  C6_8 
REMARK    5  A    between atoms: C9_11  and  N2_12 
REMARK    6  A    between atoms: N2_12  and  C10_13 
ROOT
HETATM    1  C6  UNL     1      26.429   3.128  50.677  1.00  0.00     0.030 C 
HETATM    2  C7  UNL     1      26.655   2.257  51.645  1.00  0.00     0.043 A 
HETATM    3  C8  UNL     1      25.631   1.223  51.871  1.00  0.00     0.137 A 
HETATM    4  C9  UNL     1      26.058   0.357  52.982  1.00  0.00     0.111 A 
HETATM    5  N3  UNL     1      27.167   0.527  53.619  1.00  0.00    -0.228 NA
HETATM    6  C16 UNL     1      28.097   1.536  53.348  1.00  0.00     0.235 A 
HETATM    7  N4  UNL     1      27.854   2.376  52.392  1.00  0.00    -0.246 NA
ENDROOT
BRANCH   1   8
HETATM    8  C5  UNL     1      25.248   3.136  49.827  1.00  0.00     0.039 C 
HETATM    9  C4  UNL     1      24.605   4.213  49.419  1.00  0.00     0.072 C 
BRANCH   9  10
HETATM   10  N1  UNL     1      23.459   4.277  48.598  1.00  0.00    -0.318 N 
HETATM   11  C3  UNL     1      22.096   4.264  48.986  1.00  0.00     0.245 C 
HETATM   12  O1  UNL     1      21.792   4.191  50.188  1.00  0.00    -0.268 OA
HETATM   13  H4  UNL     1      23.570   4.339  47.570  1.00  0.00     0.169 HD
BRANCH  11  14
HETATM   14  C2  UNL     1      21.000   4.335  48.037  1.00  0.00     0.064 C 
HETATM   15  C1  UNL     1      20.327   3.247  47.711  1.00  0.00     0.017 C 
ENDBRANCH  11  14
ENDBRANCH   9  10
BRANCH   9  16
HETATM   16  S1  UNL     1      25.311   5.743  50.007  1.00  0.00    -0.117 SA
HETATM   17  C17 UNL     1      26.512   6.371  48.784  1.00  0.00     0.097 C 
ENDBRANCH   9  16
ENDBRANCH   1   8
BRANCH   4  18
HETATM   18  N2  UNL     1      25.170  -0.700  53.330  1.00  0.00    -0.344 N 
HETATM   19  H9  UNL     1      25.466  -1.678  53.530  1.00  0.00     0.167 HD
BRANCH  18  20
HETATM   20  C10 UNL     1      23.754  -0.485  53.431  1.00  0.00     0.034 A 
HETATM   21  C11 UNL     1      23.206  -0.906  54.628  1.00  0.00     0.029 A 
HETATM   22  C12 UNL     1      21.864  -0.797  54.938  1.00  0.00     0.004 A 
HETATM   23  C13 UNL     1      21.024  -0.225  53.974  1.00  0.00     0.019 A 
HETATM   24  C14 UNL     1      21.579   0.195  52.782  1.00  0.00     0.013 A 
HETATM   25 BR1  UNL     1      20.485   0.982  51.433  1.00  0.00    -0.051 Br
HETATM   26  C15 UNL     1      22.921   0.079  52.486  1.00  0.00     0.048 A 
ENDBRANCH  18  20
ENDBRANCH   4  18
TORSDOF 6
ENDMDL
MODEL 9
REMARK VINA RESULT:      -6.6      2.135      2.600
REMARK  6 active torsions:
REMARK  status: ('A' for Active; 'I' for Inactive)
REMARK    1  A    between atoms: C2_2  and  C3_3 
REMARK       I    between atoms: C3_3  and  N1_5 
REMARK    2  A    between atoms: N1_5  and  C4_6 
REMARK    3  A    between atoms: C4_6  and  S1_23 
REMARK    4  A    between atoms: C5_7  and  C6_8 
REMARK    5  A    between atoms: C9_11  and  N2_12 
REMARK    6  A    between atoms: N2_12  and  C10_13 
ROOT
HETATM    1  C6  UNL     1      27.025   6.495  48.462  1.00  0.00     0.030 C 
HETATM    2  C7  UNL     1      26.355   5.625  49.197  1.00  0.00     0.043 A 
HETATM    3  C8  UNL     1      26.972   4.303  49.402  1.00  0.00     0.137 A 
HETATM    4  C9  UNL     1      26.082   3.480  50.237  1.00  0.00     0.111 A 
HETATM    5  N3  UNL     1      24.952   3.905  50.690  1.00  0.00    -0.228 NA
HETATM    6  C16 UNL     1      24.426   5.180  50.454  1.00  0.00     0.235 A 
HETATM    7  N4  UNL     1      25.102   6.017  49.732  1.00  0.00    -0.246 NA
ENDROOT
BRANCH   1   8
HETATM    8  C5  UNL     1      28.318   6.240  47.846  1.00  0.00     0.039 C 
HETATM    9  C4  UNL     1      29.381   7.014  47.949  1.00  0.00     0.072 C 
BRANCH   9  10
HETATM   10  N1  UNL     1      30.654   6.815  47.373  1.00  0.00    -0.318 N 
HETATM   11  C3  UNL     1      31.648   5.873  47.739  1.00  0.00     0.245 C 
HETATM   12  O1  UNL     1      31.444   5.087  48.678  1.00  0.00    -0.268 OA
HETATM   13  H4  UNL     1      30.953   7.407  46.578  1.00  0.00     0.169 HD
BRANCH  11  14
HETATM   14  C2  UNL     1      32.928   5.767  47.063  1.00  0.00     0.064 C 
HETATM   15  C1  UNL     1      33.536   6.847  46.609  1.00  0.00     0.017 C 
ENDBRANCH  11  14
ENDBRANCH   9  10
BRANCH   9  16
HETATM   16  S1  UNL     1      29.120   8.472  48.943  1.00  0.00    -0.117 SA
HETATM   17  C17 UNL     1      30.715   9.316  49.219  1.00  0.00     0.097 C 
ENDBRANCH   9  16
ENDBRANCH   1   8
BRANCH   4  18
HETATM   18  N2  UNL     1      26.537   2.163  50.528  1.00  0.00    -0.344 N 
HETATM   19  H9  UNL     1      27.077   1.565  49.867  1.00  0.00     0.167 HD
BRANCH  18  20
HETATM   20  C10 UNL     1      26.274   1.543  51.796  1.00  0.00     0.034 A 
HETATM   21  C11 UNL     1      27.294   1.693  52.717  1.00  0.00     0.029 A 
HETATM   22  C12 UNL     1      27.253   1.177  53.998  1.00  0.00     0.004 A 
HETATM   23  C13 UNL     1      26.105   0.463  54.369  1.00  0.00     0.019 A 
HETATM   24  C14 UNL     1      25.091   0.319  53.444  1.00  0.00     0.013 A 
HETATM   25 BR1  UNL     1      23.506  -0.642  53.893  1.00  0.00    -0.051 Br
HETATM   26  C15 UNL     1      25.146   0.840  52.168  1.00  0.00     0.048 A 
ENDBRANCH  18  20
ENDBRANCH   4  18
TORSDOF 6
ENDMDL
