MODEL 1
REMARK VINA RESULT:      -6.7      0.000      0.000
REMARK  7 active torsions:
REMARK  status: ('A' for Active; 'I' for Inactive)
REMARK    1  A    between atoms: C2_2  and  C3_3 
REMARK    2  A    between atoms: C4_4  and  C5_5 
REMARK    3  A    between atoms: C6_6  and  C7_7 
REMARK    4  A    between atoms: C7_7  and  N1_8 
REMARK    5  A    between atoms: N1_8  and  C9_10 
REMARK    6  A    between atoms: C13_16  and  O1_17 
REMARK    7  A    between atoms: C15_19  and  O2_20 
ROOT
HETATM    1  C9  UNL     1      24.213   3.082  51.068  1.00  0.00     0.139 A 
HETATM    2  N2  UNL     1      25.060   3.896  50.390  1.00  0.00    -0.224 NA
HETATM    3  C10 UNL     1      26.370   3.637  50.294  1.00  0.00     0.236 A 
HETATM    4  N3  UNL     1      26.928   2.558  50.861  1.00  0.00    -0.241 NA
HETATM    5  C11 UNL     1      26.161   1.700  51.553  1.00  0.00     0.075 A 
HETATM    6  C12 UNL     1      26.680   0.583  52.161  1.00  0.00     0.072 A 
HETATM    7  C13 UNL     1      25.840  -0.251  52.863  1.00  0.00     0.103 A 
HETATM    8  C15 UNL     1      24.495   0.037  52.950  1.00  0.00     0.102 A 
HETATM    9  C17 UNL     1      24.004   1.154  52.336  1.00  0.00     0.057 A 
HETATM   10  C18 UNL     1      24.826   2.001  51.628  1.00  0.00     0.041 A 
ENDROOT
BRANCH   1  11
HETATM   11  N1  UNL     1      22.853   3.467  51.017  1.00  0.00    -0.366 N 
HETATM   12  C8  UNL     1      21.842   3.851  51.982  1.00  0.00     0.151 C 
BRANCH  11  13
HETATM   13  C7  UNL     1      22.170   3.472  49.703  1.00  0.00     0.151 C 
BRANCH  13  14
HETATM   14  C6  UNL     1      22.202   2.146  49.086  1.00  0.00    -0.007 C 
HETATM   15  C5  UNL     1      21.479   1.046  49.174  1.00  0.00    -0.003 C 
BRANCH  15  16
HETATM   16  C4  UNL     1      20.324   0.956  50.057  1.00  0.00    -0.004 C 
HETATM   17  C3  UNL     1      20.471   0.370  51.255  1.00  0.00    -0.027 C 
BRANCH  17  18
HETATM   18  C2  UNL     1      19.450   0.177  52.285  1.00  0.00     0.022 C 
HETATM   19  C1  UNL     1      18.176  -0.364  51.670  1.00  0.00     0.009 C 
ENDBRANCH  17  18
ENDBRANCH  15  16
ENDBRANCH  13  14
ENDBRANCH  11  13
ENDBRANCH   1  11
BRANCH   8  20
HETATM   20  O2  UNL     1      23.773  -0.878  53.681  1.00  0.00    -0.353 OA
HETATM   21  C16 UNL     1      22.518  -0.609  54.275  1.00  0.00     0.210 C 
ENDBRANCH   8  20
BRANCH   7  22
HETATM   22  O1  UNL     1      26.415  -1.365  53.457  1.00  0.00    -0.353 OA
HETATM   23  C14 UNL     1      27.235  -2.228  52.716  1.00  0.00     0.210 C 
ENDBRANCH   7  22
TORSDOF 7
ENDMDL
MODEL 2
REMARK VINA RESULT:      -6.7      2.023      4.518
REMARK  7 active torsions:
REMARK  status: ('A' for Active; 'I' for Inactive)
REMARK    1  A    between atoms: C2_2  and  C3_3 
REMARK    2  A    between atoms: C4_4  and  C5_5 
REMARK    3  A    between atoms: C6_6  and  C7_7 
REMARK    4  A    between atoms: C7_7  and  N1_8 
REMARK    5  A    between atoms: N1_8  and  C9_10 
REMARK    6  A    between atoms: C13_16  and  O1_17 
REMARK    7  A    between atoms: C15_19  and  O2_20 
ROOT
HETATM    1  C9  UNL     1      22.057   1.686  52.575  1.00  0.00     0.139 A 
HETATM    2  N2  UNL     1      20.914   1.166  53.086  1.00  0.00    -0.224 NA
HETATM    3  C10 UNL     1      20.905   0.027  53.789  1.00  0.00     0.236 A 
HETATM    4  N3  UNL     1      22.022  -0.672  54.032  1.00  0.00    -0.241 NA
HETATM    5  C11 UNL     1      23.198  -0.229  53.560  1.00  0.00     0.075 A 
HETATM    6  C12 UNL     1      24.373  -0.909  53.771  1.00  0.00     0.072 A 
HETATM    7  C13 UNL     1      25.543  -0.403  53.252  1.00  0.00     0.103 A 
HETATM    8  C15 UNL     1      25.529   0.770  52.529  1.00  0.00     0.102 A 
HETATM    9  C17 UNL     1      24.347   1.426  52.333  1.00  0.00     0.057 A 
HETATM   10  C18 UNL     1      23.166   0.940  52.845  1.00  0.00     0.041 A 
ENDROOT
BRANCH   1  11
HETATM   11  N1  UNL     1      21.900   2.927  51.914  1.00  0.00    -0.366 N 
HETATM   12  C8  UNL     1      22.236   4.308  52.198  1.00  0.00     0.151 C 
BRANCH  11  13
HETATM   13  C7  UNL     1      21.186   2.951  50.617  1.00  0.00     0.151 C 
BRANCH  13  14
HETATM   14  C6  UNL     1      21.918   2.199  49.597  1.00  0.00    -0.007 C 
HETATM   15  C5  UNL     1      22.991   2.409  48.858  1.00  0.00    -0.003 C 
BRANCH  15  16
HETATM   16  C4  UNL     1      23.760   3.641  48.956  1.00  0.00    -0.004 C 
HETATM   17  C3  UNL     1      24.965   3.606  49.544  1.00  0.00    -0.027 C 
BRANCH  17  18
HETATM   18  C2  UNL     1      25.893   4.720  49.745  1.00  0.00     0.022 C 
HETATM   19  C1  UNL     1      27.166   4.494  48.957  1.00  0.00     0.009 C 
ENDBRANCH  17  18
ENDBRANCH  15  16
ENDBRANCH  13  14
ENDBRANCH  11  13
ENDBRANCH   1  11
BRANCH   8  20
HETATM   20  O2  UNL     1      26.766   1.159  52.069  1.00  0.00    -0.353 OA
HETATM   21  C16 UNL     1      27.584   2.122  52.704  1.00  0.00     0.210 C 
ENDBRANCH   8  20
BRANCH   7  22
HETATM   22  O1  UNL     1      26.702  -1.128  53.495  1.00  0.00    -0.353 OA
HETATM   23  C14 UNL     1      27.047  -2.217  52.683  1.00  0.00     0.210 C 
ENDBRANCH   7  22
TORSDOF 7
ENDMDL
MODEL 3
REMARK VINA RESULT:      -6.6      2.422      5.322
REMARK  7 active torsions:
REMARK  status: ('A' for Active; 'I' for Inactive)
REMARK    1  A    between atoms: C2_2  and  C3_3 
REMARK    2  A    between atoms: C4_4  and  C5_5 
REMARK    3  A    between atoms: C6_6  and  C7_7 
REMARK    4  A    between atoms: C7_7  and  N1_8 
REMARK    5  A    between atoms: N1_8  and  C9_10 
REMARK    6  A    between atoms: C13_16  and  O1_17 
REMARK    7  A    between atoms: C15_19  and  O2_20 
ROOT
HETATM    1  C9  UNL     1      23.212   1.736  52.297  1.00  0.00     0.139 A 
HETATM    2  N2  UNL     1      22.197   0.860  52.095  1.00  0.00    -0.224 NA
HETATM    3  C10 UNL     1      22.241  -0.396  52.556  1.00  0.00     0.236 A 
HETATM    4  N3  UNL     1      23.289  -0.868  53.245  1.00  0.00    -0.241 NA
HETATM    5  C11 UNL     1      24.338  -0.067  53.488  1.00  0.00     0.075 A 
HETATM    6  C12 UNL     1      25.442  -0.500  54.182  1.00  0.00     0.072 A 
HETATM    7  C13 UNL     1      26.488   0.371  54.389  1.00  0.00     0.103 A 
HETATM    8  C15 UNL     1      26.422   1.659  53.903  1.00  0.00     0.102 A 
HETATM    9  C17 UNL     1      25.314   2.063  53.216  1.00  0.00     0.057 A 
HETATM   10  C18 UNL     1      24.256   1.211  52.999  1.00  0.00     0.041 A 
ENDROOT
BRANCH   1  11
HETATM   11  N1  UNL     1      22.977   3.040  51.800  1.00  0.00    -0.366 N 
HETATM   12  C8  UNL     1      22.565   4.310  52.362  1.00  0.00     0.151 C 
BRANCH  11  13
HETATM   13  C7  UNL     1      23.113   3.274  50.344  1.00  0.00     0.151 C 
BRANCH  13  14
HETATM   14  C6  UNL     1      23.405   4.680  50.060  1.00  0.00    -0.007 C 
HETATM   15  C5  UNL     1      24.463   5.363  49.667  1.00  0.00    -0.003 C 
BRANCH  15  16
HETATM   16  C4  UNL     1      25.739   4.715  49.403  1.00  0.00    -0.004 C 
HETATM   17  C3  UNL     1      26.732   5.439  48.863  1.00  0.00    -0.027 C 
BRANCH  17  18
HETATM   18  C2  UNL     1      28.081   4.987  48.520  1.00  0.00     0.022 C 
HETATM   19  C1  UNL     1      28.908   6.144  47.999  1.00  0.00     0.009 C 
ENDBRANCH  17  18
ENDBRANCH  15  16
ENDBRANCH  13  14
ENDBRANCH  11  13
ENDBRANCH   1  11
BRANCH   8  20
HETATM   20  O2  UNL     1      27.535   2.419  54.180  1.00  0.00    -0.353 OA
HETATM   21  C16 UNL     1      28.600   2.629  53.274  1.00  0.00     0.210 C 
ENDBRANCH   8  20
BRANCH   7  22
HETATM   22  O1  UNL     1      27.579  -0.116  55.096  1.00  0.00    -0.353 OA
HETATM   23  C14 UNL     1      28.725  -0.562  54.424  1.00  0.00     0.210 C 
ENDBRANCH   7  22
TORSDOF 7
ENDMDL
MODEL 4
REMARK VINA RESULT:      -6.6      2.193      4.187
REMARK  7 active torsions:
REMARK  status: ('A' for Active; 'I' for Inactive)
REMARK    1  A    between atoms: C2_2  and  C3_3 
REMARK    2  A    between atoms: C4_4  and  C5_5 
REMARK    3  A    between atoms: C6_6  and  C7_7 
REMARK    4  A    between atoms: C7_7  and  N1_8 
REMARK    5  A    between atoms: N1_8  and  C9_10 
REMARK    6  A    between atoms: C13_16  and  O1_17 
REMARK    7  A    between atoms: C15_19  and  O2_20 
ROOT
HETATM    1  C9  UNL     1      22.106   0.948  53.031  1.00  0.00     0.139 A 
HETATM    2  N2  UNL     1      21.345   0.253  53.912  1.00  0.00    -0.224 NA
HETATM    3  C10 UNL     1      21.862  -0.697  54.702  1.00  0.00     0.236 A 
HETATM    4  N3  UNL     1      23.162  -1.022  54.672  1.00  0.00    -0.241 NA
HETATM    5  C11 UNL     1      23.986  -0.383  53.826  1.00  0.00     0.075 A 
HETATM    6  C12 UNL     1      25.325  -0.680  53.747  1.00  0.00     0.072 A 
HETATM    7  C13 UNL     1      26.113   0.007  52.852  1.00  0.00     0.103 A 
HETATM    8  C15 UNL     1      25.559   0.979  52.047  1.00  0.00     0.102 A 
HETATM    9  C17 UNL     1      24.225   1.254  52.145  1.00  0.00     0.057 A 
HETATM   10  C18 UNL     1      23.419   0.582  53.034  1.00  0.00     0.041 A 
ENDROOT
BRANCH   1  11
HETATM   11  N1  UNL     1      21.416   1.958  52.321  1.00  0.00    -0.366 N 
HETATM   12  C8  UNL     1      21.406   3.407  52.317  1.00  0.00     0.151 C 
BRANCH  11  13
HETATM   13  C7  UNL     1      20.386   1.552  51.338  1.00  0.00     0.151 C 
BRANCH  13  14
HETATM   14  C6  UNL     1      20.965   0.733  50.273  1.00  0.00    -0.007 C 
HETATM   15  C5  UNL     1      21.608   0.969  49.145  1.00  0.00    -0.003 C 
BRANCH  15  16
HETATM   16  C4  UNL     1      21.900   2.323  48.697  1.00  0.00    -0.004 C 
HETATM   17  C3  UNL     1      23.088   2.864  49.008  1.00  0.00    -0.027 C 
BRANCH  17  18
HETATM   18  C2  UNL     1      23.579   4.198  48.660  1.00  0.00     0.022 C 
HETATM   19  C1  UNL     1      23.500   5.118  49.860  1.00  0.00     0.009 C 
ENDBRANCH  17  18
ENDBRANCH  15  16
ENDBRANCH  13  14
ENDBRANCH  11  13
ENDBRANCH   1  11
BRANCH   8  20
HETATM   20  O2  UNL     1      26.458   1.584  51.200  1.00  0.00    -0.353 OA
HETATM   21  C16 UNL     1      26.423   2.953  50.849  1.00  0.00     0.210 C 
ENDBRANCH   8  20
BRANCH   7  22
HETATM   22  O1  UNL     1      27.459  -0.331  52.813  1.00  0.00    -0.353 OA
HETATM   23  C14 UNL     1      28.251  -0.244  53.965  1.00  0.00     0.210 C 
ENDBRANCH   7  22
TORSDOF 7
ENDMDL
MODEL 5
REMARK VINA RESULT:      -6.5      2.625      5.736
REMARK  7 active torsions:
REMARK  status: ('A' for Active; 'I' for Inactive)
REMARK    1  A    between atoms: C2_2  and  C3_3 
REMARK    2  A    between atoms: C4_4  and  C5_5 
REMARK    3  A    between atoms: C6_6  and  C7_7 
REMARK    4  A    between atoms: C7_7  and  N1_8 
REMARK    5  A    between atoms: N1_8  and  C9_10 
REMARK    6  A    between atoms: C13_16  and  O1_17 
REMARK    7  A    between atoms: C15_19  and  O2_20 
ROOT
HETATM    1  C9  UNL     1      24.775  -0.298  53.878  1.00  0.00     0.139 A 
HETATM    2  N2  UNL     1      25.095  -0.986  55.001  1.00  0.00    -0.224 NA
HETATM    3  C10 UNL     1      24.160  -1.508  55.805  1.00  0.00     0.236 A 
HETATM    4  N3  UNL     1      22.850  -1.384  55.552  1.00  0.00    -0.241 NA
HETATM    5  C11 UNL     1      22.445  -0.715  54.461  1.00  0.00     0.075 A 
HETATM    6  C12 UNL     1      21.116  -0.549  54.156  1.00  0.00     0.072 A 
HETATM    7  C13 UNL     1      20.769   0.155  53.025  1.00  0.00     0.103 A 
HETATM    8  C15 UNL     1      21.749   0.685  52.213  1.00  0.00     0.102 A 
HETATM    9  C17 UNL     1      23.063   0.507  52.539  1.00  0.00     0.057 A 
HETATM   10  C18 UNL     1      23.432  -0.195  53.663  1.00  0.00     0.041 A 
ENDROOT
BRANCH   1  11
HETATM   11  N1  UNL     1      25.882   0.130  53.109  1.00  0.00    -0.366 N 
HETATM   12  C8  UNL     1      26.822  -0.494  52.199  1.00  0.00     0.151 C 
BRANCH  11  13
HETATM   13  C7  UNL     1      26.312   1.543  53.216  1.00  0.00     0.151 C 
BRANCH  13  14
HETATM   14  C6  UNL     1      26.886   2.018  51.957  1.00  0.00    -0.007 C 
HETATM   15  C5  UNL     1      26.417   2.571  50.855  1.00  0.00    -0.003 C 
BRANCH  15  16
HETATM   16  C4  UNL     1      24.999   2.849  50.680  1.00  0.00    -0.004 C 
HETATM   17  C3  UNL     1      24.520   4.038  51.078  1.00  0.00    -0.027 C 
BRANCH  17  18
HETATM   18  C2  UNL     1      23.140   4.517  50.995  1.00  0.00     0.022 C 
HETATM   19  C1  UNL     1      22.483   4.473  52.359  1.00  0.00     0.009 C 
ENDBRANCH  17  18
ENDBRANCH  15  16
ENDBRANCH  13  14
ENDBRANCH  11  13
ENDBRANCH   1  11
BRANCH   8  20
HETATM   20  O2  UNL     1      21.262   1.365  51.120  1.00  0.00    -0.353 OA
HETATM   21  C16 UNL     1      21.355   0.898  49.789  1.00  0.00     0.210 C 
ENDBRANCH   8  20
BRANCH   7  22
HETATM   22  O1  UNL     1      19.413   0.292  52.763  1.00  0.00    -0.353 OA
HETATM   23  C14 UNL     1      18.546  -0.802  52.891  1.00  0.00     0.210 C 
ENDBRANCH   7  22
TORSDOF 7
ENDMDL
MODEL 6
REMARK VINA RESULT:      -6.4      2.390      5.726
REMARK  7 active torsions:
REMARK  status: ('A' for Active; 'I' for Inactive)
REMARK    1  A    between atoms: C2_2  and  C3_3 
REMARK    2  A    between atoms: C4_4  and  C5_5 
REMARK    3  A    between atoms: C6_6  and  C7_7 
REMARK    4  A    between atoms: C7_7  and  N1_8 
REMARK    5  A    between atoms: N1_8  and  C9_10 
REMARK    6  A    between atoms: C13_16  and  O1_17 
REMARK    7  A    between atoms: C15_19  and  O2_20 
ROOT
HETATM    1  C9  UNL     1      23.217   2.640  51.536  1.00  0.00     0.139 A 
HETATM    2  N2  UNL     1      22.034   2.246  51.006  1.00  0.00    -0.224 NA
HETATM    3  C10 UNL     1      21.485   1.060  51.296  1.00  0.00     0.236 A 
HETATM    4  N3  UNL     1      22.070   0.186  52.127  1.00  0.00    -0.241 NA
HETATM    5  C11 UNL     1      23.246   0.496  52.695  1.00  0.00     0.075 A 
HETATM    6  C12 UNL     1      23.896  -0.363  53.548  1.00  0.00     0.072 A 
HETATM    7  C13 UNL     1      25.103   0.013  54.090  1.00  0.00     0.103 A 
HETATM    8  C15 UNL     1      25.650   1.239  53.775  1.00  0.00     0.102 A 
HETATM    9  C17 UNL     1      24.985   2.074  52.924  1.00  0.00     0.057 A 
HETATM   10  C18 UNL     1      23.775   1.720  52.373  1.00  0.00     0.041 A 
ENDROOT
BRANCH   1  11
HETATM   11  N1  UNL     1      23.622   3.947  51.177  1.00  0.00    -0.366 N 
HETATM   12  C8  UNL     1      23.555   5.262  51.782  1.00  0.00     0.151 C 
BRANCH  11  13
HETATM   13  C7  UNL     1      24.242   4.153  49.848  1.00  0.00     0.151 C 
BRANCH  13  14
HETATM   14  C6  UNL     1      25.511   3.434  49.740  1.00  0.00    -0.007 C 
HETATM   15  C5  UNL     1      26.728   3.724  49.319  1.00  0.00    -0.003 C 
BRANCH  15  16
HETATM   16  C4  UNL     1      27.066   5.042  48.802  1.00  0.00    -0.004 C 
HETATM   17  C3  UNL     1      28.324   5.274  48.396  1.00  0.00    -0.027 C 
BRANCH  17  18
HETATM   18  C2  UNL     1      28.870   6.516  47.849  1.00  0.00     0.022 C 
HETATM   19  C1  UNL     1      30.381   6.443  47.782  1.00  0.00     0.009 C 
ENDBRANCH  17  18
ENDBRANCH  15  16
ENDBRANCH  13  14
ENDBRANCH  11  13
ENDBRANCH   1  11
BRANCH   8  20
HETATM   20  O2  UNL     1      26.859   1.486  54.384  1.00  0.00    -0.353 OA
HETATM   21  C16 UNL     1      28.108   1.427  53.724  1.00  0.00     0.210 C 
ENDBRANCH   8  20
BRANCH   7  22
HETATM   22  O1  UNL     1      25.716  -0.891  54.945  1.00  0.00    -0.353 OA
HETATM   23  C14 UNL     1      25.213  -1.107  56.236  1.00  0.00     0.210 C 
ENDBRANCH   7  22
TORSDOF 7
ENDMDL
MODEL 7
REMARK VINA RESULT:      -6.4      1.506      1.968
REMARK  7 active torsions:
REMARK  status: ('A' for Active; 'I' for Inactive)
REMARK    1  A    between atoms: C2_2  and  C3_3 
REMARK    2  A    between atoms: C4_4  and  C5_5 
REMARK    3  A    between atoms: C6_6  and  C7_7 
REMARK    4  A    between atoms: C7_7  and  N1_8 
REMARK    5  A    between atoms: N1_8  and  C9_10 
REMARK    6  A    between atoms: C13_16  and  O1_17 
REMARK    7  A    between atoms: C15_19  and  O2_20 
ROOT
HETATM    1  C9  UNL     1      24.250   2.139  51.737  1.00  0.00     0.139 A 
HETATM    2  N2  UNL     1      24.647   2.938  50.716  1.00  0.00    -0.224 NA
HETATM    3  C10 UNL     1      25.935   3.070  50.378  1.00  0.00     0.236 A 
HETATM    4  N3  UNL     1      26.914   2.424  51.026  1.00  0.00    -0.241 NA
HETATM    5  C11 UNL     1      26.609   1.614  52.052  1.00  0.00     0.075 A 
HETATM    6  C12 UNL     1      27.571   0.933  52.757  1.00  0.00     0.072 A 
HETATM    7  C13 UNL     1      27.190   0.125  53.804  1.00  0.00     0.103 A 
HETATM    8  C15 UNL     1      25.857   0.005  54.136  1.00  0.00     0.102 A 
HETATM    9  C17 UNL     1      24.921   0.694  53.419  1.00  0.00     0.057 A 
HETATM   10  C18 UNL     1      25.279   1.505  52.368  1.00  0.00     0.041 A 
ENDROOT
BRANCH   1  11
HETATM   11  N1  UNL     1      22.849   2.063  51.920  1.00  0.00    -0.366 N 
HETATM   12  C8  UNL     1      21.798   2.983  52.307  1.00  0.00     0.151 C 
BRANCH  11  13
HETATM   13  C7  UNL     1      22.185   0.752  51.743  1.00  0.00     0.151 C 
BRANCH  13  14
HETATM   14  C6  UNL     1      21.169   0.812  50.692  1.00  0.00    -0.007 C 
HETATM   15  C5  UNL     1      19.855   0.703  50.642  1.00  0.00    -0.003 C 
BRANCH  15  16
HETATM   16  C4  UNL     1      19.059   0.465  51.838  1.00  0.00    -0.004 C 
HETATM   17  C3  UNL     1      18.241  -0.598  51.869  1.00  0.00    -0.027 C 
BRANCH  17  18
HETATM   18  C2  UNL     1      17.363  -1.017  52.962  1.00  0.00     0.022 C 
HETATM   19  C1  UNL     1      17.834  -2.333  53.542  1.00  0.00     0.009 C 
ENDBRANCH  17  18
ENDBRANCH  15  16
ENDBRANCH  13  14
ENDBRANCH  11  13
ENDBRANCH   1  11
BRANCH   8  20
HETATM   20  O2  UNL     1      25.619  -0.832  55.202  1.00  0.00    -0.353 OA
HETATM   21  C16 UNL     1      24.338  -1.301  55.573  1.00  0.00     0.210 C 
ENDBRANCH   8  20
BRANCH   7  22
HETATM   22  O1  UNL     1      28.202  -0.541  54.483  1.00  0.00    -0.353 OA
HETATM   23  C14 UNL     1      29.431  -0.797  53.861  1.00  0.00     0.210 C 
ENDBRANCH   7  22
TORSDOF 7
ENDMDL
MODEL 8
REMARK VINA RESULT:      -6.3      2.431      3.982
REMARK  7 active torsions:
REMARK  status: ('A' for Active; 'I' for Inactive)
REMARK    1  A    between atoms: C2_2  and  C3_3 
REMARK    2  A    between atoms: C4_4  and  C5_5 
REMARK    3  A    between atoms: C6_6  and  C7_7 
REMARK    4  A    between atoms: C7_7  and  N1_8 
REMARK    5  A    between atoms: N1_8  and  C9_10 
REMARK    6  A    between atoms: C13_16  and  O1_17 
REMARK    7  A    between atoms: C15_19  and  O2_20 
ROOT
HETATM    1  C9  UNL     1      22.658   0.354  53.155  1.00  0.00     0.139 A 
HETATM    2  N2  UNL     1      21.996  -0.387  54.076  1.00  0.00    -0.224 NA
HETATM    3  C10 UNL     1      22.638  -1.130  54.985  1.00  0.00     0.236 A 
HETATM    4  N3  UNL     1      23.976  -1.191  55.042  1.00  0.00    -0.241 NA
HETATM    5  C11 UNL     1      24.710  -0.489  54.164  1.00  0.00     0.075 A 
HETATM    6  C12 UNL     1      26.084  -0.519  54.170  1.00  0.00     0.072 A 
HETATM    7  C13 UNL     1      26.776   0.218  53.236  1.00  0.00     0.103 A 
HETATM    8  C15 UNL     1      26.092   0.974  52.308  1.00  0.00     0.102 A 
HETATM    9  C17 UNL     1      24.727   0.987  52.324  1.00  0.00     0.057 A 
HETATM   10  C18 UNL     1      24.015   0.260  53.249  1.00  0.00     0.041 A 
ENDROOT
BRANCH   1  11
HETATM   11  N1  UNL     1      21.829   1.131  52.311  1.00  0.00    -0.366 N 
HETATM   12  C8  UNL     1      21.417   2.518  52.247  1.00  0.00     0.151 C 
BRANCH  11  13
HETATM   13  C7  UNL     1      21.113   0.452  51.208  1.00  0.00     0.151 C 
BRANCH  13  14
HETATM   14  C6  UNL     1      19.770   1.004  51.030  1.00  0.00    -0.007 C 
HETATM   15  C5  UNL     1      18.551   0.662  51.403  1.00  0.00    -0.003 C 
BRANCH  15  16
HETATM   16  C4  UNL     1      18.299  -0.535  52.193  1.00  0.00    -0.004 C 
HETATM   17  C3  UNL     1      17.072  -1.077  52.170  1.00  0.00    -0.027 C 
BRANCH  17  18
HETATM   18  C2  UNL     1      16.610  -2.268  52.884  1.00  0.00     0.022 C 
HETATM   19  C1  UNL     1      17.744  -2.879  53.681  1.00  0.00     0.009 C 
ENDBRANCH  17  18
ENDBRANCH  15  16
ENDBRANCH  13  14
ENDBRANCH  11  13
ENDBRANCH   1  11
BRANCH   8  20
HETATM   20  O2  UNL     1      26.906   1.658  51.435  1.00  0.00    -0.353 OA
HETATM   21  C16 UNL     1      26.542   2.859  50.783  1.00  0.00     0.210 C 
ENDBRANCH   8  20
BRANCH   7  22
HETATM   22  O1  UNL     1      28.161   0.152  53.287  1.00  0.00    -0.353 OA
HETATM   23  C14 UNL     1      28.868   0.774  54.325  1.00  0.00     0.210 C 
ENDBRANCH   7  22
TORSDOF 7
ENDMDL
MODEL 9
REMARK VINA RESULT:      -6.2      2.917      5.932
REMARK  7 active torsions:
REMARK  status: ('A' for Active; 'I' for Inactive)
REMARK    1  A    between atoms: C2_2  and  C3_3 
REMARK    2  A    between atoms: C4_4  and  C5_5 
REMARK    3  A    between atoms: C6_6  and  C7_7 
REMARK    4  A    between atoms: C7_7  and  N1_8 
REMARK    5  A    between atoms: N1_8  and  C9_10 
REMARK    6  A    between atoms: C13_16  and  O1_17 
REMARK    7  A    between atoms: C15_19  and  O2_20 
ROOT
HETATM    1  C9  UNL     1      23.776   0.749  53.105  1.00  0.00     0.139 A 
HETATM    2  N2  UNL     1      23.624  -0.556  53.442  1.00  0.00    -0.224 NA
HETATM    3  C10 UNL     1      22.421  -1.140  53.498  1.00  0.00     0.236 A 
HETATM    4  N3  UNL     1      21.290  -0.473  53.227  1.00  0.00    -0.241 NA
HETATM    5  C11 UNL     1      21.350   0.824  52.887  1.00  0.00     0.075 A 
HETATM    6  C12 UNL     1      20.223   1.559  52.607  1.00  0.00     0.072 A 
HETATM    7  C13 UNL     1      20.354   2.888  52.274  1.00  0.00     0.103 A 
HETATM    8  C15 UNL     1      21.604   3.468  52.224  1.00  0.00     0.102 A 
HETATM    9  C17 UNL     1      22.707   2.716  52.508  1.00  0.00     0.057 A 
HETATM   10  C18 UNL     1      22.600   1.386  52.841  1.00  0.00     0.041 A 
ENDROOT
BRANCH   1  11
HETATM   11  N1  UNL     1      25.118   1.189  53.031  1.00  0.00    -0.366 N 
HETATM   12  C8  UNL     1      26.063   1.809  53.939  1.00  0.00     0.151 C 
BRANCH  11  13
HETATM   13  C7  UNL     1      25.825   1.083  51.735  1.00  0.00     0.151 C 
BRANCH  13  14
HETATM   14  C6  UNL     1      26.585   2.299  51.445  1.00  0.00    -0.007 C 
HETATM   15  C5  UNL     1      26.569   3.220  50.500  1.00  0.00    -0.003 C 
BRANCH  15  16
HETATM   16  C4  UNL     1      25.624   3.167  49.395  1.00  0.00    -0.004 C 
HETATM   17  C3  UNL     1      24.369   3.597  49.597  1.00  0.00    -0.027 C 
BRANCH  17  18
HETATM   18  C2  UNL     1      23.271   3.631  48.630  1.00  0.00     0.022 C 
HETATM   19  C1  UNL     1      22.433   2.375  48.740  1.00  0.00     0.009 C 
ENDBRANCH  17  18
ENDBRANCH  15  16
ENDBRANCH  13  14
ENDBRANCH  11  13
ENDBRANCH   1  11
BRANCH   8  20
HETATM   20  O2  UNL     1      21.589   4.801  51.880  1.00  0.00    -0.353 OA
HETATM   21  C16 UNL     1      22.729   5.636  51.887  1.00  0.00     0.210 C 
ENDBRANCH   8  20
BRANCH   7  22
HETATM   22  O1  UNL     1      19.185   3.584  51.999  1.00  0.00    -0.353 OA
HETATM   23  C14 UNL     1      18.051   2.915  51.520  1.00  0.00     0.210 C 
ENDBRANCH   7  22
TORSDOF 7
ENDMDL
