MODEL 1
REMARK VINA RESULT:      -9.1      0.000      0.000
REMARK  7 active torsions:
REMARK  status: ('A' for Active; 'I' for Inactive)
REMARK    1  A    between atoms: C2_2  and  O1_3 
REMARK    2  A    between atoms: O1_3  and  C3_4 
REMARK    3  A    between atoms: C8_9  and  N1_10 
REMARK    4  A    between atoms: N1_10  and  C9_11 
REMARK    5  A    between atoms: C10_12  and  C11_13 
REMARK       I    between atoms: C11_13  and  N2_15 
REMARK    6  A    between atoms: N2_15  and  C12_16 
REMARK    7  A    between atoms: C15_19  and  N3_20 
ROOT
HETATM    1  C9  UNL     1      24.293   0.331  53.457  1.00  0.00     0.053 A 
HETATM    2  C10 UNL     1      23.857   1.021  52.426  1.00  0.00     0.127 A 
HETATM    3  C22 UNL     1      22.518   0.614  52.029  1.00  0.00     0.302 A 
HETATM    4  O3  UNL     1      21.915   1.158  51.052  1.00  0.00    -0.263 OA
HETATM    5  N5  UNL     1      21.793  -0.405  52.692  1.00  0.00    -0.111 NA
HETATM    6  N6  UNL     1      22.315  -1.002  53.678  1.00  0.00    -0.183 NA
HETATM    7  C23 UNL     1      23.620  -0.745  54.221  1.00  0.00     0.232 A 
ENDROOT
BRANCH   2   8
HETATM    8  C11 UNL     1      24.520   2.076  51.688  1.00  0.00     0.263 C 
HETATM    9  O2  UNL     1      25.353   2.798  52.286  1.00  0.00    -0.267 OA
HETATM   10  N2  UNL     1      24.410   2.476  50.349  1.00  0.00    -0.323 N 
HETATM   11  H11 UNL     1      23.745   1.932  49.761  1.00  0.00     0.169 HD
BRANCH  10  12
HETATM   12  C12 UNL     1      25.191   3.570  49.858  1.00  0.00     0.035 A 
HETATM   13  C13 UNL     1      26.500   3.317  49.466  1.00  0.00     0.032 A 
HETATM   14  C14 UNL     1      27.257   4.356  48.993  1.00  0.00     0.031 A 
HETATM   15  C15 UNL     1      26.821   5.653  48.871  1.00  0.00     0.030 A 
HETATM   16  C20 UNL     1      25.515   5.823  49.278  1.00  0.00     0.031 A 
HETATM   17  C21 UNL     1      24.685   4.838  49.765  1.00  0.00     0.032 A 
BRANCH  15  18
HETATM   18  N3  UNL     1      27.639   6.710  48.372  1.00  0.00    -0.378 N 
HETATM   19  C16 UNL     1      27.132   8.049  48.339  1.00  0.00     0.153 C 
HETATM   20  C17 UNL     1      28.252   9.074  48.315  1.00  0.00     0.289 C 
HETATM   21  N4  UNL     1      29.271   8.710  47.363  1.00  0.00     0.086 N 
HETATM   22  C18 UNL     1      29.884   7.448  47.639  1.00  0.00     0.289 C 
HETATM   23  H18 UNL     1      30.012   9.450  47.425  1.00  0.00     0.316 HD
HETATM   24  C19 UNL     1      28.950   6.323  47.929  1.00  0.00     0.153 C 
ENDBRANCH  15  18
ENDBRANCH  10  12
ENDBRANCH   2   8
BRANCH   1  25
HETATM   25  N1  UNL     1      25.572   0.545  54.027  1.00  0.00    -0.355 N 
HETATM   26  H10 UNL     1      25.799   1.298  54.684  1.00  0.00     0.166 HD
BRANCH  25  27
HETATM   27  C8  UNL     1      26.615  -0.380  53.649  1.00  0.00     0.066 A 
HETATM   28  C3  UNL     1      27.903  -0.205  54.114  1.00  0.00     0.095 A 
HETATM   29  C4  UNL     1      28.893  -1.114  53.728  1.00  0.00     0.039 A 
HETATM   30  C5  UNL     1      28.630  -2.176  52.900  1.00  0.00     0.003 A 
HETATM   31  C6  UNL     1      27.350  -2.357  52.433  1.00  0.00     0.002 A 
HETATM   32  C7  UNL     1      26.382  -1.456  52.820  1.00  0.00     0.032 A 
BRANCH  28  33
HETATM   33  O1  UNL     1      28.251   0.838  54.950  1.00  0.00    -0.349 OA
BRANCH  33  34
HETATM   34  C2  UNL     1      29.200   1.811  54.551  1.00  0.00     0.171 C 
HETATM   35  C1  UNL     1      28.710   2.627  53.350  1.00  0.00     0.034 C 
ENDBRANCH  33  34
ENDBRANCH  28  33
ENDBRANCH  25  27
ENDBRANCH   1  25
TORSDOF 7
ENDMDL
MODEL 2
REMARK VINA RESULT:      -8.7      3.508      4.040
REMARK  7 active torsions:
REMARK  status: ('A' for Active; 'I' for Inactive)
REMARK    1  A    between atoms: C2_2  and  O1_3 
REMARK    2  A    between atoms: O1_3  and  C3_4 
REMARK    3  A    between atoms: C8_9  and  N1_10 
REMARK    4  A    between atoms: N1_10  and  C9_11 
REMARK    5  A    between atoms: C10_12  and  C11_13 
REMARK       I    between atoms: C11_13  and  N2_15 
REMARK    6  A    between atoms: N2_15  and  C12_16 
REMARK    7  A    between atoms: C15_19  and  N3_20 
ROOT
HETATM    1  C9  UNL     1      24.375  -0.268  54.250  1.00  0.00     0.053 A 
HETATM    2  C10 UNL     1      23.279  -0.115  53.541  1.00  0.00     0.127 A 
HETATM    3  C22 UNL     1      22.162  -0.862  54.100  1.00  0.00     0.302 A 
HETATM    4  O3  UNL     1      21.011  -0.849  53.563  1.00  0.00    -0.263 OA
HETATM    5  N5  UNL     1      22.272  -1.651  55.270  1.00  0.00    -0.111 NA
HETATM    6  N6  UNL     1      23.382  -1.723  55.873  1.00  0.00    -0.183 NA
HETATM    7  C23 UNL     1      24.595  -1.061  55.482  1.00  0.00     0.232 A 
ENDROOT
BRANCH   2   8
HETATM    8  C11 UNL     1      23.071   0.668  52.340  1.00  0.00     0.263 C 
HETATM    9  O2  UNL     1      24.069   1.008  51.662  1.00  0.00    -0.267 OA
HETATM   10  N2  UNL     1      21.898   1.151  51.745  1.00  0.00    -0.323 N 
HETATM   11  H11 UNL     1      21.007   0.917  52.230  1.00  0.00     0.169 HD
BRANCH  10  12
HETATM   12  C12 UNL     1      21.965   1.915  50.536  1.00  0.00     0.035 A 
HETATM   13  C13 UNL     1      22.140   3.290  50.639  1.00  0.00     0.032 A 
HETATM   14  C14 UNL     1      22.206   4.031  49.488  1.00  0.00     0.031 A 
HETATM   15  C15 UNL     1      22.114   3.518  48.217  1.00  0.00     0.030 A 
HETATM   16  C20 UNL     1      21.942   2.150  48.200  1.00  0.00     0.031 A 
HETATM   17  C21 UNL     1      21.864   1.330  49.303  1.00  0.00     0.032 A 
BRANCH  15  18
HETATM   18  N3  UNL     1      22.189   4.323  47.042  1.00  0.00    -0.378 N 
HETATM   19  C16 UNL     1      21.858   3.756  45.768  1.00  0.00     0.153 C 
HETATM   20  C17 UNL     1      21.465   4.824  44.763  1.00  0.00     0.289 C 
HETATM   21  N4  UNL     1      22.385   5.933  44.795  1.00  0.00     0.086 N 
HETATM   22  C18 UNL     1      22.453   6.582  46.067  1.00  0.00     0.289 C 
HETATM   23  H18 UNL     1      22.032   6.631  44.095  1.00  0.00     0.316 HD
HETATM   24  C19 UNL     1      22.607   5.682  47.246  1.00  0.00     0.153 C 
ENDBRANCH  15  18
ENDBRANCH  10  12
ENDBRANCH   2   8
BRANCH   1  25
HETATM   25  N1  UNL     1      25.596   0.361  53.906  1.00  0.00    -0.355 N 
HETATM   26  H10 UNL     1      25.739   1.375  53.862  1.00  0.00     0.166 HD
BRANCH  25  27
HETATM   27  C8  UNL     1      26.712  -0.506  53.604  1.00  0.00     0.066 A 
HETATM   28  C3  UNL     1      27.963  -0.238  54.124  1.00  0.00     0.095 A 
HETATM   29  C4  UNL     1      29.024  -1.093  53.811  1.00  0.00     0.039 A 
HETATM   30  C5  UNL     1      28.868  -2.190  53.004  1.00  0.00     0.003 A 
HETATM   31  C6  UNL     1      27.625  -2.463  52.482  1.00  0.00     0.002 A 
HETATM   32  C7  UNL     1      26.586  -1.615  52.797  1.00  0.00     0.032 A 
BRANCH  28  33
HETATM   33  O1  UNL     1      28.205   0.846  54.944  1.00  0.00    -0.349 OA
BRANCH  33  34
HETATM   34  C2  UNL     1      29.085   1.883  54.548  1.00  0.00     0.171 C 
HETATM   35  C1  UNL     1      28.584   2.609  53.295  1.00  0.00     0.034 C 
ENDBRANCH  33  34
ENDBRANCH  28  33
ENDBRANCH  25  27
ENDBRANCH   1  25
TORSDOF 7
ENDMDL
MODEL 3
REMARK VINA RESULT:      -8.4      4.505      9.375
REMARK  7 active torsions:
REMARK  status: ('A' for Active; 'I' for Inactive)
REMARK    1  A    between atoms: C2_2  and  O1_3 
REMARK    2  A    between atoms: O1_3  and  C3_4 
REMARK    3  A    between atoms: C8_9  and  N1_10 
REMARK    4  A    between atoms: N1_10  and  C9_11 
REMARK    5  A    between atoms: C10_12  and  C11_13 
REMARK       I    between atoms: C11_13  and  N2_15 
REMARK    6  A    between atoms: N2_15  and  C12_16 
REMARK    7  A    between atoms: C15_19  and  N3_20 
ROOT
HETATM    1  C9  UNL     1      24.713   0.139  53.422  1.00  0.00     0.053 A 
HETATM    2  C10 UNL     1      23.623  -0.422  53.899  1.00  0.00     0.127 A 
HETATM    3  C22 UNL     1      23.868  -1.094  55.166  1.00  0.00     0.302 A 
HETATM    4  O3  UNL     1      22.945  -1.699  55.793  1.00  0.00    -0.263 OA
HETATM    5  N5  UNL     1      25.139  -1.122  55.790  1.00  0.00    -0.111 NA
HETATM    6  N6  UNL     1      26.119  -0.544  55.237  1.00  0.00    -0.183 NA
HETATM    7  C23 UNL     1      26.080   0.171  53.992  1.00  0.00     0.232 A 
ENDROOT
BRANCH   2   8
HETATM    8  C11 UNL     1      22.288  -0.444  53.337  1.00  0.00     0.263 C 
HETATM    9  O2  UNL     1      22.109  -1.003  52.230  1.00  0.00    -0.267 OA
HETATM   10  N2  UNL     1      21.076   0.069  53.819  1.00  0.00    -0.323 N 
HETATM   11  H11 UNL     1      21.115   0.551  54.741  1.00  0.00     0.169 HD
BRANCH  10  12
HETATM   12  C12 UNL     1      19.874  -0.087  53.057  1.00  0.00     0.035 A 
HETATM   13  C13 UNL     1      18.969  -1.066  53.455  1.00  0.00     0.032 A 
HETATM   14  C14 UNL     1      17.816  -1.225  52.734  1.00  0.00     0.031 A 
HETATM   15  C15 UNL     1      17.471  -0.483  51.630  1.00  0.00     0.030 A 
HETATM   16  C20 UNL     1      18.416   0.465  51.301  1.00  0.00     0.031 A 
HETATM   17  C21 UNL     1      19.600   0.692  51.967  1.00  0.00     0.032 A 
BRANCH  15  18
HETATM   18  N3  UNL     1      16.257  -0.677  50.906  1.00  0.00    -0.378 N 
HETATM   19  C16 UNL     1      16.251  -0.544  49.479  1.00  0.00     0.153 C 
HETATM   20  C17 UNL     1      15.087  -1.292  48.851  1.00  0.00     0.289 C 
HETATM   21  N4  UNL     1      13.860  -1.038  49.562  1.00  0.00     0.086 N 
HETATM   22  C18 UNL     1      13.903  -1.438  50.934  1.00  0.00     0.289 C 
HETATM   23  H18 UNL     1      13.117  -1.605  49.084  1.00  0.00     0.316 HD
HETATM   24  C19 UNL     1      15.104  -1.000  51.700  1.00  0.00     0.153 C 
ENDBRANCH  15  18
ENDBRANCH  10  12
ENDBRANCH   2   8
BRANCH   1  25
HETATM   25  N1  UNL     1      24.727   0.852  52.198  1.00  0.00    -0.355 N 
HETATM   26  H10 UNL     1      25.179   0.526  51.338  1.00  0.00     0.166 HD
BRANCH  25  27
HETATM   27  C8  UNL     1      24.043   2.124  52.179  1.00  0.00     0.066 A 
HETATM   28  C3  UNL     1      23.097   2.393  51.211  1.00  0.00     0.095 A 
HETATM   29  C4  UNL     1      22.455   3.635  51.215  1.00  0.00     0.039 A 
HETATM   30  C5  UNL     1      22.733   4.600  52.149  1.00  0.00     0.003 A 
HETATM   31  C6  UNL     1      23.675   4.341  53.117  1.00  0.00     0.002 A 
HETATM   32  C7  UNL     1      24.301   3.113  53.104  1.00  0.00     0.032 A 
BRANCH  28  33
HETATM   33  O1  UNL     1      22.760   1.476  50.235  1.00  0.00    -0.349 OA
BRANCH  33  34
HETATM   34  C2  UNL     1      21.783   1.776  49.254  1.00  0.00     0.171 C 
HETATM   35  C1  UNL     1      22.406   1.959  47.866  1.00  0.00     0.034 C 
ENDBRANCH  33  34
ENDBRANCH  28  33
ENDBRANCH  25  27
ENDBRANCH   1  25
TORSDOF 7
ENDMDL
MODEL 4
REMARK VINA RESULT:      -8.1      2.373      3.746
REMARK  7 active torsions:
REMARK  status: ('A' for Active; 'I' for Inactive)
REMARK    1  A    between atoms: C2_2  and  O1_3 
REMARK    2  A    between atoms: O1_3  and  C3_4 
REMARK    3  A    between atoms: C8_9  and  N1_10 
REMARK    4  A    between atoms: N1_10  and  C9_11 
REMARK    5  A    between atoms: C10_12  and  C11_13 
REMARK       I    between atoms: C11_13  and  N2_15 
REMARK    6  A    between atoms: N2_15  and  C12_16 
REMARK    7  A    between atoms: C15_19  and  N3_20 
ROOT
HETATM    1  C9  UNL     1      22.321   2.229  51.679  1.00  0.00     0.053 A 
HETATM    2  C10 UNL     1      22.498   3.478  51.310  1.00  0.00     0.127 A 
HETATM    3  C22 UNL     1      21.375   4.321  51.690  1.00  0.00     0.302 A 
HETATM    4  O3  UNL     1      21.349   5.562  51.426  1.00  0.00    -0.263 OA
HETATM    5  N5  UNL     1      20.240   3.828  52.378  1.00  0.00    -0.111 NA
HETATM    6  N6  UNL     1      20.179   2.601  52.684  1.00  0.00    -0.183 NA
HETATM    7  C23 UNL     1      21.182   1.614  52.399  1.00  0.00     0.232 A 
ENDROOT
BRANCH   2   8
HETATM    8  C11 UNL     1      23.619   4.072  50.610  1.00  0.00     0.263 C 
HETATM    9  O2  UNL     1      23.808   3.769  49.409  1.00  0.00    -0.267 OA
HETATM   10  N2  UNL     1      24.597   4.980  51.037  1.00  0.00    -0.323 N 
HETATM   11  H11 UNL     1      24.525   5.302  52.025  1.00  0.00     0.169 HD
BRANCH  10  12
HETATM   12  C12 UNL     1      25.617   5.420  50.133  1.00  0.00     0.035 A 
HETATM   13  C13 UNL     1      25.709   6.780  49.862  1.00  0.00     0.032 A 
HETATM   14  C14 UNL     1      26.680   7.212  48.998  1.00  0.00     0.031 A 
HETATM   15  C15 UNL     1      27.589   6.398  48.367  1.00  0.00     0.030 A 
HETATM   16  C20 UNL     1      27.433   5.067  48.688  1.00  0.00     0.031 A 
HETATM   17  C21 UNL     1      26.487   4.546  49.542  1.00  0.00     0.032 A 
BRANCH  15  18
HETATM   18  N3  UNL     1      28.589   6.887  47.474  1.00  0.00    -0.378 N 
HETATM   19  C16 UNL     1      28.245   7.867  46.488  1.00  0.00     0.153 C 
HETATM   20  C17 UNL     1      29.462   8.648  46.025  1.00  0.00     0.289 C 
HETATM   21  N4  UNL     1      30.572   7.771  45.752  1.00  0.00     0.086 N 
HETATM   22  C18 UNL     1      30.990   7.009  46.887  1.00  0.00     0.289 C 
HETATM   23  H18 UNL     1      31.372   8.385  45.463  1.00  0.00     0.316 HD
HETATM   24  C19 UNL     1      29.902   6.330  47.648  1.00  0.00     0.153 C 
ENDBRANCH  15  18
ENDBRANCH  10  12
ENDBRANCH   2   8
BRANCH   1  25
HETATM   25  N1  UNL     1      23.278   1.217  51.420  1.00  0.00    -0.355 N 
HETATM   26  H10 UNL     1      23.291   0.627  50.582  1.00  0.00     0.166 HD
BRANCH  25  27
HETATM   27  C8  UNL     1      24.306   1.023  52.416  1.00  0.00     0.066 A 
HETATM   28  C3  UNL     1      24.211  -0.014  53.322  1.00  0.00     0.095 A 
HETATM   29  C4  UNL     1      25.219  -0.174  54.278  1.00  0.00     0.039 A 
HETATM   30  C5  UNL     1      26.301   0.665  54.349  1.00  0.00     0.003 A 
HETATM   31  C6  UNL     1      26.402   1.701  53.451  1.00  0.00     0.002 A 
HETATM   32  C7  UNL     1      25.404   1.850  52.513  1.00  0.00     0.032 A 
BRANCH  28  33
HETATM   33  O1  UNL     1      23.154  -0.903  53.319  1.00  0.00    -0.349 OA
BRANCH  33  34
HETATM   34  C2  UNL     1      22.492  -1.259  54.519  1.00  0.00     0.171 C 
HETATM   35  C1  UNL     1      21.017  -1.598  54.279  1.00  0.00     0.034 C 
ENDBRANCH  33  34
ENDBRANCH  28  33
ENDBRANCH  25  27
ENDBRANCH   1  25
TORSDOF 7
ENDMDL
MODEL 5
REMARK VINA RESULT:      -8.0      4.044      9.579
REMARK  7 active torsions:
REMARK  status: ('A' for Active; 'I' for Inactive)
REMARK    1  A    between atoms: C2_2  and  O1_3 
REMARK    2  A    between atoms: O1_3  and  C3_4 
REMARK    3  A    between atoms: C8_9  and  N1_10 
REMARK    4  A    between atoms: N1_10  and  C9_11 
REMARK    5  A    between atoms: C10_12  and  C11_13 
REMARK       I    between atoms: C11_13  and  N2_15 
REMARK    6  A    between atoms: N2_15  and  C12_16 
REMARK    7  A    between atoms: C15_19  and  N3_20 
ROOT
HETATM    1  C9  UNL     1      25.880   1.165  52.611  1.00  0.00     0.053 A 
HETATM    2  C10 UNL     1      25.235   0.402  53.466  1.00  0.00     0.127 A 
HETATM    3  C22 UNL     1      26.092  -0.032  54.559  1.00  0.00     0.302 A 
HETATM    4  O3  UNL     1      25.661  -0.777  55.492  1.00  0.00    -0.263 OA
HETATM    5  N5  UNL     1      27.453   0.340  54.665  1.00  0.00    -0.111 NA
HETATM    6  N6  UNL     1      27.969   1.083  53.779  1.00  0.00    -0.183 NA
HETATM    7  C23 UNL     1      27.291   1.613  52.629  1.00  0.00     0.232 A 
ENDROOT
BRANCH   2   8
HETATM    8  C11 UNL     1      23.852  -0.027  53.443  1.00  0.00     0.263 C 
HETATM    9  O2  UNL     1      23.468  -0.772  52.511  1.00  0.00    -0.267 OA
HETATM   10  N2  UNL     1      22.787   0.242  54.314  1.00  0.00    -0.323 N 
HETATM   11  H11 UNL     1      23.004   0.851  55.130  1.00  0.00     0.169 HD
BRANCH  10  12
HETATM   12  C12 UNL     1      21.492  -0.314  54.063  1.00  0.00     0.035 A 
HETATM   13  C13 UNL     1      20.563   0.469  53.386  1.00  0.00     0.032 A 
HETATM   14  C14 UNL     1      19.321  -0.053  53.140  1.00  0.00     0.031 A 
HETATM   15  C15 UNL     1      18.909  -1.310  53.511  1.00  0.00     0.030 A 
HETATM   16  C20 UNL     1      19.885  -2.022  54.175  1.00  0.00     0.031 A 
HETATM   17  C21 UNL     1      21.155  -1.577  54.465  1.00  0.00     0.032 A 
BRANCH  15  18
HETATM   18  N3  UNL     1      17.606  -1.820  53.235  1.00  0.00    -0.378 N 
HETATM   19  C16 UNL     1      16.606  -0.955  52.681  1.00  0.00     0.153 C 
HETATM   20  C17 UNL     1      15.521  -1.739  51.964  1.00  0.00     0.289 C 
HETATM   21  N4  UNL     1      15.085  -2.865  52.749  1.00  0.00     0.086 N 
HETATM   22  C18 UNL     1      16.130  -3.796  53.040  1.00  0.00     0.289 C 
HETATM   23  H18 UNL     1      14.359  -3.362  52.178  1.00  0.00     0.316 HD
HETATM   24  C19 UNL     1      17.402  -3.207  53.549  1.00  0.00     0.153 C 
ENDBRANCH  15  18
ENDBRANCH  10  12
ENDBRANCH   2   8
BRANCH   1  25
HETATM   25  N1  UNL     1      25.258   1.711  51.461  1.00  0.00    -0.355 N 
HETATM   26  H10 UNL     1      25.429   1.397  50.501  1.00  0.00     0.166 HD
BRANCH  25  27
HETATM   27  C8  UNL     1      24.312   2.780  51.679  1.00  0.00     0.066 A 
HETATM   28  C3  UNL     1      23.356   3.071  50.726  1.00  0.00     0.095 A 
HETATM   29  C4  UNL     1      22.457   4.115  50.963  1.00  0.00     0.039 A 
HETATM   30  C5  UNL     1      22.490   4.864  52.112  1.00  0.00     0.003 A 
HETATM   31  C6  UNL     1      23.439   4.581  53.066  1.00  0.00     0.002 A 
HETATM   32  C7  UNL     1      24.320   3.550  52.822  1.00  0.00     0.032 A 
BRANCH  28  33
HETATM   33  O1  UNL     1      23.256   2.366  49.543  1.00  0.00    -0.349 OA
BRANCH  33  34
HETATM   34  C2  UNL     1      21.999   1.939  49.048  1.00  0.00     0.171 C 
HETATM   35  C1  UNL     1      21.451   0.745  49.838  1.00  0.00     0.034 C 
ENDBRANCH  33  34
ENDBRANCH  28  33
ENDBRANCH  25  27
ENDBRANCH   1  25
TORSDOF 7
ENDMDL
MODEL 6
REMARK VINA RESULT:      -8.0      2.363      5.030
REMARK  7 active torsions:
REMARK  status: ('A' for Active; 'I' for Inactive)
REMARK    1  A    between atoms: C2_2  and  O1_3 
REMARK    2  A    between atoms: O1_3  and  C3_4 
REMARK    3  A    between atoms: C8_9  and  N1_10 
REMARK    4  A    between atoms: N1_10  and  C9_11 
REMARK    5  A    between atoms: C10_12  and  C11_13 
REMARK       I    between atoms: C11_13  and  N2_15 
REMARK    6  A    between atoms: N2_15  and  C12_16 
REMARK    7  A    between atoms: C15_19  and  N3_20 
ROOT
HETATM    1  C9  UNL     1      25.536   0.215  53.231  1.00  0.00     0.053 A 
HETATM    2  C10 UNL     1      26.102   1.379  53.003  1.00  0.00     0.127 A 
HETATM    3  C22 UNL     1      27.236   1.612  53.884  1.00  0.00     0.302 A 
HETATM    4  O3  UNL     1      27.922   2.680  53.826  1.00  0.00    -0.263 OA
HETATM    5  N5  UNL     1      27.659   0.678  54.860  1.00  0.00    -0.111 NA
HETATM    6  N6  UNL     1      27.035  -0.416  54.989  1.00  0.00    -0.183 NA
HETATM    7  C23 UNL     1      25.897  -0.830  54.217  1.00  0.00     0.232 A 
ENDROOT
BRANCH   2   8
HETATM    8  C11 UNL     1      25.745   2.393  52.032  1.00  0.00     0.263 C 
HETATM    9  O2  UNL     1      24.924   3.281  52.362  1.00  0.00    -0.267 OA
HETATM   10  N2  UNL     1      26.164   2.592  50.709  1.00  0.00    -0.323 N 
HETATM   11  H11 UNL     1      26.856   1.907  50.339  1.00  0.00     0.169 HD
BRANCH  10  12
HETATM   12  C12 UNL     1      25.651   3.691  49.949  1.00  0.00     0.035 A 
HETATM   13  C13 UNL     1      24.326   3.634  49.529  1.00  0.00     0.032 A 
HETATM   14  C14 UNL     1      23.824   4.680  48.801  1.00  0.00     0.031 A 
HETATM   15  C15 UNL     1      24.533   5.802  48.445  1.00  0.00     0.030 A 
HETATM   16  C20 UNL     1      25.834   5.782  48.898  1.00  0.00     0.031 A 
HETATM   17  C21 UNL     1      26.421   4.776  49.632  1.00  0.00     0.032 A 
BRANCH  15  18
HETATM   18  N3  UNL     1      23.973   6.872  47.686  1.00  0.00    -0.378 N 
HETATM   19  C16 UNL     1      22.740   6.678  46.982  1.00  0.00     0.153 C 
HETATM   20  C17 UNL     1      22.037   7.995  46.709  1.00  0.00     0.289 C 
HETATM   21  N4  UNL     1      22.956   8.983  46.206  1.00  0.00     0.086 N 
HETATM   22  C18 UNL     1      24.026   9.277  47.107  1.00  0.00     0.289 C 
HETATM   23  H18 UNL     1      22.401   9.863  46.066  1.00  0.00     0.316 HD
HETATM   24  C19 UNL     1      24.724   8.097  47.693  1.00  0.00     0.153 C 
ENDBRANCH  15  18
ENDBRANCH  10  12
ENDBRANCH   2   8
BRANCH   1  25
HETATM   25  N1  UNL     1      24.411  -0.239  52.499  1.00  0.00    -0.355 N 
HETATM   26  H10 UNL     1      24.454  -0.671  51.571  1.00  0.00     0.166 HD
BRANCH  25  27
HETATM   27  C8  UNL     1      23.119  -0.078  53.126  1.00  0.00     0.066 A 
HETATM   28  C3  UNL     1      22.171   0.753  52.565  1.00  0.00     0.095 A 
HETATM   29  C4  UNL     1      20.931   0.892  53.197  1.00  0.00     0.039 A 
HETATM   30  C5  UNL     1      20.623   0.232  54.359  1.00  0.00     0.003 A 
HETATM   31  C6  UNL     1      21.563  -0.597  54.925  1.00  0.00     0.002 A 
HETATM   32  C7  UNL     1      22.781  -0.727  54.293  1.00  0.00     0.032 A 
BRANCH  28  33
HETATM   33  O1  UNL     1      22.402   1.454  51.397  1.00  0.00    -0.349 OA
BRANCH  33  34
HETATM   34  C2  UNL     1      21.342   1.776  50.514  1.00  0.00     0.171 C 
HETATM   35  C1  UNL     1      21.437   0.994  49.200  1.00  0.00     0.034 C 
ENDBRANCH  33  34
ENDBRANCH  28  33
ENDBRANCH  25  27
ENDBRANCH   1  25
TORSDOF 7
ENDMDL
MODEL 7
REMARK VINA RESULT:      -8.0      4.506      7.826
REMARK  7 active torsions:
REMARK  status: ('A' for Active; 'I' for Inactive)
REMARK    1  A    between atoms: C2_2  and  O1_3 
REMARK    2  A    between atoms: O1_3  and  C3_4 
REMARK    3  A    between atoms: C8_9  and  N1_10 
REMARK    4  A    between atoms: N1_10  and  C9_11 
REMARK    5  A    between atoms: C10_12  and  C11_13 
REMARK       I    between atoms: C11_13  and  N2_15 
REMARK    6  A    between atoms: N2_15  and  C12_16 
REMARK    7  A    between atoms: C15_19  and  N3_20 
ROOT
HETATM    1  C9  UNL     1      18.623   0.602  50.353  1.00  0.00     0.053 A 
HETATM    2  C10 UNL     1      19.260   0.199  51.430  1.00  0.00     0.127 A 
HETATM    3  C22 UNL     1      18.381  -0.509  52.348  1.00  0.00     0.302 A 
HETATM    4  O3  UNL     1      18.800  -0.980  53.450  1.00  0.00    -0.263 OA
HETATM    5  N5  UNL     1      17.006  -0.725  52.085  1.00  0.00    -0.111 NA
HETATM    6  N6  UNL     1      16.500  -0.292  51.010  1.00  0.00    -0.183 NA
HETATM    7  C23 UNL     1      17.200   0.427  49.981  1.00  0.00     0.232 A 
ENDROOT
BRANCH   2   8
HETATM    8  C11 UNL     1      20.654   0.371  51.783  1.00  0.00     0.263 C 
HETATM    9  O2  UNL     1      21.532   0.029  50.956  1.00  0.00    -0.267 OA
HETATM   10  N2  UNL     1      21.257   0.878  52.942  1.00  0.00    -0.323 N 
HETATM   11  H11 UNL     1      20.611   1.198  53.693  1.00  0.00     0.169 HD
BRANCH  10  12
HETATM   12  C12 UNL     1      22.684   0.942  53.044  1.00  0.00     0.035 A 
HETATM   13  C13 UNL     1      23.353  -0.163  53.559  1.00  0.00     0.032 A 
HETATM   14  C14 UNL     1      24.718  -0.114  53.660  1.00  0.00     0.031 A 
HETATM   15  C15 UNL     1      25.496   0.956  53.287  1.00  0.00     0.030 A 
HETATM   16  C20 UNL     1      24.760   2.008  52.787  1.00  0.00     0.031 A 
HETATM   17  C21 UNL     1      23.390   2.045  52.650  1.00  0.00     0.032 A 
BRANCH  15  18
HETATM   18  N3  UNL     1      26.917   0.968  53.407  1.00  0.00    -0.378 N 
HETATM   19  C16 UNL     1      27.636   2.194  53.228  1.00  0.00     0.153 C 
HETATM   20  C17 UNL     1      28.995   2.153  53.905  1.00  0.00     0.289 C 
HETATM   21  N4  UNL     1      29.680   0.917  53.624  1.00  0.00     0.086 N 
HETATM   22  C18 UNL     1      28.972  -0.242  54.070  1.00  0.00     0.289 C 
HETATM   23  H18 UNL     1      30.591   0.958  54.143  1.00  0.00     0.316 HD
HETATM   24  C19 UNL     1      27.527  -0.298  53.707  1.00  0.00     0.153 C 
ENDBRANCH  15  18
ENDBRANCH  10  12
ENDBRANCH   2   8
BRANCH   1  25
HETATM   25  N1  UNL     1      19.267   1.315  49.312  1.00  0.00    -0.355 N 
HETATM   26  H10 UNL     1      19.631   0.891  48.453  1.00  0.00     0.166 HD
BRANCH  25  27
HETATM   27  C8  UNL     1      19.403   2.742  49.489  1.00  0.00     0.066 A 
HETATM   28  C3  UNL     1      20.649   3.335  49.436  1.00  0.00     0.095 A 
HETATM   29  C4  UNL     1      20.751   4.718  49.615  1.00  0.00     0.039 A 
HETATM   30  C5  UNL     1      19.654   5.509  49.844  1.00  0.00     0.003 A 
HETATM   31  C6  UNL     1      18.410   4.927  49.900  1.00  0.00     0.002 A 
HETATM   32  C7  UNL     1      18.321   3.563  49.721  1.00  0.00     0.032 A 
BRANCH  28  33
HETATM   33  O1  UNL     1      21.802   2.610  49.210  1.00  0.00    -0.349 OA
BRANCH  33  34
HETATM   34  C2  UNL     1      22.132   2.142  47.914  1.00  0.00     0.171 C 
HETATM   35  C1  UNL     1      21.980   3.240  46.856  1.00  0.00     0.034 C 
ENDBRANCH  33  34
ENDBRANCH  28  33
ENDBRANCH  25  27
ENDBRANCH   1  25
TORSDOF 7
ENDMDL
MODEL 8
REMARK VINA RESULT:      -7.9      2.420      3.952
REMARK  7 active torsions:
REMARK  status: ('A' for Active; 'I' for Inactive)
REMARK    1  A    between atoms: C2_2  and  O1_3 
REMARK    2  A    between atoms: O1_3  and  C3_4 
REMARK    3  A    between atoms: C8_9  and  N1_10 
REMARK    4  A    between atoms: N1_10  and  C9_11 
REMARK    5  A    between atoms: C10_12  and  C11_13 
REMARK       I    between atoms: C11_13  and  N2_15 
REMARK    6  A    between atoms: N2_15  and  C12_16 
REMARK    7  A    between atoms: C15_19  and  N3_20 
ROOT
HETATM    1  C9  UNL     1      22.992   2.145  50.600  1.00  0.00     0.053 A 
HETATM    2  C10 UNL     1      23.199   2.941  49.575  1.00  0.00     0.127 A 
HETATM    3  C22 UNL     1      22.394   2.565  48.423  1.00  0.00     0.302 A 
HETATM    4  O3  UNL     1      22.446   3.207  47.329  1.00  0.00    -0.263 OA
HETATM    5  N5  UNL     1      21.500   1.467  48.434  1.00  0.00    -0.111 NA
HETATM    6  N6  UNL     1      21.381   0.768  49.482  1.00  0.00    -0.183 NA
HETATM    7  C23 UNL     1      22.085   0.980  50.716  1.00  0.00     0.232 A 
ENDROOT
BRANCH   2   8
HETATM    8  C11 UNL     1      24.085   4.083  49.471  1.00  0.00     0.263 C 
HETATM    9  O2  UNL     1      25.319   3.901  49.590  1.00  0.00    -0.267 OA
HETATM   10  N2  UNL     1      23.818   5.441  49.247  1.00  0.00    -0.323 N 
HETATM   11  H11 UNL     1      22.816   5.698  49.128  1.00  0.00     0.169 HD
BRANCH  10  12
HETATM   12  C12 UNL     1      24.892   6.386  49.188  1.00  0.00     0.035 A 
HETATM   13  C13 UNL     1      25.199   7.101  50.340  1.00  0.00     0.032 A 
HETATM   14  C14 UNL     1      26.225   8.008  50.295  1.00  0.00     0.031 A 
HETATM   15  C15 UNL     1      26.991   8.273  49.185  1.00  0.00     0.030 A 
HETATM   16  C20 UNL     1      26.625   7.524  48.087  1.00  0.00     0.031 A 
HETATM   17  C21 UNL     1      25.610   6.595  48.043  1.00  0.00     0.032 A 
BRANCH  15  18
HETATM   18  N3  UNL     1      28.053   9.225  49.178  1.00  0.00    -0.378 N 
HETATM   19  C16 UNL     1      29.412   8.776  49.235  1.00  0.00     0.153 C 
HETATM   20  C17 UNL     1      30.371   9.815  48.681  1.00  0.00     0.289 C 
HETATM   21  N4  UNL     1      30.068  11.128  49.191  1.00  0.00     0.086 N 
HETATM   22  C18 UNL     1      28.752  11.578  48.862  1.00  0.00     0.289 C 
HETATM   23  H18 UNL     1      30.755  11.785  48.745  1.00  0.00     0.316 HD
HETATM   24  C19 UNL     1      27.652  10.603  49.113  1.00  0.00     0.153 C 
ENDBRANCH  15  18
ENDBRANCH  10  12
ENDBRANCH   2   8
BRANCH   1  25
HETATM   25  N1  UNL     1      23.662   2.309  51.837  1.00  0.00    -0.355 N 
HETATM   26  H10 UNL     1      23.481   3.068  52.502  1.00  0.00     0.166 HD
BRANCH  25  27
HETATM   27  C8  UNL     1      24.663   1.323  52.170  1.00  0.00     0.066 A 
HETATM   28  C3  UNL     1      24.398   0.354  53.118  1.00  0.00     0.095 A 
HETATM   29  C4  UNL     1      25.389  -0.585  53.423  1.00  0.00     0.039 A 
HETATM   30  C5  UNL     1      26.618  -0.577  52.814  1.00  0.00     0.003 A 
HETATM   31  C6  UNL     1      26.889   0.385  51.870  1.00  0.00     0.002 A 
HETATM   32  C7  UNL     1      25.906   1.305  51.576  1.00  0.00     0.032 A 
BRANCH  28  33
HETATM   33  O1  UNL     1      23.187   0.278  53.777  1.00  0.00    -0.349 OA
BRANCH  33  34
HETATM   34  C2  UNL     1      22.635  -0.971  54.153  1.00  0.00     0.171 C 
HETATM   35  C1  UNL     1      21.158  -0.848  54.542  1.00  0.00     0.034 C 
ENDBRANCH  33  34
ENDBRANCH  28  33
ENDBRANCH  25  27
ENDBRANCH   1  25
TORSDOF 7
ENDMDL
MODEL 9
REMARK VINA RESULT:      -7.8      2.571      5.292
REMARK  7 active torsions:
REMARK  status: ('A' for Active; 'I' for Inactive)
REMARK    1  A    between atoms: C2_2  and  O1_3 
REMARK    2  A    between atoms: O1_3  and  C3_4 
REMARK    3  A    between atoms: C8_9  and  N1_10 
REMARK    4  A    between atoms: N1_10  and  C9_11 
REMARK    5  A    between atoms: C10_12  and  C11_13 
REMARK       I    between atoms: C11_13  and  N2_15 
REMARK    6  A    between atoms: N2_15  and  C12_16 
REMARK    7  A    between atoms: C15_19  and  N3_20 
ROOT
HETATM    1  C9  UNL     1      21.681   0.543  53.722  1.00  0.00     0.053 A 
HETATM    2  C10 UNL     1      22.951   0.586  53.383  1.00  0.00     0.127 A 
HETATM    3  C22 UNL     1      23.713  -0.490  53.998  1.00  0.00     0.302 A 
HETATM    4  O3  UNL     1      24.960  -0.627  53.799  1.00  0.00    -0.263 OA
HETATM    5  N5  UNL     1      23.130  -1.456  54.853  1.00  0.00    -0.111 NA
HETATM    6  N6  UNL     1      21.892  -1.399  55.108  1.00  0.00    -0.183 NA
HETATM    7  C23 UNL     1      20.974  -0.418  54.600  1.00  0.00     0.232 A 
ENDROOT
BRANCH   2   8
HETATM    8  C11 UNL     1      23.633   1.527  52.519  1.00  0.00     0.263 C 
HETATM    9  O2  UNL     1      23.560   2.750  52.783  1.00  0.00    -0.267 OA
HETATM   10  N2  UNL     1      24.411   1.329  51.370  1.00  0.00    -0.323 N 
HETATM   11  H11 UNL     1      24.539   0.341  51.067  1.00  0.00     0.169 HD
BRANCH  10  12
HETATM   12  C12 UNL     1      24.984   2.448  50.685  1.00  0.00     0.035 A 
HETATM   13  C13 UNL     1      24.127   3.316  50.018  1.00  0.00     0.032 A 
HETATM   14  C14 UNL     1      24.664   4.390  49.360  1.00  0.00     0.031 A 
HETATM   15  C15 UNL     1      26.004   4.688  49.304  1.00  0.00     0.030 A 
HETATM   16  C20 UNL     1      26.785   3.783  49.990  1.00  0.00     0.031 A 
HETATM   17  C21 UNL     1      26.332   2.679  50.675  1.00  0.00     0.032 A 
BRANCH  15  18
HETATM   18  N3  UNL     1      26.525   5.820  48.609  1.00  0.00    -0.378 N 
HETATM   19  C16 UNL     1      25.644   6.872  48.199  1.00  0.00     0.153 C 
HETATM   20  C17 UNL     1      26.389   8.179  47.990  1.00  0.00     0.289 C 
HETATM   21  N4  UNL     1      27.598   7.974  47.235  1.00  0.00     0.086 N 
HETATM   22  C18 UNL     1      28.520   7.081  47.865  1.00  0.00     0.289 C 
HETATM   23  H18 UNL     1      28.061   8.913  47.156  1.00  0.00     0.316 HD
HETATM   24  C19 UNL     1      27.942   5.803  48.370  1.00  0.00     0.153 C 
ENDBRANCH  15  18
ENDBRANCH  10  12
ENDBRANCH   2   8
BRANCH   1  25
HETATM   25  N1  UNL     1      20.737   1.487  53.249  1.00  0.00    -0.355 N 
HETATM   26  H10 UNL     1      20.663   2.454  53.581  1.00  0.00     0.166 HD
BRANCH  25  27
HETATM   27  C8  UNL     1      19.826   1.038  52.222  1.00  0.00     0.066 A 
HETATM   28  C3  UNL     1      19.934   1.524  50.934  1.00  0.00     0.095 A 
HETATM   29  C4  UNL     1      19.036   1.074  49.962  1.00  0.00     0.039 A 
HETATM   30  C5  UNL     1      18.048   0.165  50.242  1.00  0.00     0.003 A 
HETATM   31  C6  UNL     1      17.933  -0.323  51.522  1.00  0.00     0.002 A 
HETATM   32  C7  UNL     1      18.824   0.127  52.473  1.00  0.00     0.032 A 
BRANCH  28  33
HETATM   33  O1  UNL     1      20.901   2.441  50.570  1.00  0.00    -0.349 OA
BRANCH  33  34
HETATM   34  C2  UNL     1      20.556   3.769  50.221  1.00  0.00     0.171 C 
HETATM   35  C1  UNL     1      20.923   4.764  51.328  1.00  0.00     0.034 C 
ENDBRANCH  33  34
ENDBRANCH  28  33
ENDBRANCH  25  27
ENDBRANCH   1  25
TORSDOF 7
ENDMDL
