MODEL 1
REMARK VINA RESULT:      -9.4      0.000      0.000
REMARK  6 active torsions:
REMARK  status: ('A' for Active; 'I' for Inactive)
REMARK    1  A    between atoms: C2_2  and  C3_3 
REMARK    2  A    between atoms: C7_7  and  N1_8 
REMARK    3  A    between atoms: N1_8  and  C8_9 
REMARK    4  A    between atoms: N4_19  and  C16_20 
REMARK    5  A    between atoms: C16_20  and  C17_21 
REMARK    6  A    between atoms: C17_21  and  N5_22 
ROOT
HETATM    1  C8  UNL     1      24.211  -0.279  53.771  1.00  0.00     0.142 A 
HETATM    2  N2  UNL     1      24.492  -0.913  54.903  1.00  0.00    -0.224 NA
HETATM    3  C9  UNL     1      23.625  -1.526  55.684  1.00  0.00     0.236 A 
HETATM    4  N3  UNL     1      22.321  -1.558  55.378  1.00  0.00    -0.241 NA
HETATM    5  C10 UNL     1      21.933  -0.932  54.229  1.00  0.00     0.075 A 
HETATM    6  C11 UNL     1      20.587  -0.984  53.945  1.00  0.00     0.071 A 
HETATM    7  C12 UNL     1      20.105  -0.380  52.807  1.00  0.00     0.098 A 
HETATM    8  C13 UNL     1      20.999   0.264  51.981  1.00  0.00     0.071 A 
HETATM    9  C14 UNL     1      22.334   0.282  52.320  1.00  0.00     0.050 A 
HETATM   10  C15 UNL     1      22.876  -0.303  53.444  1.00  0.00     0.041 A 
HETATM   11  N4  UNL     1      20.506   0.892  50.803  1.00  0.00    -0.312 N 
HETATM   12  C22 UNL     1      19.095   0.818  50.544  1.00  0.00     0.248 C 
HETATM   13  O1  UNL     1      18.565   1.521  49.628  1.00  0.00    -0.271 OA
HETATM   14  C23 UNL     1      18.181  -0.065  51.307  1.00  0.00     0.279 C 
HETATM   15  O2  UNL     1      18.753  -0.454  52.557  1.00  0.00    -0.340 OA
ENDROOT
BRANCH   1  16
HETATM   16  N1  UNL     1      25.117   0.386  52.918  1.00  0.00    -0.340 N 
HETATM   17  H9  UNL     1      24.842   0.726  51.978  1.00  0.00     0.167 HD
BRANCH  16  18
HETATM   18  C7  UNL     1      26.476   0.685  53.178  1.00  0.00     0.034 A 
HETATM   19  C6  UNL     1      26.934   1.948  53.392  1.00  0.00     0.029 A 
HETATM   20  C5  UNL     1      28.249   2.278  53.640  1.00  0.00     0.003 A 
HETATM   21  C4  UNL     1      29.210   1.288  53.681  1.00  0.00     0.007 A 
HETATM   22  C3  UNL     1      28.799  -0.009  53.470  1.00  0.00    -0.056 A 
HETATM   23  C24 UNL     1      27.470  -0.269  53.228  1.00  0.00     0.036 A 
BRANCH  22  24
HETATM   24  C2  UNL     1      29.773  -1.130  53.498  1.00  0.00     0.034 C 
HETATM   25  C1  UNL     1      29.104  -2.435  53.220  1.00  0.00     0.010 C 
ENDBRANCH  22  24
ENDBRANCH  16  18
ENDBRANCH   1  16
BRANCH  11  26
HETATM   26  C16 UNL     1      21.379   1.576  49.907  1.00  0.00     0.162 C 
BRANCH  26  27
HETATM   27  C17 UNL     1      21.206   3.069  50.080  1.00  0.00     0.292 C 
BRANCH  27  28
HETATM   28  N5  UNL     1      22.488   3.766  50.138  1.00  0.00     0.090 N 
HETATM   29  C18 UNL     1      23.586   2.872  49.849  1.00  0.00     0.272 C 
HETATM   30  C19 UNL     1      24.714   3.245  50.788  1.00  0.00     0.032 C 
HETATM   31  C20 UNL     1      23.946   3.674  52.019  1.00  0.00     0.032 C 
HETATM   32  C21 UNL     1      22.649   4.245  51.493  1.00  0.00     0.272 C 
ENDBRANCH  27  28
ENDBRANCH  26  27
ENDBRANCH  11  26
TORSDOF 6
ENDMDL
MODEL 2
REMARK VINA RESULT:      -9.1      1.822      2.406
REMARK  6 active torsions:
REMARK  status: ('A' for Active; 'I' for Inactive)
REMARK    1  A    between atoms: C2_2  and  C3_3 
REMARK    2  A    between atoms: C7_7  and  N1_8 
REMARK    3  A    between atoms: N1_8  and  C8_9 
REMARK    4  A    between atoms: N4_19  and  C16_20 
REMARK    5  A    between atoms: C16_20  and  C17_21 
REMARK    6  A    between atoms: C17_21  and  N5_22 
ROOT
HETATM    1  C8  UNL     1      24.235   0.313  53.045  1.00  0.00     0.142 A 
HETATM    2  N2  UNL     1      24.138  -0.679  53.921  1.00  0.00    -0.224 NA
HETATM    3  C9  UNL     1      23.047  -1.037  54.569  1.00  0.00     0.236 A 
HETATM    4  N3  UNL     1      21.888  -0.391  54.382  1.00  0.00    -0.241 NA
HETATM    5  C10 UNL     1      21.887   0.647  53.498  1.00  0.00     0.075 A 
HETATM    6  C11 UNL     1      20.681   1.289  53.331  1.00  0.00     0.071 A 
HETATM    7  C12 UNL     1      20.586   2.348  52.458  1.00  0.00     0.098 A 
HETATM    8  C13 UNL     1      21.717   2.733  51.773  1.00  0.00     0.071 A 
HETATM    9  C14 UNL     1      22.895   2.052  51.985  1.00  0.00     0.050 A 
HETATM   10  C15 UNL     1      23.053   0.987  52.843  1.00  0.00     0.041 A 
HETATM   11  N4  UNL     1      21.624   3.830  50.870  1.00  0.00    -0.312 N 
HETATM   12  C22 UNL     1      20.349   4.474  50.726  1.00  0.00     0.248 C 
HETATM   13  O1  UNL     1      20.244   5.574  50.097  1.00  0.00    -0.271 OA
HETATM   14  C23 UNL     1      19.096   3.914  51.284  1.00  0.00     0.279 C 
HETATM   15  O2  UNL     1      19.362   2.963  52.317  1.00  0.00    -0.340 OA
ENDROOT
BRANCH   1  16
HETATM   16  N1  UNL     1      25.387   0.719  52.340  1.00  0.00    -0.340 N 
HETATM   17  H9  UNL     1      25.364   0.943  51.328  1.00  0.00     0.167 HD
BRANCH  16  18
HETATM   18  C7  UNL     1      26.695   0.880  52.856  1.00  0.00     0.034 A 
HETATM   19  C6  UNL     1      27.203   2.083  53.238  1.00  0.00     0.029 A 
HETATM   20  C5  UNL     1      28.473   2.280  53.737  1.00  0.00     0.003 A 
HETATM   21  C4  UNL     1      29.331   1.207  53.877  1.00  0.00     0.007 A 
HETATM   22  C3  UNL     1      28.865  -0.034  53.504  1.00  0.00    -0.056 A 
HETATM   23  C24 UNL     1      27.586  -0.160  53.013  1.00  0.00     0.036 A 
BRANCH  22  24
HETATM   24  C2  UNL     1      29.727  -1.237  53.623  1.00  0.00     0.034 C 
HETATM   25  C1  UNL     1      28.998  -2.470  53.201  1.00  0.00     0.010 C 
ENDBRANCH  22  24
ENDBRANCH  16  18
ENDBRANCH   1  16
BRANCH  11  26
HETATM   26  C16 UNL     1      22.758   4.279  50.132  1.00  0.00     0.162 C 
BRANCH  26  27
HETATM   27  C17 UNL     1      23.392   5.450  50.849  1.00  0.00     0.292 C 
BRANCH  27  28
HETATM   28  N5  UNL     1      24.840   5.489  50.664  1.00  0.00     0.090 N 
HETATM   29  C18 UNL     1      25.188   5.987  49.353  1.00  0.00     0.272 C 
HETATM   30  C19 UNL     1      26.364   5.165  48.870  1.00  0.00     0.032 C 
HETATM   31  C20 UNL     1      26.055   3.816  49.482  1.00  0.00     0.032 C 
HETATM   32  C21 UNL     1      25.317   4.127  50.763  1.00  0.00     0.272 C 
ENDBRANCH  27  28
ENDBRANCH  26  27
ENDBRANCH  11  26
TORSDOF 6
ENDMDL
MODEL 3
REMARK VINA RESULT:      -9.0      2.403      5.441
REMARK  6 active torsions:
REMARK  status: ('A' for Active; 'I' for Inactive)
REMARK    1  A    between atoms: C2_2  and  C3_3 
REMARK    2  A    between atoms: C7_7  and  N1_8 
REMARK    3  A    between atoms: N1_8  and  C8_9 
REMARK    4  A    between atoms: N4_19  and  C16_20 
REMARK    5  A    between atoms: C16_20  and  C17_21 
REMARK    6  A    between atoms: C17_21  and  N5_22 
ROOT
HETATM    1  C8  UNL     1      26.680   2.073  51.931  1.00  0.00     0.142 A 
HETATM    2  N2  UNL     1      27.905   2.381  52.338  1.00  0.00    -0.224 NA
HETATM    3  C9  UNL     1      28.475   1.977  53.457  1.00  0.00     0.236 A 
HETATM    4  N3  UNL     1      27.824   1.180  54.316  1.00  0.00    -0.241 NA
HETATM    5  C10 UNL     1      26.554   0.808  53.983  1.00  0.00     0.075 A 
HETATM    6  C11 UNL     1      25.915  -0.009  54.887  1.00  0.00     0.071 A 
HETATM    7  C12 UNL     1      24.631  -0.435  54.635  1.00  0.00     0.098 A 
HETATM    8  C13 UNL     1      24.023  -0.022  53.470  1.00  0.00     0.071 A 
HETATM    9  C14 UNL     1      24.715   0.798  52.605  1.00  0.00     0.050 A 
HETATM   10  C15 UNL     1      25.999   1.256  52.802  1.00  0.00     0.041 A 
HETATM   11  N4  UNL     1      22.695  -0.457  53.205  1.00  0.00    -0.312 N 
HETATM   12  C22 UNL     1      22.061  -1.307  54.174  1.00  0.00     0.248 C 
HETATM   13  O1  UNL     1      20.819  -1.565  54.099  1.00  0.00    -0.271 OA
HETATM   14  C23 UNL     1      22.795  -1.930  55.301  1.00  0.00     0.279 C 
HETATM   15  O2  UNL     1      24.025  -1.252  55.563  1.00  0.00    -0.340 OA
ENDROOT
BRANCH   1  16
HETATM   16  N1  UNL     1      26.046   2.491  50.742  1.00  0.00    -0.340 N 
HETATM   17  H9  UNL     1      25.410   1.871  50.209  1.00  0.00     0.167 HD
BRANCH  16  18
HETATM   18  C7  UNL     1      26.162   3.751  50.107  1.00  0.00     0.034 A 
HETATM   19  C6  UNL     1      27.140   4.045  49.208  1.00  0.00     0.029 A 
HETATM   20  C5  UNL     1      27.290   5.261  48.576  1.00  0.00     0.003 A 
HETATM   21  C4  UNL     1      26.408   6.289  48.844  1.00  0.00     0.007 A 
HETATM   22  C3  UNL     1      25.399   6.042  49.748  1.00  0.00    -0.056 A 
HETATM   23  C24 UNL     1      25.306   4.806  50.343  1.00  0.00     0.036 A 
BRANCH  22  24
HETATM   24  C2  UNL     1      24.410   7.097  50.090  1.00  0.00     0.034 C 
HETATM   25  C1  UNL     1      23.328   6.560  50.968  1.00  0.00     0.010 C 
ENDBRANCH  22  24
ENDBRANCH  16  18
ENDBRANCH   1  16
BRANCH  11  26
HETATM   26  C16 UNL     1      22.009  -0.065  52.018  1.00  0.00     0.162 C 
BRANCH  26  27
HETATM   27  C17 UNL     1      21.381   1.295  52.228  1.00  0.00     0.292 C 
BRANCH  27  28
HETATM   28  N5  UNL     1      21.068   1.956  50.964  1.00  0.00     0.090 N 
HETATM   29  C18 UNL     1      20.907   0.996  49.895  1.00  0.00     0.272 C 
HETATM   30  C19 UNL     1      21.543   1.603  48.662  1.00  0.00     0.032 C 
HETATM   31  C20 UNL     1      22.689   2.382  49.271  1.00  0.00     0.032 C 
HETATM   32  C21 UNL     1      22.195   2.802  50.637  1.00  0.00     0.272 C 
ENDBRANCH  27  28
ENDBRANCH  26  27
ENDBRANCH  11  26
TORSDOF 6
ENDMDL
MODEL 4
REMARK VINA RESULT:      -9.0      2.627      5.298
REMARK  6 active torsions:
REMARK  status: ('A' for Active; 'I' for Inactive)
REMARK    1  A    between atoms: C2_2  and  C3_3 
REMARK    2  A    between atoms: C7_7  and  N1_8 
REMARK    3  A    between atoms: N1_8  and  C8_9 
REMARK    4  A    between atoms: N4_19  and  C16_20 
REMARK    5  A    between atoms: C16_20  and  C17_21 
REMARK    6  A    between atoms: C17_21  and  N5_22 
ROOT
HETATM    1  C8  UNL     1      26.742   2.080  51.916  1.00  0.00     0.142 A 
HETATM    2  N2  UNL     1      27.963   2.397  52.327  1.00  0.00    -0.224 NA
HETATM    3  C9  UNL     1      28.527   2.009  53.455  1.00  0.00     0.236 A 
HETATM    4  N3  UNL     1      27.873   1.220  54.318  1.00  0.00    -0.241 NA
HETATM    5  C10 UNL     1      26.606   0.839  53.982  1.00  0.00     0.075 A 
HETATM    6  C11 UNL     1      25.964   0.031  54.891  1.00  0.00     0.071 A 
HETATM    7  C12 UNL     1      24.683  -0.402  54.636  1.00  0.00     0.098 A 
HETATM    8  C13 UNL     1      24.082  -0.005  53.462  1.00  0.00     0.071 A 
HETATM    9  C14 UNL     1      24.777   0.806  52.592  1.00  0.00     0.050 A 
HETATM   10  C15 UNL     1      26.058   1.271  52.792  1.00  0.00     0.041 A 
HETATM   11  N4  UNL     1      22.757  -0.448  53.193  1.00  0.00    -0.312 N 
HETATM   12  C22 UNL     1      22.120  -1.289  54.168  1.00  0.00     0.248 C 
HETATM   13  O1  UNL     1      20.879  -1.552  54.088  1.00  0.00    -0.271 OA
HETATM   14  C23 UNL     1      22.848  -1.896  55.307  1.00  0.00     0.279 C 
HETATM   15  O2  UNL     1      24.074  -1.211  55.569  1.00  0.00    -0.340 OA
ENDROOT
BRANCH   1  16
HETATM   16  N1  UNL     1      26.115   2.482  50.718  1.00  0.00    -0.340 N 
HETATM   17  H9  UNL     1      25.645   1.807  50.088  1.00  0.00     0.167 HD
BRANCH  16  18
HETATM   18  C7  UNL     1      26.024   3.795  50.197  1.00  0.00     0.034 A 
HETATM   19  C6  UNL     1      24.968   4.620  50.434  1.00  0.00     0.029 A 
HETATM   20  C5  UNL     1      24.841   5.900  49.938  1.00  0.00     0.003 A 
HETATM   21  C4  UNL     1      25.833   6.429  49.136  1.00  0.00     0.007 A 
HETATM   22  C3  UNL     1      26.925   5.634  48.867  1.00  0.00    -0.056 A 
HETATM   23  C24 UNL     1      26.989   4.365  49.393  1.00  0.00     0.036 A 
BRANCH  22  24
HETATM   24  C2  UNL     1      28.034   6.130  48.011  1.00  0.00     0.034 C 
HETATM   25  C1  UNL     1      29.277   5.329  48.217  1.00  0.00     0.010 C 
ENDBRANCH  22  24
ENDBRANCH  16  18
ENDBRANCH   1  16
BRANCH  11  26
HETATM   26  C16 UNL     1      22.078  -0.072  51.997  1.00  0.00     0.162 C 
BRANCH  26  27
HETATM   27  C17 UNL     1      21.350   1.234  52.223  1.00  0.00     0.292 C 
BRANCH  27  28
HETATM   28  N5  UNL     1      20.991   1.887  50.967  1.00  0.00     0.090 N 
HETATM   29  C18 UNL     1      20.708   0.917  49.934  1.00  0.00     0.272 C 
HETATM   30  C19 UNL     1      21.293   1.463  48.649  1.00  0.00     0.032 C 
HETATM   31  C20 UNL     1      22.517   2.189  49.164  1.00  0.00     0.032 C 
HETATM   32  C21 UNL     1      22.138   2.661  50.549  1.00  0.00     0.272 C 
ENDBRANCH  27  28
ENDBRANCH  26  27
ENDBRANCH  11  26
TORSDOF 6
ENDMDL
MODEL 5
REMARK VINA RESULT:      -9.0      2.811      6.222
REMARK  6 active torsions:
REMARK  status: ('A' for Active; 'I' for Inactive)
REMARK    1  A    between atoms: C2_2  and  C3_3 
REMARK    2  A    between atoms: C7_7  and  N1_8 
REMARK    3  A    between atoms: N1_8  and  C8_9 
REMARK    4  A    between atoms: N4_19  and  C16_20 
REMARK    5  A    between atoms: C16_20  and  C17_21 
REMARK    6  A    between atoms: C17_21  and  N5_22 
ROOT
HETATM    1  C8  UNL     1      23.764   2.869  49.570  1.00  0.00     0.142 A 
HETATM    2  N2  UNL     1      22.984   3.278  48.578  1.00  0.00    -0.224 NA
HETATM    3  C9  UNL     1      21.721   2.945  48.396  1.00  0.00     0.236 A 
HETATM    4  N3  UNL     1      21.093   2.122  49.247  1.00  0.00    -0.241 NA
HETATM    5  C10 UNL     1      21.815   1.647  50.303  1.00  0.00     0.075 A 
HETATM    6  C11 UNL     1      21.140   0.804  51.157  1.00  0.00     0.071 A 
HETATM    7  C12 UNL     1      21.788   0.276  52.250  1.00  0.00     0.098 A 
HETATM    8  C13 UNL     1      23.107   0.616  52.454  1.00  0.00     0.071 A 
HETATM    9  C14 UNL     1      23.728   1.464  51.562  1.00  0.00     0.050 A 
HETATM   10  C15 UNL     1      23.133   2.023  50.453  1.00  0.00     0.041 A 
HETATM   11  N4  UNL     1      23.782   0.072  53.582  1.00  0.00    -0.312 N 
HETATM   12  C22 UNL     1      23.044  -0.805  54.447  1.00  0.00     0.248 C 
HETATM   13  O1  UNL     1      23.636  -1.478  55.348  1.00  0.00    -0.271 OA
HETATM   14  C23 UNL     1      21.576  -0.980  54.353  1.00  0.00     0.279 C 
HETATM   15  O2  UNL     1      21.079  -0.561  53.081  1.00  0.00    -0.340 OA
ENDROOT
BRANCH   1  16
HETATM   16  N1  UNL     1      25.115   3.207  49.789  1.00  0.00    -0.340 N 
HETATM   17  H9  UNL     1      25.752   2.607  50.344  1.00  0.00     0.167 HD
BRANCH  16  18
HETATM   18  C7  UNL     1      25.797   4.355  49.320  1.00  0.00     0.034 A 
HETATM   19  C6  UNL     1      25.192   5.561  49.143  1.00  0.00     0.029 A 
HETATM   20  C5  UNL     1      25.820   6.698  48.680  1.00  0.00     0.003 A 
HETATM   21  C4  UNL     1      27.162   6.660  48.359  1.00  0.00     0.007 A 
HETATM   22  C3  UNL     1      27.821   5.461  48.519  1.00  0.00    -0.056 A 
HETATM   23  C24 UNL     1      27.135   4.364  48.985  1.00  0.00     0.036 A 
BRANCH  22  24
HETATM   24  C2  UNL     1      29.266   5.339  48.194  1.00  0.00     0.034 C 
HETATM   25  C1  UNL     1      29.788   6.589  47.567  1.00  0.00     0.010 C 
ENDBRANCH  22  24
ENDBRANCH  16  18
ENDBRANCH   1  16
BRANCH  11  26
HETATM   26  C16 UNL     1      25.148   0.383  53.848  1.00  0.00     0.162 C 
BRANCH  26  27
HETATM   27  C17 UNL     1      26.034  -0.669  53.219  1.00  0.00     0.292 C 
BRANCH  27  28
HETATM   28  N5  UNL     1      27.376  -0.163  52.945  1.00  0.00     0.090 N 
HETATM   29  C18 UNL     1      28.378  -1.176  53.186  1.00  0.00     0.272 C 
HETATM   30  C19 UNL     1      29.559  -0.480  53.829  1.00  0.00     0.032 C 
HETATM   31  C20 UNL     1      28.866   0.590  54.644  1.00  0.00     0.032 C 
HETATM   32  C21 UNL     1      27.615   0.927  53.865  1.00  0.00     0.272 C 
ENDBRANCH  27  28
ENDBRANCH  26  27
ENDBRANCH  11  26
TORSDOF 6
ENDMDL
MODEL 6
REMARK VINA RESULT:      -8.6      1.962      4.861
REMARK  6 active torsions:
REMARK  status: ('A' for Active; 'I' for Inactive)
REMARK    1  A    between atoms: C2_2  and  C3_3 
REMARK    2  A    between atoms: C7_7  and  N1_8 
REMARK    3  A    between atoms: N1_8  and  C8_9 
REMARK    4  A    between atoms: N4_19  and  C16_20 
REMARK    5  A    between atoms: C16_20  and  C17_21 
REMARK    6  A    between atoms: C17_21  and  N5_22 
ROOT
HETATM    1  C8  UNL     1      25.944   2.760  50.843  1.00  0.00     0.142 A 
HETATM    2  N2  UNL     1      26.932   3.272  50.120  1.00  0.00    -0.224 NA
HETATM    3  C9  UNL     1      26.825   4.255  49.247  1.00  0.00     0.236 A 
HETATM    4  N3  UNL     1      25.645   4.846  49.012  1.00  0.00    -0.241 NA
HETATM    5  C10 UNL     1      24.567   4.387  49.711  1.00  0.00     0.075 A 
HETATM    6  C11 UNL     1      23.372   5.015  49.444  1.00  0.00     0.071 A 
HETATM    7  C12 UNL     1      22.230   4.619  50.102  1.00  0.00     0.098 A 
HETATM    8  C13 UNL     1      22.326   3.594  51.016  1.00  0.00     0.071 A 
HETATM    9  C14 UNL     1      23.551   3.004  51.238  1.00  0.00     0.050 A 
HETATM   10  C15 UNL     1      24.726   3.356  50.612  1.00  0.00     0.041 A 
HETATM   11  N4  UNL     1      21.148   3.179  51.698  1.00  0.00    -0.312 N 
HETATM   12  C22 UNL     1      19.920   3.857  51.391  1.00  0.00     0.248 C 
HETATM   13  O1  UNL     1      18.807   3.408  51.808  1.00  0.00    -0.271 OA
HETATM   14  C23 UNL     1      19.867   5.101  50.586  1.00  0.00     0.279 C 
HETATM   15  O2  UNL     1      21.054   5.272  49.809  1.00  0.00    -0.340 OA
ENDROOT
BRANCH   1  16
HETATM   16  N1  UNL     1      26.029   1.709  51.781  1.00  0.00    -0.340 N 
HETATM   17  H9  UNL     1      25.227   1.085  51.984  1.00  0.00     0.167 HD
BRANCH  16  18
HETATM   18  C7  UNL     1      27.153   1.347  52.561  1.00  0.00     0.034 A 
HETATM   19  C6  UNL     1      27.848   2.234  53.323  1.00  0.00     0.029 A 
HETATM   20  C5  UNL     1      28.951   1.920  54.089  1.00  0.00     0.003 A 
HETATM   21  C4  UNL     1      29.423   0.623  54.116  1.00  0.00     0.007 A 
HETATM   22  C3  UNL     1      28.754  -0.314  53.361  1.00  0.00    -0.056 A 
HETATM   23  C24 UNL     1      27.660   0.066  52.619  1.00  0.00     0.036 A 
BRANCH  22  24
HETATM   24  C2  UNL     1      29.201  -1.731  53.336  1.00  0.00     0.034 C 
HETATM   25  C1  UNL     1      28.108  -2.635  52.872  1.00  0.00     0.010 C 
ENDBRANCH  22  24
ENDBRANCH  16  18
ENDBRANCH   1  16
BRANCH  11  26
HETATM   26  C16 UNL     1      21.179   2.122  52.656  1.00  0.00     0.162 C 
BRANCH  26  27
HETATM   27  C17 UNL     1      20.967   0.801  51.952  1.00  0.00     0.292 C 
BRANCH  27  28
HETATM   28  N5  UNL     1      21.099  -0.333  52.863  1.00  0.00     0.090 N 
HETATM   29  C18 UNL     1      20.863   0.063  54.232  1.00  0.00     0.272 C 
HETATM   30  C19 UNL     1      21.865  -0.689  55.084  1.00  0.00     0.032 C 
HETATM   31  C20 UNL     1      23.056  -0.755  54.153  1.00  0.00     0.032 C 
HETATM   32  C21 UNL     1      22.465  -0.799  52.763  1.00  0.00     0.272 C 
ENDBRANCH  27  28
ENDBRANCH  26  27
ENDBRANCH  11  26
TORSDOF 6
ENDMDL
MODEL 7
REMARK VINA RESULT:      -8.6      2.935      5.043
REMARK  6 active torsions:
REMARK  status: ('A' for Active; 'I' for Inactive)
REMARK    1  A    between atoms: C2_2  and  C3_3 
REMARK    2  A    between atoms: C7_7  and  N1_8 
REMARK    3  A    between atoms: N1_8  and  C8_9 
REMARK    4  A    between atoms: N4_19  and  C16_20 
REMARK    5  A    between atoms: C16_20  and  C17_21 
REMARK    6  A    between atoms: C17_21  and  N5_22 
ROOT
HETATM    1  C8  UNL     1      26.604   2.413  51.245  1.00  0.00     0.142 A 
HETATM    2  N2  UNL     1      27.673   2.524  52.023  1.00  0.00    -0.224 NA
HETATM    3  C9  UNL     1      27.758   2.148  53.284  1.00  0.00     0.236 A 
HETATM    4  N3  UNL     1      26.712   1.592  53.911  1.00  0.00    -0.241 NA
HETATM    5  C10 UNL     1      25.564   1.435  53.192  1.00  0.00     0.075 A 
HETATM    6  C11 UNL     1      24.510   0.862  53.867  1.00  0.00     0.071 A 
HETATM    7  C12 UNL     1      23.311   0.664  53.221  1.00  0.00     0.098 A 
HETATM    8  C13 UNL     1      23.208   1.052  51.903  1.00  0.00     0.071 A 
HETATM    9  C14 UNL     1      24.298   1.622  51.283  1.00  0.00     0.050 A 
HETATM   10  C15 UNL     1      25.522   1.845  51.876  1.00  0.00     0.041 A 
HETATM   11  N4  UNL     1      21.970   0.852  51.231  1.00  0.00    -0.312 N 
HETATM   12  C22 UNL     1      20.894   0.253  51.970  1.00  0.00     0.248 C 
HETATM   13  O1  UNL     1      19.714   0.231  51.498  1.00  0.00    -0.271 OA
HETATM   14  C23 UNL     1      21.080  -0.368  53.303  1.00  0.00     0.279 C 
HETATM   15  O2  UNL     1      22.281   0.087  53.929  1.00  0.00    -0.340 OA
ENDROOT
BRANCH   1  16
HETATM   16  N1  UNL     1      26.485   2.808  49.897  1.00  0.00    -0.340 N 
HETATM   17  H9  UNL     1      26.382   2.122  49.127  1.00  0.00     0.167 HD
BRANCH  16  18
HETATM   18  C7  UNL     1      26.487   4.129  49.388  1.00  0.00     0.034 A 
HETATM   19  C6  UNL     1      25.391   4.936  49.405  1.00  0.00     0.029 A 
HETATM   20  C5  UNL     1      25.353   6.224  48.912  1.00  0.00     0.003 A 
HETATM   21  C4  UNL     1      26.485   6.778  48.349  1.00  0.00     0.007 A 
HETATM   22  C3  UNL     1      27.621   6.002  48.307  1.00  0.00    -0.056 A 
HETATM   23  C24 UNL     1      27.591   4.724  48.816  1.00  0.00     0.036 A 
BRANCH  22  24
HETATM   24  C2  UNL     1      28.879   6.526  47.716  1.00  0.00     0.034 C 
HETATM   25  C1  UNL     1      30.036   5.635  48.026  1.00  0.00     0.010 C 
ENDBRANCH  22  24
ENDBRANCH  16  18
ENDBRANCH   1  16
BRANCH  11  26
HETATM   26  C16 UNL     1      21.797   1.232  49.868  1.00  0.00     0.162 C 
BRANCH  26  27
HETATM   27  C17 UNL     1      21.162   2.603  49.806  1.00  0.00     0.292 C 
BRANCH  27  28
HETATM   28  N5  UNL     1      22.070   3.604  49.252  1.00  0.00     0.090 N 
HETATM   29  C18 UNL     1      21.403   4.873  49.068  1.00  0.00     0.272 C 
HETATM   30  C19 UNL     1      21.910   5.449  47.762  1.00  0.00     0.032 C 
HETATM   31  C20 UNL     1      22.119   4.193  46.945  1.00  0.00     0.032 C 
HETATM   32  C21 UNL     1      22.483   3.127  47.951  1.00  0.00     0.272 C 
ENDBRANCH  27  28
ENDBRANCH  26  27
ENDBRANCH  11  26
TORSDOF 6
ENDMDL
MODEL 8
REMARK VINA RESULT:      -8.1      2.392      6.010
REMARK  6 active torsions:
REMARK  status: ('A' for Active; 'I' for Inactive)
REMARK    1  A    between atoms: C2_2  and  C3_3 
REMARK    2  A    between atoms: C7_7  and  N1_8 
REMARK    3  A    between atoms: N1_8  and  C8_9 
REMARK    4  A    between atoms: N4_19  and  C16_20 
REMARK    5  A    between atoms: C16_20  and  C17_21 
REMARK    6  A    between atoms: C17_21  and  N5_22 
ROOT
HETATM    1  C8  UNL     1      22.631   3.115  49.485  1.00  0.00     0.142 A 
HETATM    2  N2  UNL     1      22.201   3.582  48.319  1.00  0.00    -0.224 NA
HETATM    3  C9  UNL     1      21.060   3.274  47.734  1.00  0.00     0.236 A 
HETATM    4  N3  UNL     1      20.198   2.420  48.305  1.00  0.00    -0.241 NA
HETATM    5  C10 UNL     1      20.553   1.887  49.509  1.00  0.00     0.075 A 
HETATM    6  C11 UNL     1      19.647   1.013  50.066  1.00  0.00     0.071 A 
HETATM    7  C12 UNL     1      19.920   0.426  51.280  1.00  0.00     0.098 A 
HETATM    8  C13 UNL     1      21.108   0.738  51.903  1.00  0.00     0.071 A 
HETATM    9  C14 UNL     1      21.976   1.618  51.293  1.00  0.00     0.050 A 
HETATM   10  C15 UNL     1      21.758   2.237  50.082  1.00  0.00     0.041 A 
HETATM   11  N4  UNL     1      21.397   0.132  53.157  1.00  0.00    -0.312 N 
HETATM   12  C22 UNL     1      20.427  -0.775  53.704  1.00  0.00     0.248 C 
HETATM   13  O1  UNL     1      20.708  -1.498  54.710  1.00  0.00    -0.271 OA
HETATM   14  C23 UNL     1      19.062  -0.926  53.147  1.00  0.00     0.279 C 
HETATM   15  O2  UNL     1      18.988  -0.441  51.804  1.00  0.00    -0.340 OA
ENDROOT
BRANCH   1  16
HETATM   16  N1  UNL     1      23.845   3.425  50.132  1.00  0.00    -0.340 N 
HETATM   17  H9  UNL     1      24.040   3.136  51.108  1.00  0.00     0.167 HD
BRANCH  16  18
HETATM   18  C7  UNL     1      24.943   4.141  49.596  1.00  0.00     0.034 A 
HETATM   19  C6  UNL     1      26.201   3.630  49.520  1.00  0.00     0.029 A 
HETATM   20  C5  UNL     1      27.295   4.300  49.014  1.00  0.00     0.003 A 
HETATM   21  C4  UNL     1      27.152   5.587  48.537  1.00  0.00     0.007 A 
HETATM   22  C3  UNL     1      25.897   6.151  48.591  1.00  0.00    -0.056 A 
HETATM   23  C24 UNL     1      24.849   5.428  49.109  1.00  0.00     0.036 A 
BRANCH  22  24
HETATM   24  C2  UNL     1      25.663   7.533  48.098  1.00  0.00     0.034 C 
HETATM   25  C1  UNL     1      26.797   8.005  47.249  1.00  0.00     0.010 C 
ENDBRANCH  22  24
ENDBRANCH  16  18
ENDBRANCH   1  16
BRANCH  11  26
HETATM   26  C16 UNL     1      22.610   0.412  53.853  1.00  0.00     0.162 C 
BRANCH  26  27
HETATM   27  C17 UNL     1      23.682  -0.554  53.400  1.00  0.00     0.292 C 
BRANCH  27  28
HETATM   28  N5  UNL     1      25.019   0.028  53.492  1.00  0.00     0.090 N 
HETATM   29  C18 UNL     1      25.248   0.986  52.435  1.00  0.00     0.272 C 
HETATM   30  C19 UNL     1      26.679   0.798  51.976  1.00  0.00     0.032 C 
HETATM   31  C20 UNL     1      26.856  -0.694  52.160  1.00  0.00     0.032 C 
HETATM   32  C21 UNL     1      25.965  -1.054  53.325  1.00  0.00     0.272 C 
ENDBRANCH  27  28
ENDBRANCH  26  27
ENDBRANCH  11  26
TORSDOF 6
ENDMDL
MODEL 9
REMARK VINA RESULT:      -8.1      5.290      8.063
REMARK  6 active torsions:
REMARK  status: ('A' for Active; 'I' for Inactive)
REMARK    1  A    between atoms: C2_2  and  C3_3 
REMARK    2  A    between atoms: C7_7  and  N1_8 
REMARK    3  A    between atoms: N1_8  and  C8_9 
REMARK    4  A    between atoms: N4_19  and  C16_20 
REMARK    5  A    between atoms: C16_20  and  C17_21 
REMARK    6  A    between atoms: C17_21  and  N5_22 
ROOT
HETATM    1  C8  UNL     1      28.091   6.431  48.382  1.00  0.00     0.142 A 
HETATM    2  N2  UNL     1      28.033   7.560  47.688  1.00  0.00    -0.224 NA
HETATM    3  C9  UNL     1      26.933   8.176  47.301  1.00  0.00     0.236 A 
HETATM    4  N3  UNL     1      25.723   7.681  47.595  1.00  0.00    -0.241 NA
HETATM    5  C10 UNL     1      25.680   6.519  48.308  1.00  0.00     0.075 A 
HETATM    6  C11 UNL     1      24.422   6.038  48.592  1.00  0.00     0.071 A 
HETATM    7  C12 UNL     1      24.282   4.871  49.307  1.00  0.00     0.098 A 
HETATM    8  C13 UNL     1      25.422   4.217  49.720  1.00  0.00     0.071 A 
HETATM    9  C14 UNL     1      26.653   4.748  49.403  1.00  0.00     0.050 A 
HETATM   10  C15 UNL     1      26.857   5.910  48.691  1.00  0.00     0.041 A 
HETATM   11  N4  UNL     1      25.283   3.009  50.458  1.00  0.00    -0.312 N 
HETATM   12  C22 UNL     1      23.953   2.539  50.732  1.00  0.00     0.248 C 
HETATM   13  O1  UNL     1      23.760   1.375  51.206  1.00  0.00    -0.271 OA
HETATM   14  C23 UNL     1      22.743   3.359  50.490  1.00  0.00     0.279 C 
HETATM   15  O2  UNL     1      23.007   4.423  49.573  1.00  0.00    -0.340 OA
ENDROOT
BRANCH   1  16
HETATM   16  N1  UNL     1      29.251   5.751  48.808  1.00  0.00    -0.340 N 
HETATM   17  H9  UNL     1      29.256   5.138  49.644  1.00  0.00     0.167 HD
BRANCH  16  18
HETATM   18  C7  UNL     1      30.532   5.784  48.208  1.00  0.00     0.034 A 
HETATM   19  C6  UNL     1      31.378   6.845  48.312  1.00  0.00     0.029 A 
HETATM   20  C5  UNL     1      32.628   6.917  47.735  1.00  0.00     0.003 A 
HETATM   21  C4  UNL     1      33.101   5.859  46.985  1.00  0.00     0.007 A 
HETATM   22  C3  UNL     1      32.283   4.759  46.849  1.00  0.00    -0.056 A 
HETATM   23  C24 UNL     1      31.047   4.753  47.450  1.00  0.00     0.036 A 
BRANCH  22  24
HETATM   24  C2  UNL     1      32.721   3.581  46.056  1.00  0.00     0.034 C 
HETATM   25  C1  UNL     1      32.715   2.339  46.886  1.00  0.00     0.010 C 
ENDBRANCH  22  24
ENDBRANCH  16  18
ENDBRANCH   1  16
BRANCH  11  26
HETATM   26  C16 UNL     1      26.423   2.283  50.913  1.00  0.00     0.162 C 
BRANCH  26  27
HETATM   27  C17 UNL     1      26.480   2.335  52.424  1.00  0.00     0.292 C 
BRANCH  27  28
HETATM   28  N5  UNL     1      26.962   1.082  52.998  1.00  0.00     0.090 N 
HETATM   29  C18 UNL     1      26.794  -0.017  52.075  1.00  0.00     0.272 C 
HETATM   30  C19 UNL     1      26.359  -1.215  52.894  1.00  0.00     0.032 C 
HETATM   31  C20 UNL     1      25.527  -0.551  53.970  1.00  0.00     0.032 C 
HETATM   32  C21 UNL     1      26.152   0.810  54.165  1.00  0.00     0.272 C 
ENDBRANCH  27  28
ENDBRANCH  26  27
ENDBRANCH  11  26
TORSDOF 6
ENDMDL
