MODEL 1
REMARK VINA RESULT:      -6.8      0.000      0.000
REMARK  9 active torsions:
REMARK  status: ('A' for Active; 'I' for Inactive)
REMARK    1  A    between atoms: O1_2  and  C2_3 
REMARK    2  A    between atoms: C2_3  and  C3_4 
REMARK    3  A    between atoms: C3_4  and  O2_5 
REMARK    4  A    between atoms: C5_7  and  O3_8 
REMARK    5  A    between atoms: C5_7  and  C7_10 
REMARK    6  A    between atoms: C10_15  and  N3_16 
REMARK    7  A    between atoms: N3_16  and  C11_17 
REMARK    8  A    between atoms: C15_21  and  O4_22 
REMARK    9  A    between atoms: C17_24  and  O5_25 
ROOT
HETATM    1  C7  UNL     1      27.258   0.239  52.751  1.00  0.00     0.134 A 
HETATM    2  C8  UNL     1      28.215   0.171  53.890  1.00  0.00     0.169 A 
HETATM    3  N1  UNL     1      28.816   1.421  54.177  1.00  0.00    -0.282 NA
HETATM    4  C9  UNL     1      28.715   2.569  53.665  1.00  0.00     0.228 A 
HETATM    5  N2  UNL     1      27.824   2.689  52.565  1.00  0.00    -0.228 NA
HETATM    6  C10 UNL     1      27.197   1.592  52.203  1.00  0.00     0.118 A 
ENDROOT
BRANCH   6   7
HETATM    7  N3  UNL     1      26.351   1.861  51.072  1.00  0.00    -0.343 N 
HETATM    8  H16 UNL     1      25.779   1.082  50.619  1.00  0.00     0.167 HD
BRANCH   7   9
HETATM    9  C11 UNL     1      26.184   3.148  50.442  1.00  0.00     0.043 A 
HETATM   10  C12 UNL     1      26.927   3.586  49.435  1.00  0.00     0.008 A 
HETATM   11  C13 UNL     1      26.546   4.942  48.974  1.00  0.00     0.072 A 
HETATM   12  C14 UNL     1      25.420   5.268  49.888  1.00  0.00    -0.003 A 
HETATM   13  C15 UNL     1      24.441   5.922  50.452  1.00  0.00     0.110 A 
HETATM   14  C19 UNL     1      25.170   4.153  50.824  1.00  0.00     0.036 A 
HETATM   15  C17 UNL     1      24.181   4.825  51.387  1.00  0.00     0.115 A 
BRANCH  13  16
HETATM   16  O4  UNL     1      23.790   7.142  50.342  1.00  0.00    -0.352 OA
HETATM   17  C16 UNL     1      22.568   7.163  49.609  1.00  0.00     0.210 C 
ENDBRANCH  13  16
BRANCH  15  18
HETATM   18  O5  UNL     1      23.295   4.537  52.443  1.00  0.00    -0.352 OA
HETATM   19  C18 UNL     1      21.890   4.540  52.209  1.00  0.00     0.210 C 
ENDBRANCH  15  18
ENDBRANCH   7   9
ENDBRANCH   6   7
BRANCH   1  20
HETATM   20  C5  UNL     1      25.910  -0.317  53.062  1.00  0.00     0.090 C 
HETATM   21  C3  UNL     1      24.604   0.034  53.114  1.00  0.00     0.099 C 
BRANCH  21  22
HETATM   22  C2  UNL     1      23.530   1.049  52.951  1.00  0.00     0.234 C 
BRANCH  22  23
HETATM   23  O1  UNL     1      23.253   1.358  51.632  1.00  0.00    -0.389 OA
HETATM   24  C1  UNL     1      21.982   0.930  51.249  1.00  0.00     0.201 C 
ENDBRANCH  22  23
ENDBRANCH  21  22
BRANCH  21  25
HETATM   25  O2  UNL     1      23.798  -1.056  53.516  1.00  0.00    -0.355 OA
HETATM   26  C4  UNL     1      22.755  -0.948  54.440  1.00  0.00     0.209 C 
ENDBRANCH  21  25
BRANCH  20  27
HETATM   27  O3  UNL     1      26.258  -1.651  53.397  1.00  0.00    -0.357 OA
HETATM   28  C6  UNL     1      26.903  -2.483  52.448  1.00  0.00     0.209 C 
ENDBRANCH  20  27
ENDBRANCH   1  20
TORSDOF 9
ENDMDL
MODEL 2
REMARK VINA RESULT:      -6.6      2.428      7.206
REMARK  9 active torsions:
REMARK  status: ('A' for Active; 'I' for Inactive)
REMARK    1  A    between atoms: O1_2  and  C2_3 
REMARK    2  A    between atoms: C2_3  and  C3_4 
REMARK    3  A    between atoms: C3_4  and  O2_5 
REMARK    4  A    between atoms: C5_7  and  O3_8 
REMARK    5  A    between atoms: C5_7  and  C7_10 
REMARK    6  A    between atoms: C10_15  and  N3_16 
REMARK    7  A    between atoms: N3_16  and  C11_17 
REMARK    8  A    between atoms: C15_21  and  O4_22 
REMARK    9  A    between atoms: C17_24  and  O5_25 
ROOT
HETATM    1  C7  UNL     1      22.907   4.067  50.536  1.00  0.00     0.134 A 
HETATM    2  C8  UNL     1      21.749   4.425  49.671  1.00  0.00     0.169 A 
HETATM    3  N1  UNL     1      20.505   4.284  50.333  1.00  0.00    -0.282 NA
HETATM    4  C9  UNL     1      20.178   3.911  51.493  1.00  0.00     0.228 A 
HETATM    5  N2  UNL     1      21.244   3.545  52.358  1.00  0.00    -0.228 NA
HETATM    6  C10 UNL     1      22.456   3.639  51.858  1.00  0.00     0.118 A 
ENDROOT
BRANCH   6   7
HETATM    7  N3  UNL     1      23.423   3.219  52.835  1.00  0.00    -0.343 N 
HETATM    8  H16 UNL     1      23.858   3.921  53.511  1.00  0.00     0.167 HD
BRANCH   7   9
HETATM    9  C11 UNL     1      23.901   1.869  53.009  1.00  0.00     0.043 A 
HETATM   10  C12 UNL     1      23.176   0.785  52.771  1.00  0.00     0.008 A 
HETATM   11  C13 UNL     1      23.908  -0.477  53.031  1.00  0.00     0.072 A 
HETATM   12  C14 UNL     1      25.233   0.027  53.477  1.00  0.00    -0.003 A 
HETATM   13  C15 UNL     1      26.469   0.038  53.897  1.00  0.00     0.110 A 
HETATM   14  C19 UNL     1      25.257   1.503  53.473  1.00  0.00     0.036 A 
HETATM   15  C17 UNL     1      26.508   1.502  53.899  1.00  0.00     0.115 A 
BRANCH  13  16
HETATM   16  O4  UNL     1      27.470  -0.857  54.246  1.00  0.00    -0.352 OA
HETATM   17  C16 UNL     1      28.461  -1.140  53.261  1.00  0.00     0.210 C 
ENDBRANCH  13  16
BRANCH  15  18
HETATM   18  O5  UNL     1      27.426   2.526  54.203  1.00  0.00    -0.352 OA
HETATM   19  C18 UNL     1      28.730   2.500  53.630  1.00  0.00     0.210 C 
ENDBRANCH  15  18
ENDBRANCH   7   9
ENDBRANCH   6   7
BRANCH   1  20
HETATM   20  C5  UNL     1      23.960   5.122  50.601  1.00  0.00     0.090 C 
HETATM   21  C3  UNL     1      24.113   6.465  50.638  1.00  0.00     0.099 C 
BRANCH  21  22
HETATM   22  C2  UNL     1      23.533   7.834  50.649  1.00  0.00     0.234 C 
BRANCH  22  23
HETATM   23  O1  UNL     1      22.344   7.939  49.949  1.00  0.00    -0.389 OA
HETATM   24  C1  UNL     1      22.553   8.214  48.598  1.00  0.00     0.201 C 
ENDBRANCH  22  23
ENDBRANCH  21  22
BRANCH  21  25
HETATM   25  O2  UNL     1      25.481   6.821  50.697  1.00  0.00    -0.355 OA
HETATM   26  C4  UNL     1      26.111   7.631  49.748  1.00  0.00     0.209 C 
ENDBRANCH  21  25
BRANCH  20  27
HETATM   27  O3  UNL     1      25.125   4.314  50.628  1.00  0.00    -0.357 OA
HETATM   28  C6  UNL     1      25.418   3.442  49.549  1.00  0.00     0.209 C 
ENDBRANCH  20  27
ENDBRANCH   1  20
TORSDOF 9
ENDMDL
MODEL 3
REMARK VINA RESULT:      -6.5      2.830      6.740
REMARK  9 active torsions:
REMARK  status: ('A' for Active; 'I' for Inactive)
REMARK    1  A    between atoms: O1_2  and  C2_3 
REMARK    2  A    between atoms: C2_3  and  C3_4 
REMARK    3  A    between atoms: C3_4  and  O2_5 
REMARK    4  A    between atoms: C5_7  and  O3_8 
REMARK    5  A    between atoms: C5_7  and  C7_10 
REMARK    6  A    between atoms: C10_15  and  N3_16 
REMARK    7  A    between atoms: N3_16  and  C11_17 
REMARK    8  A    between atoms: C15_21  and  O4_22 
REMARK    9  A    between atoms: C17_24  and  O5_25 
ROOT
HETATM    1  C7  UNL     1      21.598   1.341  51.229  1.00  0.00     0.134 A 
HETATM    2  C8  UNL     1      20.366   0.515  51.093  1.00  0.00     0.169 A 
HETATM    3  N1  UNL     1      20.003  -0.131  52.301  1.00  0.00    -0.282 NA
HETATM    4  C9  UNL     1      20.509  -0.157  53.456  1.00  0.00     0.228 A 
HETATM    5  N2  UNL     1      21.694   0.605  53.638  1.00  0.00    -0.228 NA
HETATM    6  C10 UNL     1      22.133   1.259  52.585  1.00  0.00     0.118 A 
ENDROOT
BRANCH   6   7
HETATM    7  N3  UNL     1      23.341   1.963  52.914  1.00  0.00    -0.343 N 
HETATM    8  H16 UNL     1      23.307   2.907  53.411  1.00  0.00     0.167 HD
BRANCH   7   9
HETATM    9  C11 UNL     1      24.679   1.507  52.623  1.00  0.00     0.043 A 
HETATM   10  C12 UNL     1      25.398   1.919  51.588  1.00  0.00     0.008 A 
HETATM   11  C13 UNL     1      26.739   1.293  51.521  1.00  0.00     0.072 A 
HETATM   12  C14 UNL     1      26.721   0.409  52.716  1.00  0.00    -0.003 A 
HETATM   13  C15 UNL     1      27.107  -0.456  53.614  1.00  0.00     0.110 A 
HETATM   14  C19 UNL     1      25.434   0.524  53.430  1.00  0.00     0.036 A 
HETATM   15  C17 UNL     1      25.835  -0.353  54.332  1.00  0.00     0.115 A 
BRANCH  13  16
HETATM   16  O4  UNL     1      28.213  -1.239  53.915  1.00  0.00    -0.352 OA
HETATM   17  C16 UNL     1      29.495  -0.627  53.795  1.00  0.00     0.210 C 
ENDBRANCH  13  16
BRANCH  15  18
HETATM   18  O5  UNL     1      25.231  -0.906  55.478  1.00  0.00    -0.352 OA
HETATM   19  C18 UNL     1      23.894  -1.393  55.408  1.00  0.00     0.210 C 
ENDBRANCH  15  18
ENDBRANCH   7   9
ENDBRANCH   6   7
BRANCH   1  20
HETATM   20  C5  UNL     1      21.434   2.748  50.758  1.00  0.00     0.090 C 
HETATM   21  C3  UNL     1      20.544   3.766  50.751  1.00  0.00     0.099 C 
BRANCH  21  22
HETATM   22  C2  UNL     1      19.214   4.325  51.112  1.00  0.00     0.234 C 
BRANCH  22  23
HETATM   23  O1  UNL     1      18.545   3.590  52.074  1.00  0.00    -0.389 OA
HETATM   24  C1  UNL     1      17.475   2.875  51.536  1.00  0.00     0.201 C 
ENDBRANCH  22  23
ENDBRANCH  21  22
BRANCH  21  25
HETATM   25  O2  UNL     1      21.069   4.898  50.086  1.00  0.00    -0.355 OA
HETATM   26  C4  UNL     1      21.384   6.098  50.730  1.00  0.00     0.209 C 
ENDBRANCH  21  25
BRANCH  20  27
HETATM   27  O3  UNL     1      22.692   2.953  50.136  1.00  0.00    -0.357 OA
HETATM   28  C6  UNL     1      22.947   2.427  48.845  1.00  0.00     0.209 C 
ENDBRANCH  20  27
ENDBRANCH   1  20
TORSDOF 9
ENDMDL
MODEL 4
REMARK VINA RESULT:      -6.5      2.069      3.277
REMARK  9 active torsions:
REMARK  status: ('A' for Active; 'I' for Inactive)
REMARK    1  A    between atoms: O1_2  and  C2_3 
REMARK    2  A    between atoms: C2_3  and  C3_4 
REMARK    3  A    between atoms: C3_4  and  O2_5 
REMARK    4  A    between atoms: C5_7  and  O3_8 
REMARK    5  A    between atoms: C5_7  and  C7_10 
REMARK    6  A    between atoms: C10_15  and  N3_16 
REMARK    7  A    between atoms: N3_16  and  C11_17 
REMARK    8  A    between atoms: C15_21  and  O4_22 
REMARK    9  A    between atoms: C17_24  and  O5_25 
ROOT
HETATM    1  C7  UNL     1      24.262   0.753  52.715  1.00  0.00     0.134 A 
HETATM    2  C8  UNL     1      24.663  -0.513  53.388  1.00  0.00     0.169 A 
HETATM    3  N1  UNL     1      25.744  -0.339  54.287  1.00  0.00    -0.282 NA
HETATM    4  C9  UNL     1      26.438   0.658  54.624  1.00  0.00     0.228 A 
HETATM    5  N2  UNL     1      26.106   1.892  54.003  1.00  0.00    -0.228 NA
HETATM    6  C10 UNL     1      25.109   1.862  53.146  1.00  0.00     0.118 A 
ENDROOT
BRANCH   6   7
HETATM    7  N3  UNL     1      24.905   3.170  52.586  1.00  0.00    -0.343 N 
HETATM    8  H16 UNL     1      24.340   3.908  53.112  1.00  0.00     0.167 HD
BRANCH   7   9
HETATM    9  C11 UNL     1      25.407   3.620  51.311  1.00  0.00     0.043 A 
HETATM   10  C12 UNL     1      26.423   3.058  50.670  1.00  0.00     0.008 A 
HETATM   11  C13 UNL     1      26.734   3.715  49.379  1.00  0.00     0.072 A 
HETATM   12  C14 UNL     1      25.716   4.798  49.336  1.00  0.00    -0.003 A 
HETATM   13  C15 UNL     1      25.027   5.824  48.917  1.00  0.00     0.110 A 
HETATM   14  C19 UNL     1      24.865   4.760  50.541  1.00  0.00     0.036 A 
HETATM   15  C17 UNL     1      24.175   5.800  50.108  1.00  0.00     0.115 A 
BRANCH  13  16
HETATM   16  O4  UNL     1      24.982   6.691  47.835  1.00  0.00    -0.352 OA
HETATM   17  C16 UNL     1      25.990   7.697  47.765  1.00  0.00     0.210 C 
ENDBRANCH  13  16
BRANCH  15  18
HETATM   18  O5  UNL     1      23.087   6.524  50.633  1.00  0.00    -0.352 OA
HETATM   19  C18 UNL     1      23.054   7.943  50.506  1.00  0.00     0.210 C 
ENDBRANCH  15  18
ENDBRANCH   7   9
ENDBRANCH   6   7
BRANCH   1  20
HETATM   20  C5  UNL     1      22.807   1.062  52.829  1.00  0.00     0.090 C 
HETATM   21  C3  UNL     1      21.728   0.812  53.606  1.00  0.00     0.099 C 
BRANCH  21  22
HETATM   22  C2  UNL     1      21.110   0.159  54.790  1.00  0.00     0.234 C 
BRANCH  22  23
HETATM   23  O1  UNL     1      21.718  -1.030  55.149  1.00  0.00    -0.389 OA
HETATM   24  C1  UNL     1      21.425  -2.060  54.256  1.00  0.00     0.201 C 
ENDBRANCH  22  23
ENDBRANCH  21  22
BRANCH  21  25
HETATM   25  O2  UNL     1      20.577   1.463  53.105  1.00  0.00    -0.355 OA
HETATM   26  C4  UNL     1      19.531   0.798  52.461  1.00  0.00     0.209 C 
ENDBRANCH  21  25
BRANCH  20  27
HETATM   27  O3  UNL     1      22.636   1.895  51.694  1.00  0.00    -0.357 OA
HETATM   28  C6  UNL     1      22.570   1.331  50.395  1.00  0.00     0.209 C 
ENDBRANCH  20  27
ENDBRANCH   1  20
TORSDOF 9
ENDMDL
MODEL 5
REMARK VINA RESULT:      -6.4      2.825      7.081
REMARK  9 active torsions:
REMARK  status: ('A' for Active; 'I' for Inactive)
REMARK    1  A    between atoms: O1_2  and  C2_3 
REMARK    2  A    between atoms: C2_3  and  C3_4 
REMARK    3  A    between atoms: C3_4  and  O2_5 
REMARK    4  A    between atoms: C5_7  and  O3_8 
REMARK    5  A    between atoms: C5_7  and  C7_10 
REMARK    6  A    between atoms: C10_15  and  N3_16 
REMARK    7  A    between atoms: N3_16  and  C11_17 
REMARK    8  A    between atoms: C15_21  and  O4_22 
REMARK    9  A    between atoms: C17_24  and  O5_25 
ROOT
HETATM    1  C7  UNL     1      23.057   3.419  51.755  1.00  0.00     0.134 A 
HETATM    2  C8  UNL     1      23.976   3.813  52.859  1.00  0.00     0.169 A 
HETATM    3  N1  UNL     1      24.683   2.714  53.403  1.00  0.00    -0.282 NA
HETATM    4  C9  UNL     1      24.690   1.478  53.153  1.00  0.00     0.228 A 
HETATM    5  N2  UNL     1      23.822   1.044  52.116  1.00  0.00    -0.228 NA
HETATM    6  C10 UNL     1      23.110   1.977  51.524  1.00  0.00     0.118 A 
ENDROOT
BRANCH   6   7
HETATM    7  N3  UNL     1      22.270   1.390  50.517  1.00  0.00    -0.343 N 
HETATM    8  H16 UNL     1      22.632   1.236  49.525  1.00  0.00     0.167 HD
BRANCH   7   9
HETATM    9  C11 UNL     1      20.906   0.962  50.713  1.00  0.00     0.043 A 
HETATM   10  C12 UNL     1      19.946   1.097  49.808  1.00  0.00     0.008 A 
HETATM   11  C13 UNL     1      18.636   0.575  50.263  1.00  0.00     0.072 A 
HETATM   12  C14 UNL     1      18.962   0.087  51.629  1.00  0.00    -0.003 A 
HETATM   13  C15 UNL     1      18.821  -0.443  52.813  1.00  0.00     0.110 A 
HETATM   14  C19 UNL     1      20.387   0.319  51.939  1.00  0.00     0.036 A 
HETATM   15  C17 UNL     1      20.232  -0.219  53.136  1.00  0.00     0.115 A 
BRANCH  13  16
HETATM   16  O4  UNL     1      17.833  -1.020  53.598  1.00  0.00    -0.352 OA
HETATM   17  C16 UNL     1      17.790  -2.444  53.645  1.00  0.00     0.210 C 
ENDBRANCH  13  16
BRANCH  15  18
HETATM   18  O5  UNL     1      21.110  -0.446  54.213  1.00  0.00    -0.352 OA
HETATM   19  C18 UNL     1      21.609  -1.759  54.455  1.00  0.00     0.210 C 
ENDBRANCH  15  18
ENDBRANCH   7   9
ENDBRANCH   6   7
BRANCH   1  20
HETATM   20  C5  UNL     1      23.246   4.209  50.503  1.00  0.00     0.090 C 
HETATM   21  C3  UNL     1      24.200   4.841  49.782  1.00  0.00     0.099 C 
BRANCH  21  22
HETATM   22  C2  UNL     1      25.616   5.252  49.588  1.00  0.00     0.234 C 
BRANCH  22  23
HETATM   23  O1  UNL     1      26.432   4.233  49.132  1.00  0.00    -0.389 OA
HETATM   24  C1  UNL     1      26.543   3.196  50.058  1.00  0.00     0.201 C 
ENDBRANCH  22  23
ENDBRANCH  21  22
BRANCH  21  25
HETATM   25  O2  UNL     1      23.654   5.428  48.617  1.00  0.00    -0.355 OA
HETATM   26  C4  UNL     1      23.954   6.724  48.191  1.00  0.00     0.209 C 
ENDBRANCH  21  25
BRANCH  20  27
HETATM   27  O3  UNL     1      21.915   4.224  50.012  1.00  0.00    -0.357 OA
HETATM   28  C6  UNL     1      20.894   4.895  50.730  1.00  0.00     0.209 C 
ENDBRANCH  20  27
ENDBRANCH   1  20
TORSDOF 9
ENDMDL
MODEL 6
REMARK VINA RESULT:      -6.3      2.596      4.689
REMARK  9 active torsions:
REMARK  status: ('A' for Active; 'I' for Inactive)
REMARK    1  A    between atoms: O1_2  and  C2_3 
REMARK    2  A    between atoms: C2_3  and  C3_4 
REMARK    3  A    between atoms: C3_4  and  O2_5 
REMARK    4  A    between atoms: C5_7  and  O3_8 
REMARK    5  A    between atoms: C5_7  and  C7_10 
REMARK    6  A    between atoms: C10_15  and  N3_16 
REMARK    7  A    between atoms: N3_16  and  C11_17 
REMARK    8  A    between atoms: C15_21  and  O4_22 
REMARK    9  A    between atoms: C17_24  and  O5_25 
ROOT
HETATM    1  C7  UNL     1      24.346   3.845  51.888  1.00  0.00     0.134 A 
HETATM    2  C8  UNL     1      23.145   4.244  52.673  1.00  0.00     0.169 A 
HETATM    3  N1  UNL     1      22.158   4.879  51.880  1.00  0.00    -0.282 NA
HETATM    4  C9  UNL     1      22.090   5.181  50.658  1.00  0.00     0.228 A 
HETATM    5  N2  UNL     1      23.215   4.834  49.863  1.00  0.00    -0.228 NA
HETATM    6  C10 UNL     1      24.203   4.231  50.486  1.00  0.00     0.118 A 
ENDROOT
BRANCH   6   7
HETATM    7  N3  UNL     1      25.272   3.962  49.565  1.00  0.00    -0.343 N 
HETATM    8  H16 UNL     1      25.365   3.007  49.098  1.00  0.00     0.167 HD
BRANCH   7   9
HETATM    9  C11 UNL     1      26.300   4.900  49.182  1.00  0.00     0.043 A 
HETATM   10  C12 UNL     1      27.476   4.551  48.678  1.00  0.00     0.008 A 
HETATM   11  C13 UNL     1      28.347   5.710  48.370  1.00  0.00     0.072 A 
HETATM   12  C14 UNL     1      27.487   6.852  48.779  1.00  0.00    -0.003 A 
HETATM   13  C15 UNL     1      27.087   8.074  49.000  1.00  0.00     0.110 A 
HETATM   14  C19 UNL     1      26.191   6.370  49.294  1.00  0.00     0.036 A 
HETATM   15  C17 UNL     1      25.796   7.612  49.514  1.00  0.00     0.115 A 
BRANCH  13  16
HETATM   16  O4  UNL     1      27.552   9.375  48.867  1.00  0.00    -0.352 OA
HETATM   17  C16 UNL     1      28.876   9.642  49.323  1.00  0.00     0.210 C 
ENDBRANCH  13  16
BRANCH  15  18
HETATM   18  O5  UNL     1      24.612   8.172  50.031  1.00  0.00    -0.352 OA
HETATM   19  C18 UNL     1      23.596   8.625  49.140  1.00  0.00     0.210 C 
ENDBRANCH  15  18
ENDBRANCH   7   9
ENDBRANCH   6   7
BRANCH   1  20
HETATM   20  C5  UNL     1      24.726   2.412  52.054  1.00  0.00     0.090 C 
HETATM   21  C3  UNL     1      25.491   1.600  52.820  1.00  0.00     0.099 C 
BRANCH  21  22
HETATM   22  C2  UNL     1      26.444   1.401  53.944  1.00  0.00     0.234 C 
BRANCH  22  23
HETATM   23  O1  UNL     1      27.265   2.490  54.175  1.00  0.00    -0.389 OA
HETATM   24  C1  UNL     1      28.470   2.394  53.480  1.00  0.00     0.201 C 
ENDBRANCH  22  23
ENDBRANCH  21  22
BRANCH  21  25
HETATM   25  O2  UNL     1      25.382   0.253  52.402  1.00  0.00    -0.355 OA
HETATM   26  C4  UNL     1      26.432  -0.666  52.471  1.00  0.00     0.209 C 
ENDBRANCH  21  25
BRANCH  20  27
HETATM   27  O3  UNL     1      23.968   1.827  51.008  1.00  0.00    -0.357 OA
HETATM   28  C6  UNL     1      22.706   1.241  51.277  1.00  0.00     0.209 C 
ENDBRANCH  20  27
ENDBRANCH   1  20
TORSDOF 9
ENDMDL
MODEL 7
REMARK VINA RESULT:      -6.2      2.348      5.935
REMARK  9 active torsions:
REMARK  status: ('A' for Active; 'I' for Inactive)
REMARK    1  A    between atoms: O1_2  and  C2_3 
REMARK    2  A    between atoms: C2_3  and  C3_4 
REMARK    3  A    between atoms: C3_4  and  O2_5 
REMARK    4  A    between atoms: C5_7  and  O3_8 
REMARK    5  A    between atoms: C5_7  and  C7_10 
REMARK    6  A    between atoms: C10_15  and  N3_16 
REMARK    7  A    between atoms: N3_16  and  C11_17 
REMARK    8  A    between atoms: C15_21  and  O4_22 
REMARK    9  A    between atoms: C17_24  and  O5_25 
ROOT
HETATM    1  C7  UNL     1      24.614   5.492  50.713  1.00  0.00     0.134 A 
HETATM    2  C8  UNL     1      24.958   6.939  50.657  1.00  0.00     0.169 A 
HETATM    3  N1  UNL     1      25.964   7.227  49.702  1.00  0.00    -0.282 NA
HETATM    4  C9  UNL     1      26.630   6.515  48.903  1.00  0.00     0.228 A 
HETATM    5  N2  UNL     1      26.350   5.122  48.923  1.00  0.00    -0.228 NA
HETATM    6  C10 UNL     1      25.425   4.727  49.769  1.00  0.00     0.118 A 
ENDROOT
BRANCH   6   7
HETATM    7  N3  UNL     1      25.267   3.301  49.691  1.00  0.00    -0.343 N 
HETATM    8  H16 UNL     1      25.009   2.828  48.770  1.00  0.00     0.167 HD
BRANCH   7   9
HETATM    9  C11 UNL     1      25.424   2.382  50.793  1.00  0.00     0.043 A 
HETATM   10  C12 UNL     1      26.595   2.017  51.297  1.00  0.00     0.008 A 
HETATM   11  C13 UNL     1      26.474   1.063  52.425  1.00  0.00     0.072 A 
HETATM   12  C14 UNL     1      24.999   0.902  52.529  1.00  0.00    -0.003 A 
HETATM   13  C15 UNL     1      23.832   0.494  52.945  1.00  0.00     0.110 A 
HETATM   14  C19 UNL     1      24.313   1.723  51.512  1.00  0.00     0.036 A 
HETATM   15  C17 UNL     1      23.136   1.302  51.941  1.00  0.00     0.115 A 
BRANCH  13  16
HETATM   16  O4  UNL     1      23.292  -0.345  53.910  1.00  0.00    -0.352 OA
HETATM   17  C16 UNL     1      22.228  -1.202  53.504  1.00  0.00     0.210 C 
ENDBRANCH  13  16
BRANCH  15  18
HETATM   18  O5  UNL     1      21.811   1.569  51.545  1.00  0.00    -0.352 OA
HETATM   19  C18 UNL     1      20.895   2.138  52.476  1.00  0.00     0.210 C 
ENDBRANCH  15  18
ENDBRANCH   7   9
ENDBRANCH   6   7
BRANCH   1  20
HETATM   20  C5  UNL     1      23.155   5.213  50.575  1.00  0.00     0.090 C 
HETATM   21  C3  UNL     1      22.232   4.819  49.667  1.00  0.00     0.099 C 
BRANCH  21  22
HETATM   22  C2  UNL     1      21.873   4.392  48.289  1.00  0.00     0.234 C 
BRANCH  22  23
HETATM   23  O1  UNL     1      22.710   3.419  47.773  1.00  0.00    -0.389 OA
HETATM   24  C1  UNL     1      22.253   2.132  48.053  1.00  0.00     0.201 C 
ENDBRANCH  22  23
ENDBRANCH  21  22
BRANCH  21  25
HETATM   25  O2  UNL     1      20.942   4.762  50.243  1.00  0.00    -0.355 OA
HETATM   26  C4  UNL     1      19.764   4.987  49.527  1.00  0.00     0.209 C 
ENDBRANCH  21  25
BRANCH  20  27
HETATM   27  O3  UNL     1      22.719   5.492  51.895  1.00  0.00    -0.357 OA
HETATM   28  C6  UNL     1      23.338   4.861  53.003  1.00  0.00     0.209 C 
ENDBRANCH  20  27
ENDBRANCH   1  20
TORSDOF 9
ENDMDL
MODEL 8
REMARK VINA RESULT:      -6.1      1.842      2.885
REMARK  9 active torsions:
REMARK  status: ('A' for Active; 'I' for Inactive)
REMARK    1  A    between atoms: O1_2  and  C2_3 
REMARK    2  A    between atoms: C2_3  and  C3_4 
REMARK    3  A    between atoms: C3_4  and  O2_5 
REMARK    4  A    between atoms: C5_7  and  O3_8 
REMARK    5  A    between atoms: C5_7  and  C7_10 
REMARK    6  A    between atoms: C10_15  and  N3_16 
REMARK    7  A    between atoms: N3_16  and  C11_17 
REMARK    8  A    between atoms: C15_21  and  O4_22 
REMARK    9  A    between atoms: C17_24  and  O5_25 
ROOT
HETATM    1  C7  UNL     1      25.841   0.993  52.725  1.00  0.00     0.134 A 
HETATM    2  C8  UNL     1      26.341   0.918  54.126  1.00  0.00     0.169 A 
HETATM    3  N1  UNL     1      27.538   1.649  54.321  1.00  0.00    -0.282 NA
HETATM    4  C9  UNL     1      28.267   2.339  53.557  1.00  0.00     0.228 A 
HETATM    5  N2  UNL     1      27.843   2.434  52.204  1.00  0.00    -0.228 NA
HETATM    6  C10 UNL     1      26.735   1.798  51.896  1.00  0.00     0.118 A 
ENDROOT
BRANCH   6   7
HETATM    7  N3  UNL     1      26.445   1.968  50.499  1.00  0.00    -0.343 N 
HETATM    8  H16 UNL     1      26.550   1.155  49.816  1.00  0.00     0.167 HD
BRANCH   7   9
HETATM    9  C11 UNL     1      26.003   3.195  49.881  1.00  0.00     0.043 A 
HETATM   10  C12 UNL     1      26.794   4.227  49.626  1.00  0.00     0.008 A 
HETATM   11  C13 UNL     1      26.088   5.361  48.986  1.00  0.00     0.072 A 
HETATM   12  C14 UNL     1      24.699   4.838  48.889  1.00  0.00    -0.003 A 
HETATM   13  C15 UNL     1      23.423   4.775  48.624  1.00  0.00     0.110 A 
HETATM   14  C19 UNL     1      24.617   3.474  49.446  1.00  0.00     0.036 A 
HETATM   15  C17 UNL     1      23.325   3.421  49.174  1.00  0.00     0.115 A 
BRANCH  13  16
HETATM   16  O4  UNL     1      22.424   5.559  48.066  1.00  0.00    -0.352 OA
HETATM   17  C16 UNL     1      22.255   5.487  46.652  1.00  0.00     0.210 C 
ENDBRANCH  13  16
BRANCH  15  18
HETATM   18  O5  UNL     1      22.337   2.436  49.364  1.00  0.00    -0.352 OA
HETATM   19  C18 UNL     1      21.795   1.751  48.239  1.00  0.00     0.210 C 
ENDBRANCH  15  18
ENDBRANCH   7   9
ENDBRANCH   6   7
BRANCH   1  20
HETATM   20  C5  UNL     1      24.415   1.419  52.616  1.00  0.00     0.090 C 
HETATM   21  C3  UNL     1      23.159   0.919  52.597  1.00  0.00     0.099 C 
BRANCH  21  22
HETATM   22  C2  UNL     1      22.224  -0.237  52.653  1.00  0.00     0.234 C 
BRANCH  22  23
HETATM   23  O1  UNL     1      22.623  -1.231  53.529  1.00  0.00    -0.389 OA
HETATM   24  C1  UNL     1      22.196  -0.984  54.833  1.00  0.00     0.201 C 
ENDBRANCH  22  23
ENDBRANCH  21  22
BRANCH  21  25
HETATM   25  O2  UNL     1      22.201   1.950  52.455  1.00  0.00    -0.355 OA
HETATM   26  C4  UNL     1      20.822   1.744  52.544  1.00  0.00     0.209 C 
ENDBRANCH  21  25
BRANCH  20  27
HETATM   27  O3  UNL     1      24.579   2.823  52.500  1.00  0.00    -0.357 OA
HETATM   28  C6  UNL     1      24.192   3.680  53.562  1.00  0.00     0.209 C 
ENDBRANCH  20  27
ENDBRANCH   1  20
TORSDOF 9
ENDMDL
MODEL 9
REMARK VINA RESULT:      -6.1      2.687      4.997
REMARK  9 active torsions:
REMARK  status: ('A' for Active; 'I' for Inactive)
REMARK    1  A    between atoms: O1_2  and  C2_3 
REMARK    2  A    between atoms: C2_3  and  C3_4 
REMARK    3  A    between atoms: C3_4  and  O2_5 
REMARK    4  A    between atoms: C5_7  and  O3_8 
REMARK    5  A    between atoms: C5_7  and  C7_10 
REMARK    6  A    between atoms: C10_15  and  N3_16 
REMARK    7  A    between atoms: N3_16  and  C11_17 
REMARK    8  A    between atoms: C15_21  and  O4_22 
REMARK    9  A    between atoms: C17_24  and  O5_25 
ROOT
HETATM    1  C7  UNL     1      21.837   2.385  51.895  1.00  0.00     0.134 A 
HETATM    2  C8  UNL     1      20.533   2.094  52.551  1.00  0.00     0.169 A 
HETATM    3  N1  UNL     1      19.578   1.552  51.657  1.00  0.00    -0.282 NA
HETATM    4  C9  UNL     1      19.601   1.275  50.427  1.00  0.00     0.228 A 
HETATM    5  N2  UNL     1      20.819   1.545  49.747  1.00  0.00    -0.228 NA
HETATM    6  C10 UNL     1      21.792   2.048  50.474  1.00  0.00     0.118 A 
ENDROOT
BRANCH   6   7
HETATM    7  N3  UNL     1      22.946   2.286  49.652  1.00  0.00    -0.343 N 
HETATM    8  H16 UNL     1      23.541   1.474  49.297  1.00  0.00     0.167 HD
BRANCH   7   9
HETATM    9  C11 UNL     1      23.419   3.582  49.232  1.00  0.00     0.043 A 
HETATM   10  C12 UNL     1      22.655   4.508  48.668  1.00  0.00     0.008 A 
HETATM   11  C13 UNL     1      23.391   5.749  48.334  1.00  0.00     0.072 A 
HETATM   12  C14 UNL     1      24.765   5.422  48.797  1.00  0.00    -0.003 A 
HETATM   13  C15 UNL     1      26.039   5.541  49.053  1.00  0.00     0.110 A 
HETATM   14  C19 UNL     1      24.811   4.061  49.368  1.00  0.00     0.036 A 
HETATM   15  C17 UNL     1      26.102   4.193  49.622  1.00  0.00     0.115 A 
BRANCH  13  16
HETATM   16  O4  UNL     1      27.059   6.472  48.913  1.00  0.00    -0.352 OA
HETATM   17  C16 UNL     1      26.686   7.790  48.518  1.00  0.00     0.210 C 
ENDBRANCH  13  16
BRANCH  15  18
HETATM   18  O5  UNL     1      27.064   3.343  50.201  1.00  0.00    -0.352 OA
HETATM   19  C18 UNL     1      26.649   2.294  51.072  1.00  0.00     0.210 C 
ENDBRANCH  15  18
ENDBRANCH   7   9
ENDBRANCH   6   7
BRANCH   1  20
HETATM   20  C5  UNL     1      23.011   1.782  52.592  1.00  0.00     0.090 C 
HETATM   21  C3  UNL     1      23.421   0.631  53.173  1.00  0.00     0.099 C 
BRANCH  21  22
HETATM   22  C2  UNL     1      23.168  -0.777  53.576  1.00  0.00     0.234 C 
BRANCH  22  23
HETATM   23  O1  UNL     1      22.366  -0.900  54.695  1.00  0.00    -0.389 OA
HETATM   24  C1  UNL     1      21.063  -1.276  54.368  1.00  0.00     0.201 C 
ENDBRANCH  22  23
ENDBRANCH  21  22
BRANCH  21  25
HETATM   25  O2  UNL     1      24.739   0.754  53.671  1.00  0.00    -0.355 OA
HETATM   26  C4  UNL     1      25.696  -0.261  53.586  1.00  0.00     0.209 C 
ENDBRANCH  21  25
BRANCH  20  27
HETATM   27  O3  UNL     1      23.911   2.877  52.565  1.00  0.00    -0.357 OA
HETATM   28  C6  UNL     1      23.468   4.178  52.914  1.00  0.00     0.209 C 
ENDBRANCH  20  27
ENDBRANCH   1  20
TORSDOF 9
ENDMDL
