MODEL 1
REMARK VINA RESULT:      -7.7      0.000      0.000
REMARK  0 active torsions:
REMARK  status: ('A' for Active; 'I' for Inactive)
ROOT
HETATM    1  C1  UNL     1      25.164   7.716  48.929  1.00  0.00     0.052 C 
HETATM    2  C2  UNL     1      25.217   6.254  49.002  1.00  0.00    -0.009 C 
HETATM    3  C3  UNL     1      26.437   5.675  48.902  1.00  0.00     0.011 C 
HETATM    4  C4  UNL     1      26.859   4.294  49.295  1.00  0.00     0.001 C 
HETATM    5  C5  UNL     1      26.136   3.219  49.707  1.00  0.00     0.009 C 
HETATM    6  C6  UNL     1      24.696   2.862  49.777  1.00  0.00    -0.029 C 
HETATM    7  C7  UNL     1      24.671   2.303  50.985  1.00  0.00    -0.010 C 
HETATM    8  C8  UNL     1      25.727   2.087  51.992  1.00  0.00     0.072 C 
HETATM    9  C9  UNL     1      25.173   2.508  53.359  1.00  0.00     0.018 C 
HETATM   10  C10 UNL     1      24.168   3.380  53.118  1.00  0.00     0.101 C 
HETATM   11  O1  UNL     1      23.404   4.626  53.208  1.00  0.00    -0.346 OA
HETATM   12  C11 UNL     1      23.778   5.491  52.083  1.00  0.00     0.202 C 
HETATM   13  C12 UNL     1      22.641   5.861  51.206  1.00  0.00     0.204 C 
HETATM   14  O2  UNL     1      23.191   6.656  50.074  1.00  0.00    -0.332 OA
HETATM   15  C13 UNL     1      23.855   5.701  49.190  1.00  0.00     0.165 C 
HETATM   16  N1  UNL     1      23.342   4.593  48.685  1.00  0.00    -0.262 NA
HETATM   17  C14 UNL     1      23.737   3.184  48.699  1.00  0.00     0.191 C 
HETATM   18  C15 UNL     1      23.132   2.863  52.173  1.00  0.00     0.135 C 
HETATM   19  C16 UNL     1      23.634   1.682  51.888  1.00  0.00     0.112 C 
HETATM   20  O3  UNL     1      23.238   0.451  52.334  1.00  0.00    -0.345 OA
HETATM   21  C17 UNL     1      21.808   0.237  52.303  1.00  0.00     0.202 C 
HETATM   22  C18 UNL     1      21.151   1.522  51.837  1.00  0.00     0.202 C 
HETATM   23  O4  UNL     1      22.160   2.392  51.294  1.00  0.00    -0.344 OA
ENDROOT
TORSDOF 0
ENDMDL
MODEL 2
REMARK VINA RESULT:      -7.5      2.236      4.562
REMARK  0 active torsions:
REMARK  status: ('A' for Active; 'I' for Inactive)
ROOT
HETATM    1  C1  UNL     1      26.530   1.058  53.273  1.00  0.00     0.052 C 
HETATM    2  C2  UNL     1      25.910   2.012  52.351  1.00  0.00    -0.009 C 
HETATM    3  C3  UNL     1      26.581   2.291  51.208  1.00  0.00     0.011 C 
HETATM    4  C4  UNL     1      26.070   2.906  49.942  1.00  0.00     0.001 C 
HETATM    5  C5  UNL     1      24.872   3.475  49.642  1.00  0.00     0.009 C 
HETATM    6  C6  UNL     1      23.670   3.901  50.403  1.00  0.00    -0.029 C 
HETATM    7  C7  UNL     1      22.725   3.443  49.585  1.00  0.00    -0.010 C 
HETATM    8  C8  UNL     1      22.798   2.718  48.302  1.00  0.00     0.072 C 
HETATM    9  C9  UNL     1      21.803   1.552  48.357  1.00  0.00     0.018 C 
HETATM   10  C10 UNL     1      21.602   1.275  49.666  1.00  0.00     0.101 C 
HETATM   11  O1  UNL     1      21.539   0.469  50.886  1.00  0.00    -0.346 OA
HETATM   12  C11 UNL     1      22.811   0.601  51.606  1.00  0.00     0.202 C 
HETATM   13  C12 UNL     1      22.670   1.140  52.979  1.00  0.00     0.204 C 
HETATM   14  O2  UNL     1      24.040   1.298  53.539  1.00  0.00    -0.332 OA
HETATM   15  C13 UNL     1      24.611   2.478  52.893  1.00  0.00     0.165 C 
HETATM   16  N1  UNL     1      24.074   3.682  52.814  1.00  0.00    -0.262 NA
HETATM   17  C14 UNL     1      23.749   4.587  51.710  1.00  0.00     0.191 C 
HETATM   18  C15 UNL     1      21.198   2.461  50.480  1.00  0.00     0.135 C 
HETATM   19  C16 UNL     1      21.217   3.401  49.561  1.00  0.00     0.112 C 
HETATM   20  O3  UNL     1      20.164   4.004  48.928  1.00  0.00    -0.345 OA
HETATM   21  C17 UNL     1      19.087   4.400  49.809  1.00  0.00     0.202 C 
HETATM   22  C18 UNL     1      19.433   3.940  51.211  1.00  0.00     0.202 C 
HETATM   23  O4  UNL     1      20.819   3.559  51.248  1.00  0.00    -0.344 OA
ENDROOT
TORSDOF 0
ENDMDL
MODEL 3
REMARK VINA RESULT:      -7.3      7.710     10.048
REMARK  0 active torsions:
REMARK  status: ('A' for Active; 'I' for Inactive)
ROOT
HETATM    1  C1  UNL     1      28.258   9.585  45.960  1.00  0.00     0.052 C 
HETATM    2  C2  UNL     1      28.889   8.664  46.907  1.00  0.00    -0.009 C 
HETATM    3  C3  UNL     1      28.179   7.571  47.272  1.00  0.00     0.011 C 
HETATM    4  C4  UNL     1      28.661   6.301  47.901  1.00  0.00     0.001 C 
HETATM    5  C5  UNL     1      29.875   5.955  48.405  1.00  0.00     0.009 C 
HETATM    6  C6  UNL     1      31.142   6.662  48.723  1.00  0.00    -0.029 C 
HETATM    7  C7  UNL     1      32.010   5.778  48.238  1.00  0.00    -0.010 C 
HETATM    8  C8  UNL     1      31.821   4.477  47.569  1.00  0.00     0.072 C 
HETATM    9  C9  UNL     1      32.739   4.435  46.341  1.00  0.00     0.018 C 
HETATM   10  C10 UNL     1      32.991   5.721  46.002  1.00  0.00     0.101 C 
HETATM   11  O1  UNL     1      33.066   6.907  45.148  1.00  0.00    -0.346 OA
HETATM   12  C11 UNL     1      31.845   7.700  45.332  1.00  0.00     0.202 C 
HETATM   13  C12 UNL     1      32.094   9.082  45.808  1.00  0.00     0.204 C 
HETATM   14  O2  UNL     1      30.769   9.722  46.031  1.00  0.00    -0.332 OA
HETATM   15  C13 UNL     1      30.243   9.150  47.269  1.00  0.00     0.165 C 
HETATM   16  N1  UNL     1      30.853   9.083  48.438  1.00  0.00    -0.262 NA
HETATM   17  C14 UNL     1      31.177   7.995  49.362  1.00  0.00     0.191 C 
HETATM   18  C15 UNL     1      33.515   6.552  47.128  1.00  0.00     0.135 C 
HETATM   19  C16 UNL     1      33.509   5.668  48.102  1.00  0.00     0.112 C 
HETATM   20  O3  UNL     1      34.563   5.000  48.661  1.00  0.00    -0.345 OA
HETATM   21  C17 UNL     1      35.709   5.833  48.953  1.00  0.00     0.202 C 
HETATM   22  C18 UNL     1      35.409   7.236  48.463  1.00  0.00     0.202 C 
HETATM   23  O4  UNL     1      34.004   7.336  48.170  1.00  0.00    -0.344 OA
ENDROOT
TORSDOF 0
ENDMDL
MODEL 4
REMARK VINA RESULT:      -7.0      1.643      5.393
REMARK  0 active torsions:
REMARK  status: ('A' for Active; 'I' for Inactive)
ROOT
HETATM    1  C1  UNL     1      22.214   1.100  52.751  1.00  0.00     0.052 C 
HETATM    2  C2  UNL     1      22.760   1.652  51.510  1.00  0.00    -0.009 C 
HETATM    3  C3  UNL     1      22.224   1.208  50.348  1.00  0.00     0.011 C 
HETATM    4  C4  UNL     1      22.294   1.819  48.984  1.00  0.00     0.001 C 
HETATM    5  C5  UNL     1      23.012   2.872  48.509  1.00  0.00     0.009 C 
HETATM    6  C6  UNL     1      24.118   3.727  49.013  1.00  0.00    -0.029 C 
HETATM    7  C7  UNL     1      23.668   4.915  48.617  1.00  0.00    -0.010 C 
HETATM    8  C8  UNL     1      22.444   5.316  47.897  1.00  0.00     0.072 C 
HETATM    9  C9  UNL     1      21.847   6.532  48.615  1.00  0.00     0.018 C 
HETATM   10  C10 UNL     1      22.308   6.496  49.887  1.00  0.00     0.101 C 
HETATM   11  O1  UNL     1      22.250   6.484  51.349  1.00  0.00    -0.346 OA
HETATM   12  C11 UNL     1      22.279   5.091  51.811  1.00  0.00     0.202 C 
HETATM   13  C12 UNL     1      23.417   4.780  52.709  1.00  0.00     0.204 C 
HETATM   14  O2  UNL     1      23.359   3.324  53.014  1.00  0.00    -0.332 OA
HETATM   15  C13 UNL     1      23.827   2.636  51.813  1.00  0.00     0.165 C 
HETATM   16  N1  UNL     1      24.949   2.859  51.153  1.00  0.00    -0.262 NA
HETATM   17  C14 UNL     1      25.271   3.186  49.763  1.00  0.00     0.191 C 
HETATM   18  C15 UNL     1      23.796   6.397  49.988  1.00  0.00     0.135 C 
HETATM   19  C16 UNL     1      24.121   6.351  48.715  1.00  0.00     0.112 C 
HETATM   20  O3  UNL     1      24.661   7.333  47.930  1.00  0.00    -0.345 OA
HETATM   21  C17 UNL     1      25.757   8.051  48.544  1.00  0.00     0.202 C 
HETATM   22  C18 UNL     1      25.933   7.524  49.955  1.00  0.00     0.202 C 
HETATM   23  O4  UNL     1      25.182   6.306  50.095  1.00  0.00    -0.344 OA
ENDROOT
TORSDOF 0
ENDMDL
MODEL 5
REMARK VINA RESULT:      -7.0      2.958      5.926
REMARK  0 active torsions:
REMARK  status: ('A' for Active; 'I' for Inactive)
ROOT
HETATM    1  C1  UNL     1      20.105  -0.272  53.524  1.00  0.00     0.052 C 
HETATM    2  C2  UNL     1      20.968   0.799  53.024  1.00  0.00    -0.009 C 
HETATM    3  C3  UNL     1      22.304   0.573  53.036  1.00  0.00     0.011 C 
HETATM    4  C4  UNL     1      23.386   1.280  52.282  1.00  0.00     0.001 C 
HETATM    5  C5  UNL     1      23.359   2.403  51.516  1.00  0.00     0.009 C 
HETATM    6  C6  UNL     1      22.378   3.483  51.236  1.00  0.00    -0.029 C 
HETATM    7  C7  UNL     1      22.537   3.581  49.918  1.00  0.00    -0.010 C 
HETATM    8  C8  UNL     1      23.406   2.854  48.973  1.00  0.00     0.072 C 
HETATM    9  C9  UNL     1      22.561   2.459  47.757  1.00  0.00     0.018 C 
HETATM   10  C10 UNL     1      21.273   2.434  48.172  1.00  0.00     0.101 C 
HETATM   11  O1  UNL     1      19.934   1.890  48.401  1.00  0.00    -0.346 OA
HETATM   12  C11 UNL     1      19.876   1.331  49.757  1.00  0.00     0.202 C 
HETATM   13  C12 UNL     1      18.839   1.949  50.617  1.00  0.00     0.204 C 
HETATM   14  O2  UNL     1      18.965   1.347  51.972  1.00  0.00    -0.332 OA
HETATM   15  C13 UNL     1      20.149   1.952  52.578  1.00  0.00     0.165 C 
HETATM   16  N1  UNL     1      20.416   3.241  52.691  1.00  0.00    -0.262 NA
HETATM   17  C14 UNL     1      21.535   4.093  52.287  1.00  0.00     0.191 C 
HETATM   18  C15 UNL     1      20.828   3.695  48.840  1.00  0.00     0.135 C 
HETATM   19  C16 UNL     1      21.941   4.395  48.796  1.00  0.00     0.112 C 
HETATM   20  O3  UNL     1      22.265   5.440  47.976  1.00  0.00    -0.345 OA
HETATM   21  C17 UNL     1      21.222   6.433  47.836  1.00  0.00     0.202 C 
HETATM   22  C18 UNL     1      20.011   5.956  48.613  1.00  0.00     0.202 C 
HETATM   23  O4  UNL     1      20.403   4.865  49.463  1.00  0.00    -0.344 OA
ENDROOT
TORSDOF 0
ENDMDL
MODEL 6
REMARK VINA RESULT:      -6.9      2.614      3.840
REMARK  0 active torsions:
REMARK  status: ('A' for Active; 'I' for Inactive)
ROOT
HETATM    1  C1  UNL     1      18.410   4.598  48.058  1.00  0.00     0.052 C 
HETATM    2  C2  UNL     1      19.591   3.739  48.167  1.00  0.00    -0.009 C 
HETATM    3  C3  UNL     1      20.563   3.905  47.239  1.00  0.00     0.011 C 
HETATM    4  C4  UNL     1      21.994   3.468  47.285  1.00  0.00     0.001 C 
HETATM    5  C5  UNL     1      22.663   2.680  48.169  1.00  0.00     0.009 C 
HETATM    6  C6  UNL     1      22.295   1.795  49.303  1.00  0.00    -0.029 C 
HETATM    7  C7  UNL     1      23.239   2.152  50.170  1.00  0.00    -0.010 C 
HETATM    8  C8  UNL     1      24.338   3.133  50.081  1.00  0.00     0.072 C 
HETATM    9  C9  UNL     1      24.352   3.950  51.379  1.00  0.00     0.018 C 
HETATM   10  C10 UNL     1      23.106   3.871  51.900  1.00  0.00     0.101 C 
HETATM   11  O1  UNL     1      21.830   4.344  52.439  1.00  0.00    -0.346 OA
HETATM   12  C11 UNL     1      20.848   4.402  51.350  1.00  0.00     0.202 C 
HETATM   13  C12 UNL     1      19.651   3.558  51.575  1.00  0.00     0.204 C 
HETATM   14  O2  UNL     1      18.803   3.652  50.356  1.00  0.00    -0.332 OA
HETATM   15  C13 UNL     1      19.462   2.837  49.337  1.00  0.00     0.165 C 
HETATM   16  N1  UNL     1      19.854   1.581  49.451  1.00  0.00    -0.262 NA
HETATM   17  C14 UNL     1      21.129   0.886  49.266  1.00  0.00     0.191 C 
HETATM   18  C15 UNL     1      22.607   2.472  52.066  1.00  0.00     0.135 C 
HETATM   19  C16 UNL     1      23.627   1.795  51.584  1.00  0.00     0.112 C 
HETATM   20  O3  UNL     1      24.583   1.087  52.259  1.00  0.00    -0.345 OA
HETATM   21  C17 UNL     1      24.065   0.237  53.308  1.00  0.00     0.202 C 
HETATM   22  C18 UNL     1      22.567   0.454  53.394  1.00  0.00     0.202 C 
HETATM   23  O4  UNL     1      22.133   1.172  52.226  1.00  0.00    -0.344 OA
ENDROOT
TORSDOF 0
ENDMDL
MODEL 7
REMARK VINA RESULT:      -6.9      7.683     10.251
REMARK  0 active torsions:
REMARK  status: ('A' for Active; 'I' for Inactive)
ROOT
HETATM    1  C1  UNL     1      33.073   2.789  47.034  1.00  0.00     0.052 C 
HETATM    2  C2  UNL     1      33.107   4.172  46.554  1.00  0.00    -0.009 C 
HETATM    3  C3  UNL     1      33.168   4.359  45.214  1.00  0.00     0.011 C 
HETATM    4  C4  UNL     1      32.852   5.588  44.420  1.00  0.00     0.001 C 
HETATM    5  C5  UNL     1      32.572   6.860  44.810  1.00  0.00     0.009 C 
HETATM    6  C6  UNL     1      32.626   7.626  46.082  1.00  0.00    -0.029 C 
HETATM    7  C7  UNL     1      31.468   8.275  45.991  1.00  0.00    -0.010 C 
HETATM    8  C8  UNL     1      30.411   8.267  44.962  1.00  0.00     0.072 C 
HETATM    9  C9  UNL     1      29.057   8.153  45.672  1.00  0.00     0.018 C 
HETATM   10  C10 UNL     1      29.299   7.592  46.880  1.00  0.00     0.101 C 
HETATM   11  O1  UNL     1      29.167   6.636  47.981  1.00  0.00    -0.346 OA
HETATM   12  C11 UNL     1      30.196   5.600  47.832  1.00  0.00     0.202 C 
HETATM   13  C12 UNL     1      31.117   5.498  48.989  1.00  0.00     0.204 C 
HETATM   14  O2  UNL     1      32.146   4.477  48.652  1.00  0.00    -0.332 OA
HETATM   15  C13 UNL     1      33.053   5.113  47.699  1.00  0.00     0.165 C 
HETATM   16  N1  UNL     1      33.674   6.270  47.839  1.00  0.00    -0.262 NA
HETATM   17  C14 UNL     1      33.739   7.499  47.047  1.00  0.00     0.191 C 
HETATM   18  C15 UNL     1      30.347   8.299  47.676  1.00  0.00     0.135 C 
HETATM   19  C16 UNL     1      30.686   9.252  46.835  1.00  0.00     0.112 C 
HETATM   20  O3  UNL     1      30.362  10.580  46.868  1.00  0.00    -0.345 OA
HETATM   21  C17 UNL     1      30.505  11.197  48.168  1.00  0.00     0.202 C 
HETATM   22  C18 UNL     1      30.916  10.122  49.156  1.00  0.00     0.202 C 
HETATM   23  O4  UNL     1      31.323   8.950  48.427  1.00  0.00    -0.344 OA
ENDROOT
TORSDOF 0
ENDMDL
MODEL 8
REMARK VINA RESULT:      -6.6      3.061      4.637
REMARK  0 active torsions:
REMARK  status: ('A' for Active; 'I' for Inactive)
ROOT
HETATM    1  C1  UNL     1      24.264   4.735  49.065  1.00  0.00     0.052 C 
HETATM    2  C2  UNL     1      23.018   4.012  48.804  1.00  0.00    -0.009 C 
HETATM    3  C3  UNL     1      23.122   2.783  48.243  1.00  0.00     0.011 C 
HETATM    4  C4  UNL     1      22.112   1.681  48.195  1.00  0.00     0.001 C 
HETATM    5  C5  UNL     1      20.800   1.650  48.553  1.00  0.00     0.009 C 
HETATM    6  C6  UNL     1      19.776   2.651  48.946  1.00  0.00    -0.029 C 
HETATM    7  C7  UNL     1      19.217   1.999  49.963  1.00  0.00    -0.010 C 
HETATM    8  C8  UNL     1      19.499   0.680  50.562  1.00  0.00     0.072 C 
HETATM    9  C9  UNL     1      19.521   0.846  52.086  1.00  0.00     0.018 C 
HETATM   10  C10 UNL     1      19.794   2.148  52.331  1.00  0.00     0.101 C 
HETATM   11  O1  UNL     1      20.493   3.303  52.897  1.00  0.00    -0.346 OA
HETATM   12  C11 UNL     1      21.487   3.776  51.926  1.00  0.00     0.202 C 
HETATM   13  C12 UNL     1      21.291   5.184  51.505  1.00  0.00     0.204 C 
HETATM   14  O2  UNL     1      22.311   5.484  50.463  1.00  0.00    -0.332 OA
HETATM   15  C13 UNL     1      21.854   4.819  49.243  1.00  0.00     0.165 C 
HETATM   16  N1  UNL     1      20.666   4.922  48.677  1.00  0.00    -0.262 NA
HETATM   17  C14 UNL     1      19.637   3.962  48.276  1.00  0.00     0.191 C 
HETATM   18  C15 UNL     1      18.882   3.100  51.627  1.00  0.00     0.135 C 
HETATM   19  C16 UNL     1      18.119   2.257  50.965  1.00  0.00     0.112 C 
HETATM   20  O3  UNL     1      16.832   1.877  51.229  1.00  0.00    -0.345 OA
HETATM   21  C17 UNL     1      15.942   2.969  51.555  1.00  0.00     0.202 C 
HETATM   22  C18 UNL     1      16.757   4.248  51.581  1.00  0.00     0.202 C 
HETATM   23  O4  UNL     1      18.037   3.997  50.977  1.00  0.00    -0.344 OA
ENDROOT
TORSDOF 0
ENDMDL
MODEL 9
REMARK VINA RESULT:      -6.4      3.231      6.153
REMARK  0 active torsions:
REMARK  status: ('A' for Active; 'I' for Inactive)
ROOT
HETATM    1  C1  UNL     1      15.923   2.828  51.075  1.00  0.00     0.052 C 
HETATM    2  C2  UNL     1      17.286   2.327  51.266  1.00  0.00    -0.009 C 
HETATM    3  C3  UNL     1      17.470   0.988  51.183  1.00  0.00     0.011 C 
HETATM    4  C4  UNL     1      18.737   0.223  50.967  1.00  0.00     0.001 C 
HETATM    5  C5  UNL     1      20.036   0.627  50.945  1.00  0.00     0.009 C 
HETATM    6  C6  UNL     1      20.775   1.870  51.283  1.00  0.00    -0.029 C 
HETATM    7  C7  UNL     1      21.602   1.919  50.241  1.00  0.00    -0.010 C 
HETATM    8  C8  UNL     1      21.768   1.034  49.073  1.00  0.00     0.072 C 
HETATM    9  C9  UNL     1      21.867   1.913  47.820  1.00  0.00     0.018 C 
HETATM   10  C10 UNL     1      21.267   3.088  48.124  1.00  0.00     0.101 C 
HETATM   11  O1  UNL     1      20.339   4.211  47.985  1.00  0.00    -0.346 OA
HETATM   12  C11 UNL     1      19.152   3.947  48.808  1.00  0.00     0.202 C 
HETATM   13  C12 UNL     1      18.898   4.978  49.843  1.00  0.00     0.204 C 
HETATM   14  O2  UNL     1      17.728   4.526  50.644  1.00  0.00    -0.332 OA
HETATM   15  C13 UNL     1      18.217   3.456  51.511  1.00  0.00     0.165 C 
HETATM   16  N1  UNL     1      19.260   3.498  52.320  1.00  0.00    -0.262 NA
HETATM   17  C14 UNL     1      20.467   2.686  52.477  1.00  0.00     0.191 C 
HETATM   18  C15 UNL     1      21.794   3.733  49.365  1.00  0.00     0.135 C 
HETATM   19  C16 UNL     1      22.685   2.841  49.739  1.00  0.00     0.112 C 
HETATM   20  O3  UNL     1      24.048   2.896  49.638  1.00  0.00    -0.345 OA
HETATM   21  C17 UNL     1      24.626   4.158  50.043  1.00  0.00     0.202 C 
HETATM   22  C18 UNL     1      23.494   5.100  50.402  1.00  0.00     0.202 C 
HETATM   23  O4  UNL     1      22.277   4.343  50.520  1.00  0.00    -0.344 OA
ENDROOT
TORSDOF 0
ENDMDL
