MODEL 1
REMARK VINA RESULT:      -7.5      0.000      0.000
REMARK  7 active torsions:
REMARK  status: ('A' for Active; 'I' for Inactive)
REMARK    1  A    between atoms: C2_2  and  C3_3 
REMARK    2  A    between atoms: C3_3  and  C4_5 
REMARK    3  A    between atoms: C4_5  and  C5_7 
REMARK    4  A    between atoms: C5_7  and  C6_8 
REMARK    5  A    between atoms: C6_8  and  N1_9 
REMARK    6  A    between atoms: N1_9  and  C7_10 
REMARK    7  A    between atoms: C12_17  and  N4_18 
REMARK       I    between atoms: N4_18  and  C13_19 
ROOT
HETATM    1  C7  UNL     1      22.249   0.083  52.596  1.00  0.00     0.137 A 
HETATM    2  N2  UNL     1      20.901  -0.100  52.687  1.00  0.00    -0.224 NA
HETATM    3  C8  UNL     1      20.352  -0.713  53.731  1.00  0.00     0.235 A 
HETATM    4  N3  UNL     1      21.127  -1.160  54.709  1.00  0.00    -0.241 NA
HETATM    5  C9  UNL     1      22.450  -1.027  54.706  1.00  0.00     0.072 A 
HETATM    6  C10 UNL     1      23.314  -1.459  55.669  1.00  0.00     0.035 A 
HETATM    7  C11 UNL     1      24.706  -1.317  55.656  1.00  0.00     0.032 A 
HETATM    8  C12 UNL     1      25.145  -0.661  54.508  1.00  0.00     0.035 A 
HETATM    9  C15 UNL     1      24.371  -0.176  53.460  1.00  0.00     0.047 A 
HETATM   10  C16 UNL     1      23.043  -0.403  53.648  1.00  0.00     0.041 A 
ENDROOT
BRANCH   1  11
HETATM   11  N1  UNL     1      22.711   0.767  51.416  1.00  0.00    -0.370 N 
HETATM   12  H6  UNL     1      23.476   0.403  50.813  1.00  0.00     0.161 HD
BRANCH  11  13
HETATM   13  C6  UNL     1      22.104   2.034  51.017  1.00  0.00     0.150 C 
BRANCH  13  14
HETATM   14  C5  UNL     1      23.188   2.974  50.656  1.00  0.00     0.019 C 
BRANCH  14  15
HETATM   15  C4  UNL     1      24.424   2.858  51.197  1.00  0.00     0.070 C 
HETATM   16 CL1  UNL     1      24.477   3.296  52.919  1.00  0.00    -0.081 Cl
BRANCH  15  17
HETATM   17  C3  UNL     1      25.785   2.492  50.861  1.00  0.00     0.144 C 
HETATM   18  F1  UNL     1      26.394   1.454  51.452  1.00  0.00    -0.204 F 
BRANCH  17  19
HETATM   19  C2  UNL     1      26.456   3.169  49.952  1.00  0.00    -0.008 C 
HETATM   20  C1  UNL     1      26.876   4.210  49.242  1.00  0.00     0.047 C 
ENDBRANCH  17  19
ENDBRANCH  15  17
ENDBRANCH  14  15
ENDBRANCH  13  14
ENDBRANCH  11  13
ENDBRANCH   1  11
BRANCH   8  21
HETATM   21  N4  UNL     1      26.575  -0.482  54.431  1.00  0.00    -0.327 N 
HETATM   22  C13 UNL     1      27.509   0.572  54.383  1.00  0.00     0.218 C 
HETATM   23  C14 UNL     1      28.952   0.176  54.307  1.00  0.00     0.117 C 
HETATM   24  O1  UNL     1      27.355   1.799  54.395  1.00  0.00    -0.274 OA
HETATM   25  H10 UNL     1      26.894  -1.490  54.411  1.00  0.00     0.169 HD
ENDBRANCH   8  21
TORSDOF 7
ENDMDL
MODEL 2
REMARK VINA RESULT:      -7.3      2.578      5.099
REMARK  7 active torsions:
REMARK  status: ('A' for Active; 'I' for Inactive)
REMARK    1  A    between atoms: C2_2  and  C3_3 
REMARK    2  A    between atoms: C3_3  and  C4_5 
REMARK    3  A    between atoms: C4_5  and  C5_7 
REMARK    4  A    between atoms: C5_7  and  C6_8 
REMARK    5  A    between atoms: C6_8  and  N1_9 
REMARK    6  A    between atoms: N1_9  and  C7_10 
REMARK    7  A    between atoms: C12_17  and  N4_18 
REMARK       I    between atoms: N4_18  and  C13_19 
ROOT
HETATM    1  C7  UNL     1      23.908   0.455  53.058  1.00  0.00     0.137 A 
HETATM    2  N2  UNL     1      23.043  -0.449  53.599  1.00  0.00    -0.224 NA
HETATM    3  C8  UNL     1      21.838  -0.657  53.079  1.00  0.00     0.235 A 
HETATM    4  N3  UNL     1      21.463   0.027  52.007  1.00  0.00    -0.241 NA
HETATM    5  C9  UNL     1      22.238   0.927  51.412  1.00  0.00     0.072 A 
HETATM    6  C10 UNL     1      21.926   1.672  50.312  1.00  0.00     0.035 A 
HETATM    7  C11 UNL     1      22.747   2.619  49.692  1.00  0.00     0.032 A 
HETATM    8  C12 UNL     1      23.975   2.737  50.341  1.00  0.00     0.035 A 
HETATM    9  C15 UNL     1      24.411   2.042  51.463  1.00  0.00     0.047 A 
HETATM   10  C16 UNL     1      23.480   1.164  51.923  1.00  0.00     0.041 A 
ENDROOT
BRANCH   1  11
HETATM   11  N1  UNL     1      25.183   0.577  53.717  1.00  0.00    -0.370 N 
HETATM   12  H6  UNL     1      25.628   1.494  53.925  1.00  0.00     0.161 HD
BRANCH  11  13
HETATM   13  C6  UNL     1      25.916  -0.619  54.126  1.00  0.00     0.150 C 
BRANCH  13  14
HETATM   14  C5  UNL     1      26.860  -0.975  53.044  1.00  0.00     0.019 C 
BRANCH  14  15
HETATM   15  C4  UNL     1      28.198  -0.951  53.246  1.00  0.00     0.070 C 
HETATM   16 CL1  UNL     1      28.959  -2.550  53.098  1.00  0.00    -0.081 Cl
BRANCH  15  17
HETATM   17  C3  UNL     1      29.286  -0.046  53.560  1.00  0.00     0.144 C 
HETATM   18  F1  UNL     1      30.557  -0.473  53.600  1.00  0.00    -0.204 F 
BRANCH  17  19
HETATM   19  C2  UNL     1      29.051   1.226  53.803  1.00  0.00    -0.008 C 
HETATM   20  C1  UNL     1      28.624   2.468  53.600  1.00  0.00     0.047 C 
ENDBRANCH  17  19
ENDBRANCH  15  17
ENDBRANCH  14  15
ENDBRANCH  13  14
ENDBRANCH  11  13
ENDBRANCH   1  11
BRANCH   8  21
HETATM   21  N4  UNL     1      24.873   3.701  49.752  1.00  0.00    -0.327 N 
HETATM   22  C13 UNL     1      26.254   3.980  49.719  1.00  0.00     0.218 C 
HETATM   23  C14 UNL     1      26.671   5.167  48.905  1.00  0.00     0.117 C 
HETATM   24  O1  UNL     1      27.214   3.409  50.249  1.00  0.00    -0.274 OA
HETATM   25  H10 UNL     1      24.185   4.309  49.227  1.00  0.00     0.169 HD
ENDBRANCH   8  21
TORSDOF 7
ENDMDL
MODEL 3
REMARK VINA RESULT:      -7.2      2.196      2.871
REMARK  7 active torsions:
REMARK  status: ('A' for Active; 'I' for Inactive)
REMARK    1  A    between atoms: C2_2  and  C3_3 
REMARK    2  A    between atoms: C3_3  and  C4_5 
REMARK    3  A    between atoms: C4_5  and  C5_7 
REMARK    4  A    between atoms: C5_7  and  C6_8 
REMARK    5  A    between atoms: C6_8  and  N1_9 
REMARK    6  A    between atoms: N1_9  and  C7_10 
REMARK    7  A    between atoms: C12_17  and  N4_18 
REMARK       I    between atoms: N4_18  and  C13_19 
ROOT
HETATM    1  C7  UNL     1      23.386   3.297  52.477  1.00  0.00     0.137 A 
HETATM    2  N2  UNL     1      22.043   3.444  52.293  1.00  0.00    -0.224 NA
HETATM    3  C8  UNL     1      21.208   2.417  52.410  1.00  0.00     0.235 A 
HETATM    4  N3  UNL     1      21.685   1.218  52.713  1.00  0.00    -0.241 NA
HETATM    5  C9  UNL     1      22.978   0.980  52.911  1.00  0.00     0.072 A 
HETATM    6  C10 UNL     1      23.547  -0.221  53.222  1.00  0.00     0.035 A 
HETATM    7  C11 UNL     1      24.909  -0.463  53.426  1.00  0.00     0.032 A 
HETATM    8  C12 UNL     1      25.667   0.696  53.270  1.00  0.00     0.035 A 
HETATM    9  C15 UNL     1      25.210   1.970  52.955  1.00  0.00     0.047 A 
HETATM   10  C16 UNL     1      23.860   2.014  52.796  1.00  0.00     0.041 A 
ENDROOT
BRANCH   1  11
HETATM   11  N1  UNL     1      24.175   4.492  52.326  1.00  0.00    -0.370 N 
HETATM   12  H6  UNL     1      25.060   4.656  52.847  1.00  0.00     0.161 HD
BRANCH  11  13
HETATM   13  C6  UNL     1      23.744   5.545  51.410  1.00  0.00     0.150 C 
BRANCH  13  14
HETATM   14  C5  UNL     1      24.794   5.723  50.383  1.00  0.00     0.019 C 
BRANCH  14  15
HETATM   15  C4  UNL     1      25.288   4.665  49.696  1.00  0.00     0.070 C 
HETATM   16 CL1  UNL     1      24.022   3.642  48.982  1.00  0.00    -0.081 Cl
BRANCH  15  17
HETATM   17  C3  UNL     1      26.536   4.035  49.319  1.00  0.00     0.144 C 
HETATM   18  F1  UNL     1      26.747   2.727  49.525  1.00  0.00    -0.204 F 
BRANCH  17  19
HETATM   19  C2  UNL     1      27.496   4.736  48.751  1.00  0.00    -0.008 C 
HETATM   20  C1  UNL     1      28.171   5.801  48.332  1.00  0.00     0.047 C 
ENDBRANCH  17  19
ENDBRANCH  15  17
ENDBRANCH  14  15
ENDBRANCH  13  14
ENDBRANCH  11  13
ENDBRANCH   1  11
BRANCH   8  21
HETATM   21  N4  UNL     1      27.085   0.515  53.466  1.00  0.00    -0.327 N 
HETATM   22  C13 UNL     1      28.027  -0.533  53.482  1.00  0.00     0.218 C 
HETATM   23  C14 UNL     1      29.449  -0.141  53.746  1.00  0.00     0.117 C 
HETATM   24  O1  UNL     1      27.895  -1.751  53.312  1.00  0.00    -0.274 OA
HETATM   25  H10 UNL     1      27.384   1.515  53.635  1.00  0.00     0.169 HD
ENDBRANCH   8  21
TORSDOF 7
ENDMDL
MODEL 4
REMARK VINA RESULT:      -7.0      2.406      3.314
REMARK  7 active torsions:
REMARK  status: ('A' for Active; 'I' for Inactive)
REMARK    1  A    between atoms: C2_2  and  C3_3 
REMARK    2  A    between atoms: C3_3  and  C4_5 
REMARK    3  A    between atoms: C4_5  and  C5_7 
REMARK    4  A    between atoms: C5_7  and  C6_8 
REMARK    5  A    between atoms: C6_8  and  N1_9 
REMARK    6  A    between atoms: N1_9  and  C7_10 
REMARK    7  A    between atoms: C12_17  and  N4_18 
REMARK       I    between atoms: N4_18  and  C13_19 
ROOT
HETATM    1  C7  UNL     1      23.161   3.944  52.439  1.00  0.00     0.137 A 
HETATM    2  N2  UNL     1      21.820   4.134  52.293  1.00  0.00    -0.224 NA
HETATM    3  C8  UNL     1      20.961   3.122  52.367  1.00  0.00     0.235 A 
HETATM    4  N3  UNL     1      21.415   1.896  52.588  1.00  0.00    -0.241 NA
HETATM    5  C9  UNL     1      22.705   1.616  52.743  1.00  0.00     0.072 A 
HETATM    6  C10 UNL     1      23.250   0.385  52.970  1.00  0.00     0.035 A 
HETATM    7  C11 UNL     1      24.609   0.099  53.130  1.00  0.00     0.032 A 
HETATM    8  C12 UNL     1      25.393   1.247  53.027  1.00  0.00     0.035 A 
HETATM    9  C15 UNL     1      24.961   2.549  52.798  1.00  0.00     0.047 A 
HETATM   10  C16 UNL     1      23.610   2.633  52.671  1.00  0.00     0.041 A 
ENDROOT
BRANCH   1  11
HETATM   11  N1  UNL     1      23.977   5.127  52.341  1.00  0.00    -0.370 N 
HETATM   12  H6  UNL     1      24.684   5.388  53.058  1.00  0.00     0.161 HD
BRANCH  11  13
HETATM   13  C6  UNL     1      23.832   6.026  51.199  1.00  0.00     0.150 C 
BRANCH  13  14
HETATM   14  C5  UNL     1      25.142   6.124  50.518  1.00  0.00     0.019 C 
BRANCH  14  15
HETATM   15  C4  UNL     1      25.607   5.113  49.748  1.00  0.00     0.070 C 
HETATM   16 CL1  UNL     1      26.912   5.613  48.649  1.00  0.00    -0.081 Cl
BRANCH  15  17
HETATM   17  C3  UNL     1      25.413   3.702  49.481  1.00  0.00     0.144 C 
HETATM   18  F1  UNL     1      26.383   2.807  49.721  1.00  0.00    -0.204 F 
BRANCH  17  19
HETATM   19  C2  UNL     1      24.267   3.261  49.005  1.00  0.00    -0.008 C 
HETATM   20  C1  UNL     1      22.997   2.869  48.996  1.00  0.00     0.047 C 
ENDBRANCH  17  19
ENDBRANCH  15  17
ENDBRANCH  14  15
ENDBRANCH  13  14
ENDBRANCH  11  13
ENDBRANCH   1  11
BRANCH   8  21
HETATM   21  N4  UNL     1      26.809   1.022  53.182  1.00  0.00    -0.327 N 
HETATM   22  C13 UNL     1      27.687   0.369  54.070  1.00  0.00     0.218 C 
HETATM   23  C14 UNL     1      29.146   0.450  53.739  1.00  0.00     0.117 C 
HETATM   24  O1  UNL     1      27.471  -0.279  55.101  1.00  0.00    -0.274 OA
HETATM   25  H10 UNL     1      27.179   1.536  52.335  1.00  0.00     0.169 HD
ENDBRANCH   8  21
TORSDOF 7
ENDMDL
MODEL 5
REMARK VINA RESULT:      -7.0      2.298      3.064
REMARK  7 active torsions:
REMARK  status: ('A' for Active; 'I' for Inactive)
REMARK    1  A    between atoms: C2_2  and  C3_3 
REMARK    2  A    between atoms: C3_3  and  C4_5 
REMARK    3  A    between atoms: C4_5  and  C5_7 
REMARK    4  A    between atoms: C5_7  and  C6_8 
REMARK    5  A    between atoms: C6_8  and  N1_9 
REMARK    6  A    between atoms: N1_9  and  C7_10 
REMARK    7  A    between atoms: C12_17  and  N4_18 
REMARK       I    between atoms: N4_18  and  C13_19 
ROOT
HETATM    1  C7  UNL     1      23.364   3.464  52.384  1.00  0.00     0.137 A 
HETATM    2  N2  UNL     1      22.039   3.672  52.140  1.00  0.00    -0.224 NA
HETATM    3  C8  UNL     1      21.140   2.709  52.317  1.00  0.00     0.235 A 
HETATM    4  N3  UNL     1      21.534   1.516  52.740  1.00  0.00    -0.241 NA
HETATM    5  C9  UNL     1      22.804   1.223  53.003  1.00  0.00     0.072 A 
HETATM    6  C10 UNL     1      23.290   0.023  53.437  1.00  0.00     0.035 A 
HETATM    7  C11 UNL     1      24.628  -0.278  53.710  1.00  0.00     0.032 A 
HETATM    8  C12 UNL     1      25.459   0.817  53.480  1.00  0.00     0.035 A 
HETATM    9  C15 UNL     1      25.089   2.083  53.039  1.00  0.00     0.047 A 
HETATM   10  C16 UNL     1      23.750   2.190  52.830  1.00  0.00     0.041 A 
ENDROOT
BRANCH   1  11
HETATM   11  N1  UNL     1      24.228   4.593  52.157  1.00  0.00    -0.370 N 
HETATM   12  H6  UNL     1      24.933   4.915  52.850  1.00  0.00     0.161 HD
BRANCH  11  13
HETATM   13  C6  UNL     1      24.139   5.348  50.909  1.00  0.00     0.150 C 
BRANCH  13  14
HETATM   14  C5  UNL     1      24.563   4.462  49.802  1.00  0.00     0.019 C 
BRANCH  14  15
HETATM   15  C4  UNL     1      25.866   4.359  49.448  1.00  0.00     0.070 C 
HETATM   16 CL1  UNL     1      26.601   2.814  49.930  1.00  0.00    -0.081 Cl
BRANCH  15  17
HETATM   17  C3  UNL     1      26.929   5.091  48.790  1.00  0.00     0.144 C 
HETATM   18  F1  UNL     1      28.066   4.484  48.417  1.00  0.00    -0.204 F 
BRANCH  17  19
HETATM   19  C2  UNL     1      26.797   6.375  48.531  1.00  0.00    -0.008 C 
HETATM   20  C1  UNL     1      26.523   7.479  47.845  1.00  0.00     0.047 C 
ENDBRANCH  17  19
ENDBRANCH  15  17
ENDBRANCH  14  15
ENDBRANCH  13  14
ENDBRANCH  11  13
ENDBRANCH   1  11
BRANCH   8  21
HETATM   21  N4  UNL     1      26.856   0.573  53.741  1.00  0.00    -0.327 N 
HETATM   22  C13 UNL     1      28.107   1.145  53.432  1.00  0.00     0.218 C 
HETATM   23  C14 UNL     1      29.310   0.450  53.995  1.00  0.00     0.117 C 
HETATM   24  O1  UNL     1      28.405   2.143  52.766  1.00  0.00    -0.274 OA
HETATM   25  H10 UNL     1      26.792  -0.298  54.337  1.00  0.00     0.169 HD
ENDBRANCH   8  21
TORSDOF 7
ENDMDL
MODEL 6
REMARK VINA RESULT:      -6.9      2.568      3.612
REMARK  7 active torsions:
REMARK  status: ('A' for Active; 'I' for Inactive)
REMARK    1  A    between atoms: C2_2  and  C3_3 
REMARK    2  A    between atoms: C3_3  and  C4_5 
REMARK    3  A    between atoms: C4_5  and  C5_7 
REMARK    4  A    between atoms: C5_7  and  C6_8 
REMARK    5  A    between atoms: C6_8  and  N1_9 
REMARK    6  A    between atoms: N1_9  and  C7_10 
REMARK    7  A    between atoms: C12_17  and  N4_18 
REMARK       I    between atoms: N4_18  and  C13_19 
ROOT
HETATM    1  C7  UNL     1      24.274   2.897  51.721  1.00  0.00     0.137 A 
HETATM    2  N2  UNL     1      22.973   3.286  51.600  1.00  0.00    -0.224 NA
HETATM    3  C8  UNL     1      21.980   2.561  52.105  1.00  0.00     0.235 A 
HETATM    4  N3  UNL     1      22.255   1.432  52.743  1.00  0.00    -0.241 NA
HETATM    5  C9  UNL     1      23.492   0.974  52.910  1.00  0.00     0.072 A 
HETATM    6  C10 UNL     1      23.857  -0.175  53.548  1.00  0.00     0.035 A 
HETATM    7  C11 UNL     1      25.161  -0.651  53.717  1.00  0.00     0.032 A 
HETATM    8  C12 UNL     1      26.098   0.203  53.139  1.00  0.00     0.035 A 
HETATM    9  C15 UNL     1      25.856   1.394  52.464  1.00  0.00     0.047 A 
HETATM   10  C16 UNL     1      24.532   1.696  52.401  1.00  0.00     0.041 A 
ENDROOT
BRANCH   1  11
HETATM   11  N1  UNL     1      25.250   3.778  51.133  1.00  0.00    -0.370 N 
HETATM   12  H6  UNL     1      25.912   4.347  51.697  1.00  0.00     0.161 HD
BRANCH  11  13
HETATM   13  C6  UNL     1      25.342   3.906  49.680  1.00  0.00     0.150 C 
BRANCH  13  14
HETATM   14  C5  UNL     1      26.774   3.940  49.309  1.00  0.00     0.019 C 
BRANCH  14  15
HETATM   15  C4  UNL     1      27.351   5.075  48.849  1.00  0.00     0.070 C 
HETATM   16 CL1  UNL     1      26.404   6.536  49.207  1.00  0.00    -0.081 Cl
BRANCH  15  17
HETATM   17  C3  UNL     1      28.517   5.551  48.132  1.00  0.00     0.144 C 
HETATM   18  F1  UNL     1      29.584   4.762  47.936  1.00  0.00    -0.204 F 
BRANCH  17  19
HETATM   19  C2  UNL     1      28.550   6.773  47.643  1.00  0.00    -0.008 C 
HETATM   20  C1  UNL     1      29.059   7.929  47.230  1.00  0.00     0.047 C 
ENDBRANCH  17  19
ENDBRANCH  15  17
ENDBRANCH  14  15
ENDBRANCH  13  14
ENDBRANCH  11  13
ENDBRANCH   1  11
BRANCH   8  21
HETATM   21  N4  UNL     1      27.468  -0.230  53.276  1.00  0.00    -0.327 N 
HETATM   22  C13 UNL     1      28.594   0.057  54.072  1.00  0.00     0.218 C 
HETATM   23  C14 UNL     1      29.833  -0.734  53.777  1.00  0.00     0.117 C 
HETATM   24  O1  UNL     1      28.757   0.863  54.996  1.00  0.00    -0.274 OA
HETATM   25  H10 UNL     1      27.514  -0.965  52.517  1.00  0.00     0.169 HD
ENDBRANCH   8  21
TORSDOF 7
ENDMDL
MODEL 7
REMARK VINA RESULT:      -6.8      2.422      5.018
REMARK  7 active torsions:
REMARK  status: ('A' for Active; 'I' for Inactive)
REMARK    1  A    between atoms: C2_2  and  C3_3 
REMARK    2  A    between atoms: C3_3  and  C4_5 
REMARK    3  A    between atoms: C4_5  and  C5_7 
REMARK    4  A    between atoms: C5_7  and  C6_8 
REMARK    5  A    between atoms: C6_8  and  N1_9 
REMARK    6  A    between atoms: N1_9  and  C7_10 
REMARK    7  A    between atoms: C12_17  and  N4_18 
REMARK       I    between atoms: N4_18  and  C13_19 
ROOT
HETATM    1  C7  UNL     1      26.932   2.231  52.551  1.00  0.00     0.137 A 
HETATM    2  N2  UNL     1      28.273   2.338  52.771  1.00  0.00    -0.224 NA
HETATM    3  C8  UNL     1      28.912   1.507  53.587  1.00  0.00     0.235 A 
HETATM    4  N3  UNL     1      28.236   0.549  54.205  1.00  0.00    -0.241 NA
HETATM    5  C9  UNL     1      26.928   0.369  54.051  1.00  0.00     0.072 A 
HETATM    6  C10 UNL     1      26.161  -0.588  54.651  1.00  0.00     0.035 A 
HETATM    7  C11 UNL     1      24.785  -0.770  54.485  1.00  0.00     0.032 A 
HETATM    8  C12 UNL     1      24.244   0.169  53.608  1.00  0.00     0.035 A 
HETATM    9  C15 UNL     1      24.914   1.187  52.939  1.00  0.00     0.047 A 
HETATM   10  C16 UNL     1      26.244   1.207  53.221  1.00  0.00     0.041 A 
ENDROOT
BRANCH   1  11
HETATM   11  N1  UNL     1      26.367   3.192  51.639  1.00  0.00    -0.370 N 
HETATM   12  H6  UNL     1      25.864   4.046  51.955  1.00  0.00     0.161 HD
BRANCH  11  13
HETATM   13  C6  UNL     1      26.483   2.992  50.196  1.00  0.00     0.150 C 
BRANCH  13  14
HETATM   14  C5  UNL     1      25.236   3.474  49.561  1.00  0.00     0.019 C 
BRANCH  14  15
HETATM   15  C4  UNL     1      24.120   3.702  50.292  1.00  0.00     0.070 C 
HETATM   16 CL1  UNL     1      23.944   5.399  50.790  1.00  0.00    -0.081 Cl
BRANCH  15  17
HETATM   17  C3  UNL     1      22.964   3.027  50.846  1.00  0.00     0.144 C 
HETATM   18  F1  UNL     1      22.414   3.422  52.004  1.00  0.00    -0.204 F 
BRANCH  17  19
HETATM   19  C2  UNL     1      22.415   2.010  50.213  1.00  0.00    -0.008 C 
HETATM   20  C1  UNL     1      21.667   0.929  50.019  1.00  0.00     0.047 C 
ENDBRANCH  17  19
ENDBRANCH  15  17
ENDBRANCH  14  15
ENDBRANCH  13  14
ENDBRANCH  11  13
ENDBRANCH   1  11
BRANCH   8  21
HETATM   21  N4  UNL     1      22.824   0.038  53.393  1.00  0.00    -0.327 N 
HETATM   22  C13 UNL     1      21.704  -0.533  54.030  1.00  0.00     0.218 C 
HETATM   23  C14 UNL     1      20.387  -0.362  53.334  1.00  0.00     0.117 C 
HETATM   24  O1  UNL     1      21.602  -1.167  55.087  1.00  0.00    -0.274 OA
HETATM   25  H10 UNL     1      22.720   0.554  52.476  1.00  0.00     0.169 HD
ENDBRANCH   8  21
TORSDOF 7
ENDMDL
MODEL 8
REMARK VINA RESULT:      -6.6      2.402      2.847
REMARK  7 active torsions:
REMARK  status: ('A' for Active; 'I' for Inactive)
REMARK    1  A    between atoms: C2_2  and  C3_3 
REMARK    2  A    between atoms: C3_3  and  C4_5 
REMARK    3  A    between atoms: C4_5  and  C5_7 
REMARK    4  A    between atoms: C5_7  and  C6_8 
REMARK    5  A    between atoms: C6_8  and  N1_9 
REMARK    6  A    between atoms: N1_9  and  C7_10 
REMARK    7  A    between atoms: C12_17  and  N4_18 
REMARK       I    between atoms: N4_18  and  C13_19 
ROOT
HETATM    1  C7  UNL     1      23.080   2.690  52.151  1.00  0.00     0.137 A 
HETATM    2  N2  UNL     1      21.722   2.807  52.178  1.00  0.00    -0.224 NA
HETATM    3  C8  UNL     1      20.953   1.869  52.722  1.00  0.00     0.235 A 
HETATM    4  N3  UNL     1      21.514   0.792  53.253  1.00  0.00    -0.241 NA
HETATM    5  C9  UNL     1      22.828   0.592  53.272  1.00  0.00     0.072 A 
HETATM    6  C10 UNL     1      23.480  -0.487  53.794  1.00  0.00     0.035 A 
HETATM    7  C11 UNL     1      24.864  -0.691  53.808  1.00  0.00     0.032 A 
HETATM    8  C12 UNL     1      25.545   0.365  53.206  1.00  0.00     0.035 A 
HETATM    9  C15 UNL     1      25.000   1.511  52.639  1.00  0.00     0.047 A 
HETATM   10  C16 UNL     1      23.643   1.536  52.720  1.00  0.00     0.041 A 
ENDROOT
BRANCH   1  11
HETATM   11  N1  UNL     1      23.792   3.780  51.537  1.00  0.00    -0.370 N 
HETATM   12  H6  UNL     1      24.699   3.659  51.044  1.00  0.00     0.161 HD
BRANCH  11  13
HETATM   13  C6  UNL     1      23.247   5.135  51.590  1.00  0.00     0.150 C 
BRANCH  13  14
HETATM   14  C5  UNL     1      23.490   5.783  50.282  1.00  0.00     0.019 C 
BRANCH  14  15
HETATM   15  C4  UNL     1      24.742   6.114  49.886  1.00  0.00     0.070 C 
HETATM   16 CL1  UNL     1      25.370   7.567  50.695  1.00  0.00    -0.081 Cl
BRANCH  15  17
HETATM   17  C3  UNL     1      25.803   5.693  48.995  1.00  0.00     0.144 C 
HETATM   18  F1  UNL     1      26.207   6.466  47.977  1.00  0.00    -0.204 F 
BRANCH  17  19
HETATM   19  C2  UNL     1      26.409   4.536  49.174  1.00  0.00    -0.008 C 
HETATM   20  C1  UNL     1      26.600   3.289  49.589  1.00  0.00     0.047 C 
ENDBRANCH  17  19
ENDBRANCH  15  17
ENDBRANCH  14  15
ENDBRANCH  13  14
ENDBRANCH  11  13
ENDBRANCH   1  11
BRANCH   8  21
HETATM   21  N4  UNL     1      26.980   0.218  53.185  1.00  0.00    -0.327 N 
HETATM   22  C13 UNL     1      28.027  -0.083  54.080  1.00  0.00     0.218 C 
HETATM   23  C14 UNL     1      29.408  -0.109  53.499  1.00  0.00     0.117 C 
HETATM   24  O1  UNL     1      28.017  -0.339  55.290  1.00  0.00    -0.274 OA
HETATM   25  H10 UNL     1      27.179   0.413  52.166  1.00  0.00     0.169 HD
ENDBRANCH   8  21
TORSDOF 7
ENDMDL
MODEL 9
REMARK VINA RESULT:      -6.6      2.981      5.553
REMARK  7 active torsions:
REMARK  status: ('A' for Active; 'I' for Inactive)
REMARK    1  A    between atoms: C2_2  and  C3_3 
REMARK    2  A    between atoms: C3_3  and  C4_5 
REMARK    3  A    between atoms: C4_5  and  C5_7 
REMARK    4  A    between atoms: C5_7  and  C6_8 
REMARK    5  A    between atoms: C6_8  and  N1_9 
REMARK    6  A    between atoms: N1_9  and  C7_10 
REMARK    7  A    between atoms: C12_17  and  N4_18 
REMARK       I    between atoms: N4_18  and  C13_19 
ROOT
HETATM    1  C7  UNL     1      23.176   0.096  53.493  1.00  0.00     0.137 A 
HETATM    2  N2  UNL     1      23.673  -0.662  54.511  1.00  0.00    -0.224 NA
HETATM    3  C8  UNL     1      22.900  -1.495  55.200  1.00  0.00     0.235 A 
HETATM    4  N3  UNL     1      21.615  -1.597  54.895  1.00  0.00    -0.241 NA
HETATM    5  C9  UNL     1      21.043  -0.898  53.919  1.00  0.00     0.072 A 
HETATM    6  C10 UNL     1      19.730  -0.944  53.546  1.00  0.00     0.035 A 
HETATM    7  C11 UNL     1      19.136  -0.204  52.519  1.00  0.00     0.032 A 
HETATM    8  C12 UNL     1      20.057   0.628  51.885  1.00  0.00     0.035 A 
HETATM    9  C15 UNL     1      21.411   0.765  52.170  1.00  0.00     0.047 A 
HETATM   10  C16 UNL     1      21.809  -0.034  53.195  1.00  0.00     0.041 A 
ENDROOT
BRANCH   1  11
HETATM   11  N1  UNL     1      24.123   0.952  52.827  1.00  0.00    -0.370 N 
HETATM   12  H6  UNL     1      23.949   1.962  52.653  1.00  0.00     0.161 HD
BRANCH  11  13
HETATM   13  C6  UNL     1      25.397   0.412  52.356  1.00  0.00     0.150 C 
BRANCH  13  14
HETATM   14  C5  UNL     1      26.443   1.433  52.580  1.00  0.00     0.019 C 
BRANCH  14  15
HETATM   15  C4  UNL     1      27.518   1.175  53.361  1.00  0.00     0.070 C 
HETATM   16 CL1  UNL     1      28.616   2.564  53.523  1.00  0.00    -0.081 Cl
BRANCH  15  17
HETATM   17  C3  UNL     1      28.128   0.122  54.148  1.00  0.00     0.144 C 
HETATM   18  F1  UNL     1      27.841  -0.031  55.449  1.00  0.00    -0.204 F 
BRANCH  17  19
HETATM   19  C2  UNL     1      28.976  -0.721  53.596  1.00  0.00    -0.008 C 
HETATM   20  C1  UNL     1      29.810  -1.750  53.493  1.00  0.00     0.047 C 
ENDBRANCH  17  19
ENDBRANCH  15  17
ENDBRANCH  14  15
ENDBRANCH  13  14
ENDBRANCH  11  13
ENDBRANCH   1  11
BRANCH   8  21
HETATM   21  N4  UNL     1      19.508   1.422  50.813  1.00  0.00    -0.327 N 
HETATM   22  C13 UNL     1      19.804   1.743  49.473  1.00  0.00     0.218 C 
HETATM   23  C14 UNL     1      18.844   2.665  48.784  1.00  0.00     0.117 C 
HETATM   24  O1  UNL     1      20.735   1.394  48.737  1.00  0.00    -0.274 OA
HETATM   25  H10 UNL     1      18.652   1.821  51.288  1.00  0.00     0.169 HD
ENDBRANCH   8  21
TORSDOF 7
ENDMDL
