MODEL 1
REMARK VINA RESULT:     -10.9      0.000      0.000
REMARK  5 active torsions:
REMARK  status: ('A' for Active; 'I' for Inactive)
REMARK    1  A    between atoms: O1_2  and  C2_3 
REMARK    2  A    between atoms: C6_8  and  N2_9 
REMARK    3  A    between atoms: N2_9  and  C7_10 
REMARK    4  A    between atoms: N5_26  and  C20_27 
REMARK    5  A    between atoms: C23_30  and  O3_31 
ROOT
HETATM    1  C2  UNL     1      19.588  -0.352  52.982  1.00  0.00     0.064 C 
HETATM    2  C3  UNL     1      20.166   0.536  52.130  1.00  0.00     0.016 C 
HETATM    3  C4  UNL     1      20.993   1.455  51.288  1.00  0.00     0.090 C 
HETATM    4  C5  UNL     1      22.349   1.688  51.746  1.00  0.00     0.069 A 
HETATM    5  N1  UNL     1      22.807   2.914  51.429  1.00  0.00    -0.066 NA
HETATM    6  C6  UNL     1      24.001   3.399  51.769  1.00  0.00     0.729 A 
HETATM    7  N3  UNL     1      24.906   2.700  52.491  1.00  0.00    -0.044 NA
HETATM    8  C13 UNL     1      24.503   1.449  52.849  1.00  0.00     0.163 A 
HETATM    9  C14 UNL     1      23.270   1.012  52.459  1.00  0.00     0.032 A 
HETATM   10  C15 UNL     1      23.081  -0.417  52.720  1.00  0.00     0.172 C 
HETATM   11  N4  UNL     1      23.577  -0.793  54.005  1.00  0.00    -0.326 N 
HETATM   12  C16 UNL     1      22.819  -1.623  54.922  1.00  0.00     0.155 C 
HETATM   13  C17 UNL     1      21.389  -1.602  54.653  1.00  0.00    -0.004 C 
HETATM   14  C18 UNL     1      20.310  -1.174  53.998  1.00  0.00     0.034 C 
HETATM   15  C19 UNL     1      24.874  -0.367  54.402  1.00  0.00     0.327 C 
HETATM   16  O2  UNL     1      25.528  -1.021  55.245  1.00  0.00    -0.247 OA
HETATM   17  N5  UNL     1      25.374   0.832  53.792  1.00  0.00    -0.278 N 
ENDROOT
BRANCH   6  18
HETATM   18  N2  UNL     1      24.406   4.735  51.398  1.00  0.00    -0.188 N 
HETATM   19  H7  UNL     1      23.930   5.507  51.883  1.00  0.00     0.184 HD
BRANCH  18  20
HETATM   20  C7  UNL     1      25.402   4.956  50.430  1.00  0.00     0.049 A 
HETATM   21  C8  UNL     1      26.216   3.967  49.921  1.00  0.00     0.030 A 
HETATM   22  C9  UNL     1      27.179   4.179  48.963  1.00  0.00     0.002 A 
HETATM   23  C10 UNL     1      27.318   5.488  48.498  1.00  0.00     0.000 A 
HETATM   24  C11 UNL     1      26.517   6.530  48.982  1.00  0.00     0.002 A 
HETATM   25  C12 UNL     1      25.573   6.234  49.943  1.00  0.00     0.030 A 
ENDBRANCH  18  20
ENDBRANCH   6  18
BRANCH  17  26
HETATM   26  C20 UNL     1      26.653   1.360  54.090  1.00  0.00     0.099 C 
HETATM   27  C21 UNL     1      27.231   2.240  52.956  1.00  0.00     0.028 C 
HETATM   28  C22 UNL     1      28.668   2.436  53.454  1.00  0.00     0.034 C 
HETATM   29  C23 UNL     1      29.005   1.220  54.241  1.00  0.00     0.120 C 
HETATM   30  C24 UNL     1      27.773   0.354  54.183  1.00  0.00     0.057 C 
BRANCH  29  31
HETATM   31  O3  UNL     1      30.132   0.559  53.750  1.00  0.00    -0.396 OA
HETATM   32  H25 UNL     1      30.686   0.306  54.520  1.00  0.00     0.210 HD
ENDBRANCH  29  31
ENDBRANCH  17  26
BRANCH   1  33
HETATM   33  O1  UNL     1      18.204  -0.584  52.989  1.00  0.00    -0.356 OA
HETATM   34  C1  UNL     1      17.739  -1.837  53.416  1.00  0.00     0.210 C 
ENDBRANCH   1  33
TORSDOF 5
ENDMDL
MODEL 2
REMARK VINA RESULT:     -10.7      2.683      7.348
REMARK  5 active torsions:
REMARK  status: ('A' for Active; 'I' for Inactive)
REMARK    1  A    between atoms: O1_2  and  C2_3 
REMARK    2  A    between atoms: C6_8  and  N2_9 
REMARK    3  A    between atoms: N2_9  and  C7_10 
REMARK    4  A    between atoms: N5_26  and  C20_27 
REMARK    5  A    between atoms: C23_30  and  O3_31 
ROOT
HETATM    1  C2  UNL     1      25.186   6.228  48.514  1.00  0.00     0.064 C 
HETATM    2  C3  UNL     1      26.058   5.266  48.917  1.00  0.00     0.016 C 
HETATM    3  C4  UNL     1      26.840   4.104  49.442  1.00  0.00     0.090 C 
HETATM    4  C5  UNL     1      26.147   3.244  50.381  1.00  0.00     0.069 A 
HETATM    5  N1  UNL     1      26.971   2.682  51.286  1.00  0.00    -0.066 NA
HETATM    6  C6  UNL     1      26.586   1.888  52.285  1.00  0.00     0.729 A 
HETATM    7  N3  UNL     1      25.295   1.554  52.511  1.00  0.00    -0.044 NA
HETATM    8  C13 UNL     1      24.406   2.093  51.630  1.00  0.00     0.163 A 
HETATM    9  C14 UNL     1      24.869   2.891  50.624  1.00  0.00     0.032 A 
HETATM   10  C15 UNL     1      23.830   3.199  49.640  1.00  0.00     0.172 C 
HETATM   11  N4  UNL     1      22.586   3.520  50.262  1.00  0.00    -0.326 N 
HETATM   12  C16 UNL     1      21.789   4.667  49.871  1.00  0.00     0.155 C 
HETATM   13  C17 UNL     1      22.570   5.693  49.196  1.00  0.00    -0.004 C 
HETATM   14  C18 UNL     1      23.711   6.211  48.742  1.00  0.00     0.034 C 
HETATM   15  C19 UNL     1      22.084   2.673  51.288  1.00  0.00     0.327 C 
HETATM   16  O2  UNL     1      20.855   2.614  51.519  1.00  0.00    -0.247 OA
HETATM   17  N5  UNL     1      23.050   1.911  52.026  1.00  0.00    -0.278 N 
ENDROOT
BRANCH   6  18
HETATM   18  N2  UNL     1      27.539   1.339  53.221  1.00  0.00    -0.188 N 
HETATM   19  H7  UNL     1      27.909   1.989  53.928  1.00  0.00     0.184 HD
BRANCH  18  20
HETATM   20  C7  UNL     1      27.927  -0.011  53.165  1.00  0.00     0.049 A 
HETATM   21  C8  UNL     1      27.098  -1.035  52.760  1.00  0.00     0.030 A 
HETATM   22  C9  UNL     1      27.481  -2.354  52.689  1.00  0.00     0.002 A 
HETATM   23  C10 UNL     1      28.796  -2.642  53.058  1.00  0.00     0.000 A 
HETATM   24  C11 UNL     1      29.679  -1.639  53.477  1.00  0.00     0.002 A 
HETATM   25  C12 UNL     1      29.217  -0.340  53.521  1.00  0.00     0.030 A 
ENDBRANCH  18  20
ENDBRANCH   6  18
BRANCH  17  26
HETATM   26  C20 UNL     1      22.685   1.023  53.066  1.00  0.00     0.099 C 
HETATM   27  C21 UNL     1      22.839  -0.467  52.681  1.00  0.00     0.028 C 
HETATM   28  C22 UNL     1      22.148  -1.142  53.872  1.00  0.00     0.034 C 
HETATM   29  C23 UNL     1      21.112  -0.185  54.347  1.00  0.00     0.120 C 
HETATM   30  C24 UNL     1      21.222   1.007  53.432  1.00  0.00     0.057 C 
BRANCH  29  31
HETATM   31  O3  UNL     1      19.829  -0.736  54.336  1.00  0.00    -0.396 OA
HETATM   32  H25 UNL     1      19.730  -1.237  53.497  1.00  0.00     0.210 HD
ENDBRANCH  29  31
ENDBRANCH  17  26
BRANCH   1  33
HETATM   33  O1  UNL     1      25.609   7.374  47.823  1.00  0.00    -0.356 OA
HETATM   34  C1  UNL     1      26.981   7.538  47.577  1.00  0.00     0.210 C 
ENDBRANCH   1  33
TORSDOF 5
ENDMDL
MODEL 3
REMARK VINA RESULT:     -10.2      1.257      1.399
REMARK  5 active torsions:
REMARK  status: ('A' for Active; 'I' for Inactive)
REMARK    1  A    between atoms: O1_2  and  C2_3 
REMARK    2  A    between atoms: C6_8  and  N2_9 
REMARK    3  A    between atoms: N2_9  and  C7_10 
REMARK    4  A    between atoms: N5_26  and  C20_27 
REMARK    5  A    between atoms: C23_30  and  O3_31 
ROOT
HETATM    1  C2  UNL     1      18.597  -0.138  52.395  1.00  0.00     0.064 C 
HETATM    2  C3  UNL     1      19.157   0.622  51.418  1.00  0.00     0.016 C 
HETATM    3  C4  UNL     1      19.967   1.403  50.432  1.00  0.00     0.090 C 
HETATM    4  C5  UNL     1      21.357   1.619  50.782  1.00  0.00     0.069 A 
HETATM    5  N1  UNL     1      21.845   2.780  50.304  1.00  0.00    -0.066 NA
HETATM    6  C6  UNL     1      23.077   3.241  50.519  1.00  0.00     0.729 A 
HETATM    7  N3  UNL     1      23.996   2.582  51.262  1.00  0.00    -0.044 NA
HETATM    8  C13 UNL     1      23.564   1.398  51.780  1.00  0.00     0.163 A 
HETATM    9  C14 UNL     1      22.292   0.981  51.513  1.00  0.00     0.032 A 
HETATM   10  C15 UNL     1      22.061  -0.400  51.942  1.00  0.00     0.172 C 
HETATM   11  N4  UNL     1      22.619  -0.657  53.230  1.00  0.00    -0.326 N 
HETATM   12  C16 UNL     1      21.887  -1.344  54.277  1.00  0.00     0.155 C 
HETATM   13  C17 UNL     1      20.445  -1.284  54.089  1.00  0.00    -0.004 C 
HETATM   14  C18 UNL     1      19.345  -0.878  53.454  1.00  0.00     0.034 C 
HETATM   15  C19 UNL     1      23.955  -0.253  53.502  1.00  0.00     0.327 C 
HETATM   16  O2  UNL     1      24.633  -0.842  54.375  1.00  0.00    -0.247 OA
HETATM   17  N5  UNL     1      24.466   0.846  52.735  1.00  0.00    -0.278 N 
ENDROOT
BRANCH   6  18
HETATM   18  N2  UNL     1      23.514   4.507  49.978  1.00  0.00    -0.188 N 
HETATM   19  H7  UNL     1      22.804   5.250  49.930  1.00  0.00     0.184 HD
BRANCH  18  20
HETATM   20  C7  UNL     1      24.839   4.704  49.550  1.00  0.00     0.049 A 
HETATM   21  C8  UNL     1      25.807   3.722  49.564  1.00  0.00     0.030 A 
HETATM   22  C9  UNL     1      27.098   3.909  49.131  1.00  0.00     0.002 A 
HETATM   23  C10 UNL     1      27.420   5.182  48.656  1.00  0.00     0.000 A 
HETATM   24  C11 UNL     1      26.474   6.214  48.622  1.00  0.00     0.002 A 
HETATM   25  C12 UNL     1      25.199   5.945  49.075  1.00  0.00     0.030 A 
ENDBRANCH  18  20
ENDBRANCH   6  18
BRANCH  17  26
HETATM   26  C20 UNL     1      25.782   1.342  52.898  1.00  0.00     0.099 C 
HETATM   27  C21 UNL     1      26.852   0.481  52.187  1.00  0.00     0.028 C 
HETATM   28  C22 UNL     1      28.137   1.105  52.746  1.00  0.00     0.034 C 
HETATM   29  C23 UNL     1      27.795   1.614  54.102  1.00  0.00     0.120 C 
HETATM   30  C24 UNL     1      26.339   1.278  54.297  1.00  0.00     0.057 C 
BRANCH  29  31
HETATM   31  O3  UNL     1      28.598   1.061  55.100  1.00  0.00    -0.396 OA
HETATM   32  H25 UNL     1      28.933   0.200  54.767  1.00  0.00     0.210 HD
ENDBRANCH  29  31
ENDBRANCH  17  26
BRANCH   1  33
HETATM   33  O1  UNL     1      17.208  -0.301  52.507  1.00  0.00    -0.356 OA
HETATM   34  C1  UNL     1      16.449  -0.397  51.330  1.00  0.00     0.210 C 
ENDBRANCH   1  33
TORSDOF 5
ENDMDL
MODEL 4
REMARK VINA RESULT:     -10.1      1.827      2.629
REMARK  5 active torsions:
REMARK  status: ('A' for Active; 'I' for Inactive)
REMARK    1  A    between atoms: O1_2  and  C2_3 
REMARK    2  A    between atoms: C6_8  and  N2_9 
REMARK    3  A    between atoms: N2_9  and  C7_10 
REMARK    4  A    between atoms: N5_26  and  C20_27 
REMARK    5  A    between atoms: C23_30  and  O3_31 
ROOT
HETATM    1  C2  UNL     1      19.950   2.531  51.956  1.00  0.00     0.064 C 
HETATM    2  C3  UNL     1      20.783   3.080  51.033  1.00  0.00     0.016 C 
HETATM    3  C4  UNL     1      21.858   3.559  50.109  1.00  0.00     0.090 C 
HETATM    4  C5  UNL     1      23.217   3.238  50.496  1.00  0.00     0.069 A 
HETATM    5  N1  UNL     1      24.110   4.163  50.094  1.00  0.00    -0.066 NA
HETATM    6  C6  UNL     1      25.416   4.134  50.357  1.00  0.00     0.729 A 
HETATM    7  N3  UNL     1      26.006   3.152  51.077  1.00  0.00    -0.044 NA
HETATM    8  C13 UNL     1      25.156   2.184  51.519  1.00  0.00     0.163 A 
HETATM    9  C14 UNL     1      23.830   2.270  51.206  1.00  0.00     0.032 A 
HETATM   10  C15 UNL     1      23.099   1.049  51.550  1.00  0.00     0.172 C 
HETATM   11  N4  UNL     1      23.477   0.547  52.832  1.00  0.00    -0.326 N 
HETATM   12  C16 UNL     1      22.507   0.125  53.824  1.00  0.00     0.155 C 
HETATM   13  C17 UNL     1      21.192   0.714  53.614  1.00  0.00    -0.004 C 
HETATM   14  C18 UNL     1      20.339   1.521  52.983  1.00  0.00     0.034 C 
HETATM   15  C19 UNL     1      24.857   0.425  53.150  1.00  0.00     0.327 C 
HETATM   16  O2  UNL     1      25.243  -0.411  54.000  1.00  0.00    -0.247 OA
HETATM   17  N5  UNL     1      25.760   1.298  52.457  1.00  0.00    -0.278 N 
ENDROOT
BRANCH   6  18
HETATM   18  N2  UNL     1      26.301   5.179  49.897  1.00  0.00    -0.188 N 
HETATM   19  H7  UNL     1      27.305   4.954  49.887  1.00  0.00     0.184 HD
BRANCH  18  20
HETATM   20  C7  UNL     1      25.807   6.428  49.483  1.00  0.00     0.049 A 
HETATM   21  C8  UNL     1      25.655   6.799  48.164  1.00  0.00     0.030 A 
HETATM   22  C9  UNL     1      25.157   8.014  47.758  1.00  0.00     0.002 A 
HETATM   23  C10 UNL     1      24.794   8.908  48.767  1.00  0.00     0.000 A 
HETATM   24  C11 UNL     1      24.929   8.582  50.122  1.00  0.00     0.002 A 
HETATM   25  C12 UNL     1      25.437   7.341  50.447  1.00  0.00     0.030 A 
ENDBRANCH  18  20
ENDBRANCH   6  18
BRANCH  17  26
HETATM   26  C20 UNL     1      27.159   1.273  52.671  1.00  0.00     0.099 C 
HETATM   27  C21 UNL     1      27.656  -0.044  53.312  1.00  0.00     0.028 C 
HETATM   28  C22 UNL     1      29.107   0.330  53.640  1.00  0.00     0.034 C 
HETATM   29  C23 UNL     1      29.111   1.797  53.891  1.00  0.00     0.120 C 
HETATM   30  C24 UNL     1      27.681   2.236  53.707  1.00  0.00     0.057 C 
BRANCH  29  31
HETATM   31  O3  UNL     1      29.599   2.122  55.157  1.00  0.00    -0.396 OA
HETATM   32  H25 UNL     1      29.089   1.599  55.814  1.00  0.00     0.210 HD
ENDBRANCH  29  31
ENDBRANCH  17  26
BRANCH   1  33
HETATM   33  O1  UNL     1      18.593   2.879  52.033  1.00  0.00    -0.356 OA
HETATM   34  C1  UNL     1      18.109   3.882  51.179  1.00  0.00     0.210 C 
ENDBRANCH   1  33
TORSDOF 5
ENDMDL
MODEL 5
REMARK VINA RESULT:     -10.1      2.762      5.465
REMARK  5 active torsions:
REMARK  status: ('A' for Active; 'I' for Inactive)
REMARK    1  A    between atoms: O1_2  and  C2_3 
REMARK    2  A    between atoms: C6_8  and  N2_9 
REMARK    3  A    between atoms: N2_9  and  C7_10 
REMARK    4  A    between atoms: N5_26  and  C20_27 
REMARK    5  A    between atoms: C23_30  and  O3_31 
ROOT
HETATM    1  C2  UNL     1      19.138   0.178  52.175  1.00  0.00     0.064 C 
HETATM    2  C3  UNL     1      20.403  -0.061  52.611  1.00  0.00     0.016 C 
HETATM    3  C4  UNL     1      21.837  -0.116  53.030  1.00  0.00     0.090 C 
HETATM    4  C5  UNL     1      22.681   0.960  52.550  1.00  0.00     0.069 A 
HETATM    5  N1  UNL     1      23.959   0.581  52.357  1.00  0.00    -0.066 NA
HETATM    6  C6  UNL     1      24.927   1.361  51.879  1.00  0.00     0.729 A 
HETATM    7  N3  UNL     1      24.731   2.651  51.521  1.00  0.00    -0.044 NA
HETATM    8  C13 UNL     1      23.455   3.099  51.688  1.00  0.00     0.163 A 
HETATM    9  C14 UNL     1      22.513   2.248  52.191  1.00  0.00     0.032 A 
HETATM   10  C15 UNL     1      21.266   2.939  52.524  1.00  0.00     0.172 C 
HETATM   11  N4  UNL     1      20.888   3.872  51.512  1.00  0.00    -0.326 N 
HETATM   12  C16 UNL     1      19.538   3.952  50.988  1.00  0.00     0.155 C 
HETATM   13  C17 UNL     1      18.778   2.727  51.192  1.00  0.00    -0.004 C 
HETATM   14  C18 UNL     1      18.649   1.463  51.593  1.00  0.00     0.034 C 
HETATM   15  C19 UNL     1      21.858   4.781  51.007  1.00  0.00     0.327 C 
HETATM   16  O2  UNL     1      21.506   5.877  50.514  1.00  0.00    -0.247 OA
HETATM   17  N5  UNL     1      23.231   4.374  51.094  1.00  0.00    -0.278 N 
ENDROOT
BRANCH   6  18
HETATM   18  N2  UNL     1      26.271   0.866  51.691  1.00  0.00    -0.188 N 
HETATM   19  H7  UNL     1      26.476   0.442  50.776  1.00  0.00     0.184 HD
BRANCH  18  20
HETATM   20  C7  UNL     1      27.239   0.968  52.705  1.00  0.00     0.049 A 
HETATM   21  C8  UNL     1      27.604  -0.074  53.530  1.00  0.00     0.030 A 
HETATM   22  C9  UNL     1      28.561   0.019  54.512  1.00  0.00     0.002 A 
HETATM   23  C10 UNL     1      29.184   1.260  54.660  1.00  0.00     0.000 A 
HETATM   24  C11 UNL     1      28.849   2.352  53.849  1.00  0.00     0.002 A 
HETATM   25  C12 UNL     1      27.878   2.175  52.886  1.00  0.00     0.030 A 
ENDBRANCH  18  20
ENDBRANCH   6  18
BRANCH  17  26
HETATM   26  C20 UNL     1      24.296   5.188  50.640  1.00  0.00     0.099 C 
HETATM   27  C21 UNL     1      24.235   6.635  51.182  1.00  0.00     0.028 C 
HETATM   28  C22 UNL     1      25.327   7.302  50.337  1.00  0.00     0.034 C 
HETATM   29  C23 UNL     1      25.360   6.566  49.044  1.00  0.00     0.120 C 
HETATM   30  C24 UNL     1      24.298   5.503  49.165  1.00  0.00     0.057 C 
BRANCH  29  31
HETATM   31  O3  UNL     1      25.142   7.400  47.947  1.00  0.00    -0.396 OA
HETATM   32  H25 UNL     1      24.464   8.062  48.209  1.00  0.00     0.210 HD
ENDBRANCH  29  31
ENDBRANCH  17  26
BRANCH   1  33
HETATM   33  O1  UNL     1      18.134  -0.802  52.229  1.00  0.00    -0.356 OA
HETATM   34  C1  UNL     1      18.009  -1.566  53.400  1.00  0.00     0.210 C 
ENDBRANCH   1  33
TORSDOF 5
ENDMDL
MODEL 6
REMARK VINA RESULT:      -9.9      2.816      6.064
REMARK  5 active torsions:
REMARK  status: ('A' for Active; 'I' for Inactive)
REMARK    1  A    between atoms: O1_2  and  C2_3 
REMARK    2  A    between atoms: C6_8  and  N2_9 
REMARK    3  A    between atoms: N2_9  and  C7_10 
REMARK    4  A    between atoms: N5_26  and  C20_27 
REMARK    5  A    between atoms: C23_30  and  O3_31 
ROOT
HETATM    1  C2  UNL     1      25.861  -0.561  53.117  1.00  0.00     0.064 C 
HETATM    2  C3  UNL     1      26.578   0.462  52.581  1.00  0.00     0.016 C 
HETATM    3  C4  UNL     1      27.176   1.697  51.984  1.00  0.00     0.090 C 
HETATM    4  C5  UNL     1      26.236   2.658  51.441  1.00  0.00     0.069 A 
HETATM    5  N1  UNL     1      26.735   3.349  50.398  1.00  0.00    -0.066 NA
HETATM    6  C6  UNL     1      26.066   4.259  49.690  1.00  0.00     0.729 A 
HETATM    7  N3  UNL     1      24.780   4.595  49.942  1.00  0.00    -0.044 NA
HETATM    8  C13 UNL     1      24.213   3.929  50.986  1.00  0.00     0.163 A 
HETATM    9  C14 UNL     1      24.958   3.015  51.675  1.00  0.00     0.032 A 
HETATM   10  C15 UNL     1      24.289   2.562  52.895  1.00  0.00     0.172 C 
HETATM   11  N4  UNL     1      22.902   2.302  52.676  1.00  0.00    -0.326 N 
HETATM   12  C16 UNL     1      22.247   1.099  53.153  1.00  0.00     0.155 C 
HETATM   13  C17 UNL     1      23.180   0.008  53.398  1.00  0.00    -0.004 C 
HETATM   14  C18 UNL     1      24.393  -0.543  53.385  1.00  0.00     0.034 C 
HETATM   15  C19 UNL     1      22.115   3.265  51.987  1.00  0.00     0.327 C 
HETATM   16  O2  UNL     1      20.879   3.331  52.178  1.00  0.00    -0.247 OA
HETATM   17  N5  UNL     1      22.807   4.135  51.080  1.00  0.00    -0.278 N 
ENDROOT
BRANCH   6  18
HETATM   18  N2  UNL     1      26.676   4.943  48.574  1.00  0.00    -0.188 N 
HETATM   19  H7  UNL     1      26.661   4.448  47.672  1.00  0.00     0.184 HD
BRANCH  18  20
HETATM   20  C7  UNL     1      27.250   6.218  48.721  1.00  0.00     0.049 A 
HETATM   21  C8  UNL     1      26.625   7.277  49.344  1.00  0.00     0.030 A 
HETATM   22  C9  UNL     1      27.190   8.520  49.503  1.00  0.00     0.002 A 
HETATM   23  C10 UNL     1      28.478   8.690  48.990  1.00  0.00     0.000 A 
HETATM   24  C11 UNL     1      29.156   7.647  48.347  1.00  0.00     0.002 A 
HETATM   25  C12 UNL     1      28.519   6.429  48.228  1.00  0.00     0.030 A 
ENDBRANCH  18  20
ENDBRANCH   6  18
BRANCH  17  26
HETATM   26  C20 UNL     1      22.145   5.144  50.340  1.00  0.00     0.099 C 
HETATM   27  C21 UNL     1      21.882   6.430  51.158  1.00  0.00     0.028 C 
HETATM   28  C22 UNL     1      20.963   7.195  50.197  1.00  0.00     0.034 C 
HETATM   29  C23 UNL     1      20.224   6.163  49.420  1.00  0.00     0.120 C 
HETATM   30  C24 UNL     1      20.724   4.840  49.940  1.00  0.00     0.057 C 
BRANCH  29  31
HETATM   31  O3  UNL     1      18.840   6.286  49.547  1.00  0.00    -0.396 OA
HETATM   32  H25 UNL     1      18.433   5.891  48.744  1.00  0.00     0.210 HD
ENDBRANCH  29  31
ENDBRANCH  17  26
BRANCH   1  33
HETATM   33  O1  UNL     1      26.458  -1.779  53.478  1.00  0.00    -0.356 OA
HETATM   34  C1  UNL     1      27.369  -2.367  52.588  1.00  0.00     0.210 C 
ENDBRANCH   1  33
TORSDOF 5
ENDMDL
MODEL 7
REMARK VINA RESULT:      -9.6      3.430      5.994
REMARK  5 active torsions:
REMARK  status: ('A' for Active; 'I' for Inactive)
REMARK    1  A    between atoms: O1_2  and  C2_3 
REMARK    2  A    between atoms: C6_8  and  N2_9 
REMARK    3  A    between atoms: N2_9  and  C7_10 
REMARK    4  A    between atoms: N5_26  and  C20_27 
REMARK    5  A    between atoms: C23_30  and  O3_31 
ROOT
HETATM    1  C2  UNL     1      21.777  -0.385  53.494  1.00  0.00     0.064 C 
HETATM    2  C3  UNL     1      22.851   0.436  53.355  1.00  0.00     0.016 C 
HETATM    3  C4  UNL     1      23.919   1.433  53.035  1.00  0.00     0.090 C 
HETATM    4  C5  UNL     1      23.785   2.124  51.768  1.00  0.00     0.069 A 
HETATM    5  N1  UNL     1      24.971   2.457  51.223  1.00  0.00    -0.066 NA
HETATM    6  C6  UNL     1      25.132   3.056  50.044  1.00  0.00     0.729 A 
HETATM    7  N3  UNL     1      24.100   3.402  49.240  1.00  0.00    -0.044 NA
HETATM    8  C13 UNL     1      22.869   3.089  49.732  1.00  0.00     0.163 A 
HETATM    9  C14 UNL     1      22.775   2.483  50.952  1.00  0.00     0.032 A 
HETATM   10  C15 UNL     1      21.394   2.424  51.436  1.00  0.00     0.172 C 
HETATM   11  N4  UNL     1      20.484   2.048  50.403  1.00  0.00    -0.326 N 
HETATM   12  C16 UNL     1      19.459   1.040  50.594  1.00  0.00     0.155 C 
HETATM   13  C17 UNL     1      19.759   0.130  51.689  1.00  0.00    -0.004 C 
HETATM   14  C18 UNL     1      20.539  -0.343  52.661  1.00  0.00     0.034 C 
HETATM   15  C19 UNL     1      20.557   2.699  49.141  1.00  0.00     0.327 C 
HETATM   16  O2  UNL     1      19.548   2.771  48.403  1.00  0.00    -0.247 OA
HETATM   17  N5  UNL     1      21.828   3.254  48.774  1.00  0.00    -0.278 N 
ENDROOT
BRANCH   6  18
HETATM   18  N2  UNL     1      26.445   3.365  49.528  1.00  0.00    -0.188 N 
HETATM   19  H7  UNL     1      27.106   2.578  49.463  1.00  0.00     0.184 HD
BRANCH  18  20
HETATM   20  C7  UNL     1      26.790   4.670  49.133  1.00  0.00     0.049 A 
HETATM   21  C8  UNL     1      25.980   5.770  49.316  1.00  0.00     0.030 A 
HETATM   22  C9  UNL     1      26.322   7.048  48.946  1.00  0.00     0.002 A 
HETATM   23  C10 UNL     1      27.573   7.211  48.347  1.00  0.00     0.000 A 
HETATM   24  C11 UNL     1      28.434   6.126  48.137  1.00  0.00     0.002 A 
HETATM   25  C12 UNL     1      28.016   4.874  48.538  1.00  0.00     0.030 A 
ENDBRANCH  18  20
ENDBRANCH   6  18
BRANCH  17  26
HETATM   26  C20 UNL     1      22.035   3.938  47.551  1.00  0.00     0.099 C 
HETATM   27  C21 UNL     1      20.947   4.994  47.248  1.00  0.00     0.028 C 
HETATM   28  C22 UNL     1      21.298   5.356  45.800  1.00  0.00     0.034 C 
HETATM   29  C23 UNL     1      21.904   4.136  45.202  1.00  0.00     0.120 C 
HETATM   30  C24 UNL     1      21.891   3.106  46.302  1.00  0.00     0.057 C 
BRANCH  29  31
HETATM   31  O3  UNL     1      21.220   3.698  44.068  1.00  0.00    -0.396 OA
HETATM   32  H25 UNL     1      20.723   4.465  43.708  1.00  0.00     0.210 HD
ENDBRANCH  29  31
ENDBRANCH  17  26
BRANCH   1  33
HETATM   33  O1  UNL     1      21.732  -1.392  54.471  1.00  0.00    -0.356 OA
HETATM   34  C1  UNL     1      22.805  -1.501  55.369  1.00  0.00     0.210 C 
ENDBRANCH   1  33
TORSDOF 5
ENDMDL
MODEL 8
REMARK VINA RESULT:      -9.5      4.714     10.307
REMARK  5 active torsions:
REMARK  status: ('A' for Active; 'I' for Inactive)
REMARK    1  A    between atoms: O1_2  and  C2_3 
REMARK    2  A    between atoms: C6_8  and  N2_9 
REMARK    3  A    between atoms: N2_9  and  C7_10 
REMARK    4  A    between atoms: N5_26  and  C20_27 
REMARK    5  A    between atoms: C23_30  and  O3_31 
ROOT
HETATM    1  C2  UNL     1      32.016   7.617  48.531  1.00  0.00     0.064 C 
HETATM    2  C3  UNL     1      31.282   6.521  48.204  1.00  0.00     0.016 C 
HETATM    3  C4  UNL     1      30.298   5.442  47.879  1.00  0.00     0.090 C 
HETATM    4  C5  UNL     1      28.923   5.700  48.261  1.00  0.00     0.069 A 
HETATM    5  N1  UNL     1      28.246   4.580  48.575  1.00  0.00    -0.066 NA
HETATM    6  C6  UNL     1      26.984   4.540  49.001  1.00  0.00     0.729 A 
HETATM    7  N3  UNL     1      26.225   5.646  49.175  1.00  0.00    -0.044 NA
HETATM    8  C13 UNL     1      26.853   6.818  48.877  1.00  0.00     0.163 A 
HETATM    9  C14 UNL     1      28.145   6.786  48.437  1.00  0.00     0.032 A 
HETATM   10  C15 UNL     1      28.594   8.090  47.945  1.00  0.00     0.172 C 
HETATM   11  N4  UNL     1      28.180   9.153  48.802  1.00  0.00    -0.326 N 
HETATM   12  C16 UNL     1      29.080  10.206  49.232  1.00  0.00     0.155 C 
HETATM   13  C17 UNL     1      30.481   9.822  49.147  1.00  0.00    -0.004 C 
HETATM   14  C18 UNL     1      31.461   8.950  48.910  1.00  0.00     0.034 C 
HETATM   15  C19 UNL     1      26.827   9.208  49.238  1.00  0.00     0.327 C 
HETATM   16  O2  UNL     1      26.307  10.301  49.561  1.00  0.00    -0.247 OA
HETATM   17  N5  UNL     1      26.113   7.965  49.284  1.00  0.00    -0.278 N 
ENDROOT
BRANCH   6  18
HETATM   18  N2  UNL     1      26.338   3.291  49.331  1.00  0.00    -0.188 N 
HETATM   19  H7  UNL     1      26.804   2.435  48.999  1.00  0.00     0.184 HD
BRANCH  18  20
HETATM   20  C7  UNL     1      25.142   3.256  50.069  1.00  0.00     0.049 A 
HETATM   21  C8  UNL     1      23.888   3.180  49.502  1.00  0.00     0.030 A 
HETATM   22  C9  UNL     1      22.718   3.130  50.223  1.00  0.00     0.002 A 
HETATM   23  C10 UNL     1      22.841   3.162  51.614  1.00  0.00     0.000 A 
HETATM   24  C11 UNL     1      24.091   3.239  52.240  1.00  0.00     0.002 A 
HETATM   25  C12 UNL     1      25.217   3.286  51.445  1.00  0.00     0.030 A 
ENDBRANCH  18  20
ENDBRANCH   6  18
BRANCH  17  26
HETATM   26  C20 UNL     1      24.759   7.880  49.688  1.00  0.00     0.099 C 
HETATM   27  C21 UNL     1      24.528   6.886  50.851  1.00  0.00     0.028 C 
HETATM   28  C22 UNL     1      22.996   6.831  50.877  1.00  0.00     0.034 C 
HETATM   29  C23 UNL     1      22.547   7.082  49.481  1.00  0.00     0.120 C 
HETATM   30  C24 UNL     1      23.812   7.273  48.685  1.00  0.00     0.057 C 
BRANCH  29  31
HETATM   31  O3  UNL     1      21.763   6.043  48.976  1.00  0.00    -0.396 OA
HETATM   32  H25 UNL     1      22.216   5.199  49.191  1.00  0.00     0.210 HD
ENDBRANCH  29  31
ENDBRANCH  17  26
BRANCH   1  33
HETATM   33  O1  UNL     1      33.419   7.595  48.549  1.00  0.00    -0.356 OA
HETATM   34  C1  UNL     1      34.068   6.352  48.605  1.00  0.00     0.210 C 
ENDBRANCH   1  33
TORSDOF 5
ENDMDL
MODEL 9
REMARK VINA RESULT:      -9.5      2.787      9.060
REMARK  5 active torsions:
REMARK  status: ('A' for Active; 'I' for Inactive)
REMARK    1  A    between atoms: O1_2  and  C2_3 
REMARK    2  A    between atoms: C6_8  and  N2_9 
REMARK    3  A    between atoms: N2_9  and  C7_10 
REMARK    4  A    between atoms: N5_26  and  C20_27 
REMARK    5  A    between atoms: C23_30  and  O3_31 
ROOT
HETATM    1  C2  UNL     1      25.420   1.415  53.571  1.00  0.00     0.064 C 
HETATM    2  C3  UNL     1      24.618   0.319  53.624  1.00  0.00     0.016 C 
HETATM    3  C4  UNL     1      23.591  -0.767  53.563  1.00  0.00     0.090 C 
HETATM    4  C5  UNL     1      22.268  -0.367  53.128  1.00  0.00     0.069 A 
HETATM    5  N1  UNL     1      21.286  -1.102  53.684  1.00  0.00    -0.066 NA
HETATM    6  C6  UNL     1      19.981  -0.913  53.488  1.00  0.00     0.729 A 
HETATM    7  N3  UNL     1      19.484   0.063  52.695  1.00  0.00    -0.044 NA
HETATM    8  C13 UNL     1      20.427   0.848  52.103  1.00  0.00     0.163 A 
HETATM    9  C14 UNL     1      21.747   0.594  52.339  1.00  0.00     0.032 A 
HETATM   10  C15 UNL     1      22.626   1.367  51.459  1.00  0.00     0.172 C 
HETATM   11  N4  UNL     1      22.192   2.721  51.330  1.00  0.00    -0.326 N 
HETATM   12  C16 UNL     1      23.100   3.846  51.445  1.00  0.00     0.155 C 
HETATM   13  C17 UNL     1      24.315   3.520  52.178  1.00  0.00    -0.004 C 
HETATM   14  C18 UNL     1      25.089   2.701  52.889  1.00  0.00     0.034 C 
HETATM   15  C19 UNL     1      20.824   2.989  51.053  1.00  0.00     0.327 C 
HETATM   16  O2  UNL     1      20.488   4.049  50.476  1.00  0.00    -0.247 OA
HETATM   17  N5  UNL     1      19.875   1.996  51.466  1.00  0.00    -0.278 N 
ENDROOT
BRANCH   6  18
HETATM   18  N2  UNL     1      18.994  -1.743  54.139  1.00  0.00    -0.188 N 
HETATM   19  H7  UNL     1      19.212  -2.042  55.099  1.00  0.00     0.184 HD
BRANCH  18  20
HETATM   20  C7  UNL     1      17.802  -2.110  53.489  1.00  0.00     0.049 A 
HETATM   21  C8  UNL     1      17.028  -1.241  52.750  1.00  0.00     0.030 A 
HETATM   22  C9  UNL     1      15.871  -1.602  52.102  1.00  0.00     0.002 A 
HETATM   23  C10 UNL     1      15.481  -2.937  52.219  1.00  0.00     0.000 A 
HETATM   24  C11 UNL     1      16.231  -3.860  52.958  1.00  0.00     0.002 A 
HETATM   25  C12 UNL     1      17.380  -3.418  53.579  1.00  0.00     0.030 A 
ENDBRANCH  18  20
ENDBRANCH   6  18
BRANCH  17  26
HETATM   26  C20 UNL     1      18.483   2.133  51.241  1.00  0.00     0.099 C 
HETATM   27  C21 UNL     1      18.089   2.006  49.750  1.00  0.00     0.028 C 
HETATM   28  C22 UNL     1      16.620   2.442  49.807  1.00  0.00     0.034 C 
HETATM   29  C23 UNL     1      16.515   3.401  50.940  1.00  0.00     0.120 C 
HETATM   30  C24 UNL     1      17.907   3.501  51.507  1.00  0.00     0.057 C 
BRANCH  29  31
HETATM   31  O3  UNL     1      16.021   4.645  50.545  1.00  0.00    -0.396 OA
HETATM   32  H25 UNL     1      16.391   5.318  51.157  1.00  0.00     0.210 HD
ENDBRANCH  29  31
ENDBRANCH  17  26
BRANCH   1  33
HETATM   33  O1  UNL     1      26.684   1.442  54.181  1.00  0.00    -0.356 OA
HETATM   34  C1  UNL     1      27.271   0.224  54.557  1.00  0.00     0.210 C 
ENDBRANCH   1  33
TORSDOF 5
ENDMDL
