MODEL 1
REMARK VINA RESULT:      -8.4      0.000      0.000
REMARK  3 active torsions:
REMARK  status: ('A' for Active; 'I' for Inactive)
REMARK    1  A    between atoms: C3_3  and  N1_4 
REMARK    2  A    between atoms: C12_14  and  C13_15 
REMARK    3  A    between atoms: C18_22  and  C19_23 
ROOT
HETATM    1  N1  UNL     1      23.431   5.562  50.728  1.00  0.00    -0.327 N 
HETATM    2  C4  UNL     1      22.842   4.678  51.673  1.00  0.00     0.148 C 
HETATM    3  C5  UNL     1      23.540   4.184  52.746  1.00  0.00     0.083 C 
HETATM    4  C6  UNL     1      24.234   2.961  52.224  1.00  0.00     0.042 C 
HETATM    5  N2  UNL     1      24.024   1.726  52.165  1.00  0.00    -0.251 NA
HETATM    6  C7  UNL     1      22.986   0.907  52.587  1.00  0.00     0.090 A 
HETATM    7  C8  UNL     1      21.599   0.812  52.316  1.00  0.00     0.059 A 
HETATM    8  C9  UNL     1      20.813  -0.153  52.877  1.00  0.00     0.031 A 
HETATM    9  C10 UNL     1      21.318  -1.089  53.743  1.00  0.00     0.003 A 
HETATM   10  C11 UNL     1      22.659  -1.036  54.039  1.00  0.00     0.010 A 
HETATM   11  C12 UNL     1      23.487  -0.058  53.475  1.00  0.00    -0.024 A 
HETATM   12  N3  UNL     1      21.315   1.910  51.420  1.00  0.00    -0.366 N 
HETATM   13  C16 UNL     1      21.219   3.061  52.277  1.00  0.00     0.300 C 
HETATM   14  O1  UNL     1      21.479   4.267  51.522  1.00  0.00    -0.316 OA
HETATM   15  C17 UNL     1      25.534   3.342  51.586  1.00  0.00     0.095 C 
HETATM   16  C18 UNL     1      25.350   4.131  50.338  1.00  0.00     0.090 C 
HETATM   17  N4  UNL     1      26.643   4.391  49.734  1.00  0.00    -0.385 N 
HETATM   18  C20 UNL     1      26.303   5.421  48.778  1.00  0.00     0.082 C 
HETATM   19  C21 UNL     1      25.252   6.132  49.227  1.00  0.00     0.018 C 
HETATM   20  C22 UNL     1      24.878   5.558  50.527  1.00  0.00     0.146 C 
HETATM   21  H17 UNL     1      21.340   1.248  50.629  1.00  0.00     0.162 HD
HETATM   22  H23 UNL     1      27.678   4.157  49.701  1.00  0.00     0.159 HD
ENDROOT
BRANCH   1  23
HETATM   23  C3  UNL     1      22.379   6.321  50.132  1.00  0.00     0.089 C 
HETATM   24  C2  UNL     1      22.044   7.513  50.529  1.00  0.00    -0.014 C 
HETATM   25  C1  UNL     1      20.945   8.330  49.921  1.00  0.00     0.037 C 
ENDBRANCH   1  23
BRANCH  16  26
HETATM   26  C19 UNL     1      24.420   3.502  49.372  1.00  0.00     0.424 C 
HETATM   27  O2  UNL     1      23.592   2.786  48.833  1.00  0.00    -0.428 OA
ENDBRANCH  16  26
BRANCH  11  28
HETATM   28  C13 UNL     1      24.900  -0.187  53.932  1.00  0.00     0.013 C 
HETATM   29  C14 UNL     1      24.992  -0.911  55.256  1.00  0.00     0.015 C 
HETATM   30  C15 UNL     1      25.747  -0.951  52.956  1.00  0.00     0.015 C 
ENDBRANCH  11  28
TORSDOF 3
ENDMDL
MODEL 2
REMARK VINA RESULT:      -8.1      1.652      4.093
REMARK  3 active torsions:
REMARK  status: ('A' for Active; 'I' for Inactive)
REMARK    1  A    between atoms: C3_3  and  N1_4 
REMARK    2  A    between atoms: C12_14  and  C13_15 
REMARK    3  A    between atoms: C18_22  and  C19_23 
ROOT
HETATM    1  N1  UNL     1      25.158   5.568  49.335  1.00  0.00    -0.327 N 
HETATM    2  C4  UNL     1      25.223   4.201  49.720  1.00  0.00     0.148 C 
HETATM    3  C5  UNL     1      24.244   3.300  49.385  1.00  0.00     0.083 C 
HETATM    4  C6  UNL     1      23.216   3.427  50.470  1.00  0.00     0.042 C 
HETATM    5  N2  UNL     1      22.943   2.872  51.562  1.00  0.00    -0.251 NA
HETATM    6  C7  UNL     1      23.517   1.833  52.281  1.00  0.00     0.090 A 
HETATM    7  C8  UNL     1      24.786   1.584  52.861  1.00  0.00     0.059 A 
HETATM    8  C9  UNL     1      25.053   0.443  53.561  1.00  0.00     0.031 A 
HETATM    9  C10 UNL     1      24.110  -0.536  53.744  1.00  0.00     0.003 A 
HETATM   10  C11 UNL     1      22.864  -0.340  53.197  1.00  0.00     0.010 A 
HETATM   11  C12 UNL     1      22.564   0.822  52.477  1.00  0.00    -0.024 A 
HETATM   12  N3  UNL     1      25.592   2.729  52.504  1.00  0.00    -0.366 N 
HETATM   13  C16 UNL     1      25.998   2.476  51.148  1.00  0.00     0.300 C 
HETATM   14  O1  UNL     1      26.331   3.720  50.488  1.00  0.00    -0.316 OA
HETATM   15  C17 UNL     1      22.266   4.539  50.151  1.00  0.00     0.095 C 
HETATM   16  C18 UNL     1      22.915   5.878  50.203  1.00  0.00     0.090 C 
HETATM   17  N4  UNL     1      21.920   6.908  49.966  1.00  0.00    -0.385 N 
HETATM   18  C20 UNL     1      22.762   8.055  49.710  1.00  0.00     0.082 C 
HETATM   19  C21 UNL     1      23.929   7.655  49.173  1.00  0.00     0.018 C 
HETATM   20  C22 UNL     1      23.865   6.191  49.065  1.00  0.00     0.146 C 
HETATM   21  H17 UNL     1      25.429   3.115  53.447  1.00  0.00     0.162 HD
HETATM   22  H23 UNL     1      20.891   7.158  49.904  1.00  0.00     0.159 HD
ENDROOT
BRANCH   1  23
HETATM   23  C3  UNL     1      26.495   6.070  49.300  1.00  0.00     0.089 C 
HETATM   24  C2  UNL     1      27.211   6.119  48.216  1.00  0.00    -0.014 C 
HETATM   25  C1  UNL     1      28.614   6.641  48.153  1.00  0.00     0.037 C 
ENDBRANCH   1  23
BRANCH  16  26
HETATM   26  C19 UNL     1      23.661   6.126  51.458  1.00  0.00     0.424 C 
HETATM   27  O2  UNL     1      24.097   6.074  52.596  1.00  0.00    -0.428 OA
ENDBRANCH  16  26
BRANCH  11  28
HETATM   28  C13 UNL     1      21.160   0.824  51.976  1.00  0.00     0.013 C 
HETATM   29  C14 UNL     1      21.074   0.308  50.558  1.00  0.00     0.015 C 
HETATM   30  C15 UNL     1      20.256  -0.038  52.810  1.00  0.00     0.015 C 
ENDBRANCH  11  28
TORSDOF 3
ENDMDL
MODEL 3
REMARK VINA RESULT:      -8.0      1.792      6.817
REMARK  3 active torsions:
REMARK  status: ('A' for Active; 'I' for Inactive)
REMARK    1  A    between atoms: C3_3  and  N1_4 
REMARK    2  A    between atoms: C12_14  and  C13_15 
REMARK    3  A    between atoms: C18_22  and  C19_23 
ROOT
HETATM    1  N1  UNL     1      22.034   2.295  52.448  1.00  0.00    -0.327 N 
HETATM    2  C4  UNL     1      23.312   2.880  52.235  1.00  0.00     0.148 C 
HETATM    3  C5  UNL     1      23.558   4.208  52.475  1.00  0.00     0.083 C 
HETATM    4  C6  UNL     1      23.167   4.907  51.207  1.00  0.00     0.042 C 
HETATM    5  N2  UNL     1      23.721   5.297  50.151  1.00  0.00    -0.251 NA
HETATM    6  C7  UNL     1      25.022   5.243  49.673  1.00  0.00     0.090 A 
HETATM    7  C8  UNL     1      25.948   4.212  49.376  1.00  0.00     0.059 A 
HETATM    8  C9  UNL     1      27.189   4.474  48.869  1.00  0.00     0.031 A 
HETATM    9  C10 UNL     1      27.617   5.754  48.619  1.00  0.00     0.003 A 
HETATM   10  C11 UNL     1      26.754   6.787  48.893  1.00  0.00     0.010 A 
HETATM   11  C12 UNL     1      25.476   6.545  49.412  1.00  0.00    -0.024 A 
HETATM   12  N3  UNL     1      25.280   2.988  49.751  1.00  0.00    -0.366 N 
HETATM   13  C16 UNL     1      25.433   2.915  51.179  1.00  0.00     0.300 C 
HETATM   14  O1  UNL     1      24.397   2.082  51.749  1.00  0.00    -0.316 OA
HETATM   15  C17 UNL     1      21.700   5.204  51.216  1.00  0.00     0.095 C 
HETATM   16  C18 UNL     1      20.867   3.973  51.141  1.00  0.00     0.090 C 
HETATM   17  N4  UNL     1      19.465   4.339  51.070  1.00  0.00    -0.385 N 
HETATM   18  C20 UNL     1      18.830   3.072  51.353  1.00  0.00     0.082 C 
HETATM   19  C21 UNL     1      19.625   2.328  52.143  1.00  0.00     0.018 C 
HETATM   20  C22 UNL     1      20.833   3.126  52.398  1.00  0.00     0.146 C 
HETATM   21  H17 UNL     1      25.049   2.830  48.758  1.00  0.00     0.162 HD
HETATM   22  H23 UNL     1      18.749   5.106  50.907  1.00  0.00     0.159 HD
ENDROOT
BRANCH   1  23
HETATM   23  C3  UNL     1      22.230   0.901  52.681  1.00  0.00     0.089 C 
HETATM   24  C2  UNL     1      22.058   0.339  53.841  1.00  0.00    -0.014 C 
HETATM   25  C1  UNL     1      22.257  -1.122  54.111  1.00  0.00     0.037 C 
ENDBRANCH   1  23
BRANCH  16  26
HETATM   26  C19 UNL     1      21.245   3.068  50.031  1.00  0.00     0.424 C 
HETATM   27  O2  UNL     1      21.806   2.536  49.088  1.00  0.00    -0.428 OA
ENDBRANCH  16  26
BRANCH  11  28
HETATM   28  C13 UNL     1      24.713   7.806  49.633  1.00  0.00     0.013 C 
HETATM   29  C14 UNL     1      25.608   8.918  50.130  1.00  0.00     0.015 C 
HETATM   30  C15 UNL     1      24.056   8.303  48.377  1.00  0.00     0.015 C 
ENDBRANCH  11  28
TORSDOF 3
ENDMDL
MODEL 4
REMARK VINA RESULT:      -7.9      2.575      3.267
REMARK  3 active torsions:
REMARK  status: ('A' for Active; 'I' for Inactive)
REMARK    1  A    between atoms: C3_3  and  N1_4 
REMARK    2  A    between atoms: C12_14  and  C13_15 
REMARK    3  A    between atoms: C18_22  and  C19_23 
ROOT
HETATM    1  N1  UNL     1      20.383   3.290  50.471  1.00  0.00    -0.327 N 
HETATM    2  C4  UNL     1      20.803   2.794  51.735  1.00  0.00     0.148 C 
HETATM    3  C5  UNL     1      22.020   3.118  52.280  1.00  0.00     0.083 C 
HETATM    4  C6  UNL     1      22.976   2.113  51.709  1.00  0.00     0.042 C 
HETATM    5  N2  UNL     1      23.458   1.000  52.031  1.00  0.00    -0.251 NA
HETATM    6  C7  UNL     1      23.298   0.166  53.128  1.00  0.00     0.090 A 
HETATM    7  C8  UNL     1      22.210  -0.511  53.735  1.00  0.00     0.059 A 
HETATM    8  C9  UNL     1      22.373  -1.315  54.826  1.00  0.00     0.031 A 
HETATM    9  C10 UNL     1      23.600  -1.515  55.406  1.00  0.00     0.003 A 
HETATM   10  C11 UNL     1      24.685  -0.877  54.854  1.00  0.00     0.010 A 
HETATM   11  C12 UNL     1      24.546  -0.049  53.734  1.00  0.00    -0.024 A 
HETATM   12  N3  UNL     1      21.050  -0.116  52.971  1.00  0.00    -0.366 N 
HETATM   13  C16 UNL     1      20.711   1.188  53.475  1.00  0.00     0.300 C 
HETATM   14  O1  UNL     1      19.952   1.922  52.486  1.00  0.00    -0.316 OA
HETATM   15  C17 UNL     1      23.477   2.579  50.378  1.00  0.00     0.095 C 
HETATM   16  C18 UNL     1      22.411   2.593  49.339  1.00  0.00     0.090 C 
HETATM   17  N4  UNL     1      22.985   2.974  48.061  1.00  0.00    -0.385 N 
HETATM   18  C20 UNL     1      21.794   3.266  47.296  1.00  0.00     0.082 C 
HETATM   19  C21 UNL     1      20.817   3.695  48.116  1.00  0.00     0.018 C 
HETATM   20  C22 UNL     1      21.375   3.690  49.477  1.00  0.00     0.146 C 
HETATM   21  H17 UNL     1      21.101  -1.012  52.463  1.00  0.00     0.162 HD
HETATM   22  H23 UNL     1      23.863   3.120  47.484  1.00  0.00     0.159 HD
ENDROOT
BRANCH   1  23
HETATM   23  C3  UNL     1      18.955   3.281  50.456  1.00  0.00     0.089 C 
HETATM   24  C2  UNL     1      18.231   4.330  50.714  1.00  0.00    -0.014 C 
HETATM   25  C1  UNL     1      16.732   4.346  50.706  1.00  0.00     0.037 C 
ENDBRANCH   1  23
BRANCH  16  26
HETATM   26  C19 UNL     1      21.666   1.317  49.238  1.00  0.00     0.424 C 
HETATM   27  O2  UNL     1      21.190   0.214  49.449  1.00  0.00    -0.428 OA
ENDBRANCH  16  26
BRANCH  11  28
HETATM   28  C13 UNL     1      25.847   0.538  53.305  1.00  0.00     0.013 C 
HETATM   29  C14 UNL     1      26.785   0.726  54.476  1.00  0.00     0.015 C 
HETATM   30  C15 UNL     1      26.562  -0.329  52.308  1.00  0.00     0.015 C 
ENDBRANCH  11  28
TORSDOF 3
ENDMDL
MODEL 5
REMARK VINA RESULT:      -7.8      8.226     11.286
REMARK  3 active torsions:
REMARK  status: ('A' for Active; 'I' for Inactive)
REMARK    1  A    between atoms: C3_3  and  N1_4 
REMARK    2  A    between atoms: C12_14  and  C13_15 
REMARK    3  A    between atoms: C18_22  and  C19_23 
ROOT
HETATM    1  N1  UNL     1      32.497   5.306  47.365  1.00  0.00    -0.327 N 
HETATM    2  C4  UNL     1      31.321   6.071  47.131  1.00  0.00     0.148 C 
HETATM    3  C5  UNL     1      31.357   7.300  46.522  1.00  0.00     0.083 C 
HETATM    4  C6  UNL     1      31.616   8.273  47.634  1.00  0.00     0.042 C 
HETATM    5  N2  UNL     1      30.949   9.001  48.407  1.00  0.00    -0.251 NA
HETATM    6  C7  UNL     1      29.591   9.233  48.575  1.00  0.00     0.090 A 
HETATM    7  C8  UNL     1      28.462   8.439  48.899  1.00  0.00     0.059 A 
HETATM    8  C9  UNL     1      27.213   8.972  49.030  1.00  0.00     0.031 A 
HETATM    9  C10 UNL     1      26.971  10.312  48.853  1.00  0.00     0.003 A 
HETATM   10  C11 UNL     1      28.035  11.121  48.536  1.00  0.00     0.010 A 
HETATM   11  C12 UNL     1      29.327  10.599  48.398  1.00  0.00    -0.024 A 
HETATM   12  N3  UNL     1      28.968   7.089  48.998  1.00  0.00    -0.366 N 
HETATM   13  C16 UNL     1      29.078   6.643  47.635  1.00  0.00     0.300 C 
HETATM   14  O1  UNL     1      30.043   5.570  47.539  1.00  0.00    -0.316 OA
HETATM   15  C17 UNL     1      33.088   8.384  47.886  1.00  0.00     0.095 C 
HETATM   16  C18 UNL     1      33.668   7.133  48.449  1.00  0.00     0.090 C 
HETATM   17  N4  UNL     1      35.073   7.341  48.744  1.00  0.00    -0.385 N 
HETATM   18  C20 UNL     1      35.522   5.980  48.934  1.00  0.00     0.082 C 
HETATM   19  C21 UNL     1      34.774   5.144  48.192  1.00  0.00     0.018 C 
HETATM   20  C22 UNL     1      33.791   5.974  47.481  1.00  0.00     0.146 C 
HETATM   21  H17 UNL     1      28.978   7.187  50.025  1.00  0.00     0.162 HD
HETATM   22  H23 UNL     1      35.866   8.034  48.872  1.00  0.00     0.159 HD
ENDROOT
BRANCH   1  23
HETATM   23  C3  UNL     1      32.111   3.934  47.444  1.00  0.00     0.089 C 
HETATM   24  C2  UNL     1      32.359   3.067  46.507  1.00  0.00    -0.014 C 
HETATM   25  C1  UNL     1      31.965   1.622  46.566  1.00  0.00     0.037 C 
ENDBRANCH   1  23
BRANCH  16  26
HETATM   26  C19 UNL     1      32.937   6.622  49.631  1.00  0.00     0.424 C 
HETATM   27  O2  UNL     1      32.075   6.243  50.407  1.00  0.00    -0.428 OA
ENDBRANCH  16  26
BRANCH  11  28
HETATM   28  C13 UNL     1      30.323  11.653  48.052  1.00  0.00     0.013 C 
HETATM   29  C14 UNL     1      29.875  12.475  46.866  1.00  0.00     0.015 C 
HETATM   30  C15 UNL     1      30.556  12.611  49.186  1.00  0.00     0.015 C 
ENDBRANCH  11  28
TORSDOF 3
ENDMDL
MODEL 6
REMARK VINA RESULT:      -7.7      1.702      6.356
REMARK  3 active torsions:
REMARK  status: ('A' for Active; 'I' for Inactive)
REMARK    1  A    between atoms: C3_3  and  N1_4 
REMARK    2  A    between atoms: C12_14  and  C13_15 
REMARK    3  A    between atoms: C18_22  and  C19_23 
ROOT
HETATM    1  N1  UNL     1      23.676   0.760  52.444  1.00  0.00    -0.327 N 
HETATM    2  C4  UNL     1      22.968   1.762  51.725  1.00  0.00     0.148 C 
HETATM    3  C5  UNL     1      23.331   2.147  50.459  1.00  0.00     0.083 C 
HETATM    4  C6  UNL     1      24.373   3.207  50.662  1.00  0.00     0.042 C 
HETATM    5  N2  UNL     1      24.424   4.458  50.741  1.00  0.00    -0.251 NA
HETATM    6  C7  UNL     1      23.471   5.465  50.669  1.00  0.00     0.090 A 
HETATM    7  C8  UNL     1      22.304   5.806  51.396  1.00  0.00     0.059 A 
HETATM    8  C9  UNL     1      21.562   6.913  51.101  1.00  0.00     0.031 A 
HETATM    9  C10 UNL     1      21.899   7.763  50.078  1.00  0.00     0.003 A 
HETATM   10  C11 UNL     1      23.023   7.471  49.342  1.00  0.00     0.010 A 
HETATM   11  C12 UNL     1      23.802   6.344  49.626  1.00  0.00    -0.024 A 
HETATM   12  N3  UNL     1      22.152   4.756  52.377  1.00  0.00    -0.366 N 
HETATM   13  C16 UNL     1      21.559   3.665  51.651  1.00  0.00     0.300 C 
HETATM   14  O1  UNL     1      21.839   2.413  52.318  1.00  0.00    -0.316 OA
HETATM   15  C17 UNL     1      25.721   2.577  50.829  1.00  0.00     0.095 C 
HETATM   16  C18 UNL     1      25.837   1.803  52.096  1.00  0.00     0.090 C 
HETATM   17  N4  UNL     1      27.189   1.293  52.229  1.00  0.00    -0.385 N 
HETATM   18  C20 UNL     1      27.018   0.320  53.283  1.00  0.00     0.082 C 
HETATM   19  C21 UNL     1      25.767  -0.174  53.250  1.00  0.00     0.018 C 
HETATM   20  C22 UNL     1      25.078   0.493  52.136  1.00  0.00     0.146 C 
HETATM   21  H17 UNL     1      22.567   5.382  53.085  1.00  0.00     0.162 HD
HETATM   22  H23 UNL     1      28.196   1.333  51.895  1.00  0.00     0.159 HD
ENDROOT
BRANCH   1  23
HETATM   23  C3  UNL     1      22.774   0.193  53.394  1.00  0.00     0.089 C 
HETATM   24  C2  UNL     1      22.195  -0.961  53.231  1.00  0.00    -0.014 C 
HETATM   25  C1  UNL     1      21.246  -1.577  54.212  1.00  0.00     0.037 C 
ENDBRANCH   1  23
BRANCH  16  26
HETATM   26  C19 UNL     1      25.427   2.567  53.296  1.00  0.00     0.424 C 
HETATM   27  O2  UNL     1      24.847   3.294  54.085  1.00  0.00    -0.428 OA
ENDBRANCH  16  26
BRANCH  11  28
HETATM   28  C13 UNL     1      24.968   6.222  48.707  1.00  0.00     0.013 C 
HETATM   29  C14 UNL     1      24.753   6.999  47.428  1.00  0.00     0.015 C 
HETATM   30  C15 UNL     1      26.236   6.740  49.324  1.00  0.00     0.015 C 
ENDBRANCH  11  28
TORSDOF 3
ENDMDL
MODEL 7
REMARK VINA RESULT:      -7.7      2.297      6.328
REMARK  3 active torsions:
REMARK  status: ('A' for Active; 'I' for Inactive)
REMARK    1  A    between atoms: C3_3  and  N1_4 
REMARK    2  A    between atoms: C12_14  and  C13_15 
REMARK    3  A    between atoms: C18_22  and  C19_23 
ROOT
HETATM    1  N1  UNL     1      23.228   1.033  52.237  1.00  0.00    -0.327 N 
HETATM    2  C4  UNL     1      22.218   1.500  51.353  1.00  0.00     0.148 C 
HETATM    3  C5  UNL     1      22.444   1.675  50.011  1.00  0.00     0.083 C 
HETATM    4  C6  UNL     1      23.009   3.059  49.893  1.00  0.00     0.042 C 
HETATM    5  N2  UNL     1      22.588   4.221  49.675  1.00  0.00    -0.251 NA
HETATM    6  C7  UNL     1      21.331   4.757  49.433  1.00  0.00     0.090 A 
HETATM    7  C8  UNL     1      20.102   4.808  50.137  1.00  0.00     0.059 A 
HETATM    8  C9  UNL     1      19.008   5.459  49.641  1.00  0.00     0.031 A 
HETATM    9  C10 UNL     1      19.032   6.101  48.428  1.00  0.00     0.003 A 
HETATM   10  C11 UNL     1      20.202   6.076  47.709  1.00  0.00     0.010 A 
HETATM   11  C12 UNL     1      21.338   5.418  48.196  1.00  0.00    -0.024 A 
HETATM   12  N3  UNL     1      20.326   4.045  51.342  1.00  0.00    -0.366 N 
HETATM   13  C16 UNL     1      20.203   2.673  50.930  1.00  0.00     0.300 C 
HETATM   14  O1  UNL     1      20.912   1.811  51.851  1.00  0.00    -0.316 OA
HETATM   15  C17 UNL     1      24.490   3.030  50.113  1.00  0.00     0.095 C 
HETATM   16  C18 UNL     1      24.854   2.682  51.514  1.00  0.00     0.090 C 
HETATM   17  N4  UNL     1      26.294   2.753  51.673  1.00  0.00    -0.385 N 
HETATM   18  C20 UNL     1      26.470   2.069  52.933  1.00  0.00     0.082 C 
HETATM   19  C21 UNL     1      25.495   1.157  53.099  1.00  0.00     0.018 C 
HETATM   20  C22 UNL     1      24.637   1.235  51.907  1.00  0.00     0.146 C 
HETATM   21  H17 UNL     1      20.460   4.930  51.857  1.00  0.00     0.162 HD
HETATM   22  H23 UNL     1      27.222   3.079  51.274  1.00  0.00     0.159 HD
ENDROOT
BRANCH   1  23
HETATM   23  C3  UNL     1      22.578   0.420  53.350  1.00  0.00     0.089 C 
HETATM   24  C2  UNL     1      22.388  -0.863  53.449  1.00  0.00    -0.014 C 
HETATM   25  C1  UNL     1      21.709  -1.531  54.606  1.00  0.00     0.037 C 
ENDBRANCH   1  23
BRANCH  16  26
HETATM   26  C19 UNL     1      24.156   3.505  52.528  1.00  0.00     0.424 C 
HETATM   27  O2  UNL     1      23.655   4.426  53.152  1.00  0.00    -0.428 OA
ENDBRANCH  16  26
BRANCH  11  28
HETATM   28  C13 UNL     1      22.489   5.517  47.255  1.00  0.00     0.013 C 
HETATM   29  C14 UNL     1      22.064   5.268  45.826  1.00  0.00     0.015 C 
HETATM   30  C15 UNL     1      23.137   6.872  47.288  1.00  0.00     0.015 C 
ENDBRANCH  11  28
TORSDOF 3
ENDMDL
MODEL 8
REMARK VINA RESULT:      -7.3      2.667      3.892
REMARK  3 active torsions:
REMARK  status: ('A' for Active; 'I' for Inactive)
REMARK    1  A    between atoms: C3_3  and  N1_4 
REMARK    2  A    between atoms: C12_14  and  C13_15 
REMARK    3  A    between atoms: C18_22  and  C19_23 
ROOT
HETATM    1  N1  UNL     1      19.074   4.074  50.603  1.00  0.00    -0.327 N 
HETATM    2  C4  UNL     1      19.700   3.319  51.633  1.00  0.00     0.148 C 
HETATM    3  C5  UNL     1      20.845   3.744  52.258  1.00  0.00     0.083 C 
HETATM    4  C6  UNL     1      21.964   3.250  51.390  1.00  0.00     0.042 C 
HETATM    5  N2  UNL     1      22.720   2.251  51.325  1.00  0.00    -0.251 NA
HETATM    6  C7  UNL     1      22.852   1.096  52.082  1.00  0.00     0.090 A 
HETATM    7  C8  UNL     1      22.008   0.010  52.425  1.00  0.00     0.059 A 
HETATM    8  C9  UNL     1      22.444  -1.035  53.188  1.00  0.00     0.031 A 
HETATM    9  C10 UNL     1      23.726  -1.097  53.673  1.00  0.00     0.003 A 
HETATM   10  C11 UNL     1      24.580  -0.065  53.368  1.00  0.00     0.010 A 
HETATM   11  C12 UNL     1      24.159   1.017  52.586  1.00  0.00    -0.024 A 
HETATM   12  N3  UNL     1      20.730   0.326  51.832  1.00  0.00    -0.366 N 
HETATM   13  C16 UNL     1      20.132   1.269  52.739  1.00  0.00     0.300 C 
HETATM   14  O1  UNL     1      19.144   2.067  52.048  1.00  0.00    -0.316 OA
HETATM   15  C17 UNL     1      22.232   4.231  50.291  1.00  0.00     0.095 C 
HETATM   16  C18 UNL     1      21.113   4.311  49.311  1.00  0.00     0.090 C 
HETATM   17  N4  UNL     1      21.476   5.214  48.235  1.00  0.00    -0.385 N 
HETATM   18  C20 UNL     1      20.192   5.429  47.606  1.00  0.00     0.082 C 
HETATM   19  C21 UNL     1      19.211   5.311  48.519  1.00  0.00     0.018 C 
HETATM   20  C22 UNL     1      19.861   5.008  49.802  1.00  0.00     0.146 C 
HETATM   21  H17 UNL     1      20.951  -0.316  51.055  1.00  0.00     0.162 HD
HETATM   22  H23 UNL     1      22.245   5.755  47.743  1.00  0.00     0.159 HD
ENDROOT
BRANCH   1  23
HETATM   23  C3  UNL     1      17.694   3.712  50.581  1.00  0.00     0.089 C 
HETATM   24  C2  UNL     1      16.781   4.330  51.273  1.00  0.00    -0.014 C 
HETATM   25  C1  UNL     1      15.327   3.970  51.267  1.00  0.00     0.037 C 
ENDBRANCH   1  23
BRANCH  16  26
HETATM   26  C19 UNL     1      20.687   2.992  48.790  1.00  0.00     0.424 C 
HETATM   27  O2  UNL     1      20.626   1.813  48.484  1.00  0.00    -0.428 OA
ENDBRANCH  16  26
BRANCH  11  28
HETATM   28  C13 UNL     1      25.245   2.017  52.382  1.00  0.00     0.013 C 
HETATM   29  C14 UNL     1      25.898   2.404  53.689  1.00  0.00     0.015 C 
HETATM   30  C15 UNL     1      26.334   1.501  51.486  1.00  0.00     0.015 C 
ENDBRANCH  11  28
TORSDOF 3
ENDMDL
MODEL 9
REMARK VINA RESULT:      -7.2      7.033     10.894
REMARK  3 active torsions:
REMARK  status: ('A' for Active; 'I' for Inactive)
REMARK    1  A    between atoms: C3_3  and  N1_4 
REMARK    2  A    between atoms: C12_14  and  C13_15 
REMARK    3  A    between atoms: C18_22  and  C19_23 
ROOT
HETATM    1  N1  UNL     1      33.546   8.761  47.640  1.00  0.00    -0.327 N 
HETATM    2  C4  UNL     1      32.217   9.241  47.474  1.00  0.00     0.148 C 
HETATM    3  C5  UNL     1      31.285   9.173  48.479  1.00  0.00     0.083 C 
HETATM    4  C6  UNL     1      30.675   7.809  48.346  1.00  0.00     0.042 C 
HETATM    5  N2  UNL     1      29.682   7.285  47.788  1.00  0.00    -0.251 NA
HETATM    6  C7  UNL     1      28.652   7.778  46.999  1.00  0.00     0.090 A 
HETATM    7  C8  UNL     1      28.566   8.455  45.757  1.00  0.00     0.059 A 
HETATM    8  C9  UNL     1      27.368   8.795  45.197  1.00  0.00     0.031 A 
HETATM    9  C10 UNL     1      26.172   8.506  45.805  1.00  0.00     0.003 A 
HETATM   10  C11 UNL     1      26.206   7.852  47.013  1.00  0.00     0.010 A 
HETATM   11  C12 UNL     1      27.421   7.490  47.607  1.00  0.00    -0.024 A 
HETATM   12  N3  UNL     1      29.935   8.667  45.348  1.00  0.00    -0.366 N 
HETATM   13  C16 UNL     1      30.366   9.809  46.109  1.00  0.00     0.300 C 
HETATM   14  O1  UNL     1      31.808   9.813  46.227  1.00  0.00    -0.316 OA
HETATM   15  C17 UNL     1      31.503   6.803  49.083  1.00  0.00     0.095 C 
HETATM   16  C18 UNL     1      32.836   6.590  48.455  1.00  0.00     0.090 C 
HETATM   17  N4  UNL     1      33.548   5.547  49.170  1.00  0.00    -0.385 N 
HETATM   18  C20 UNL     1      34.889   5.726  48.664  1.00  0.00     0.082 C 
HETATM   19  C21 UNL     1      35.084   7.015  48.331  1.00  0.00     0.018 C 
HETATM   20  C22 UNL     1      33.829   7.722  48.626  1.00  0.00     0.146 C 
HETATM   21  H17 UNL     1      29.854   7.856  44.716  1.00  0.00     0.162 HD
HETATM   22  H23 UNL     1      33.499   4.751  49.871  1.00  0.00     0.159 HD
ENDROOT
BRANCH   1  23
HETATM   23  C3  UNL     1      34.377   9.467  46.718  1.00  0.00     0.089 C 
HETATM   24  C2  UNL     1      34.793   8.957  45.596  1.00  0.00    -0.014 C 
HETATM   25  C1  UNL     1      35.665   9.676  44.612  1.00  0.00     0.037 C 
ENDBRANCH   1  23
BRANCH  16  26
HETATM   26  C19 UNL     1      32.769   6.302  47.004  1.00  0.00     0.424 C 
HETATM   27  O2  UNL     1      32.391   6.114  45.860  1.00  0.00    -0.428 OA
ENDBRANCH  16  26
BRANCH  11  28
HETATM   28  C13 UNL     1      27.223   6.793  48.910  1.00  0.00     0.013 C 
HETATM   29  C14 UNL     1      26.160   7.469  49.746  1.00  0.00     0.015 C 
HETATM   30  C15 UNL     1      26.795   5.364  48.732  1.00  0.00     0.015 C 
ENDBRANCH  11  28
TORSDOF 3
ENDMDL
