MODEL 1
REMARK VINA RESULT:      -8.9      0.000      0.000
REMARK  8 active torsions:
REMARK  status: ('A' for Active; 'I' for Inactive)
REMARK    1  A    between atoms: N1_1  and  C1_2 
REMARK    2  A    between atoms: C5_8  and  C6_9 
REMARK    3  A    between atoms: C10_13  and  O1_14 
REMARK    4  A    between atoms: O1_14  and  C11_15 
REMARK    5  A    between atoms: C11_15  and  C12_16 
REMARK    6  A    between atoms: N4_23  and  C18_24 
REMARK    7  A    between atoms: C18_24  and  C19_25 
REMARK    8  A    between atoms: C19_25  and  C20_26 
ROOT
HETATM    1  C1  UNL     1      22.587   2.536  49.061  1.00  0.00     0.117 A 
HETATM    2  N2  UNL     1      21.487   1.750  48.868  1.00  0.00    -0.229 NA
HETATM    3  C2  UNL     1      21.173   0.861  49.855  1.00  0.00     0.237 A 
HETATM    4  N3  UNL     1      21.853   0.693  51.000  1.00  0.00    -0.223 NA
HETATM    5  C3  UNL     1      22.943   1.450  51.226  1.00  0.00     0.145 A 
HETATM    6  C4  UNL     1      23.274   2.353  50.240  1.00  0.00     0.062 A 
HETATM    7  C5  UNL     1      24.404   3.063  50.585  1.00  0.00     0.007 A 
HETATM    8  C17 UNL     1      24.764   2.555  51.838  1.00  0.00     0.106 A 
HETATM    9  N4  UNL     1      23.878   1.586  52.213  1.00  0.00    -0.340 N 
ENDROOT
BRANCH   7  10
HETATM   10  C6  UNL     1      25.226   4.129  50.039  1.00  0.00    -0.021 A 
HETATM   11  C7  UNL     1      24.796   5.437  50.068  1.00  0.00     0.012 A 
HETATM   12  C8  UNL     1      25.549   6.466  49.541  1.00  0.00     0.004 A 
HETATM   13  C9  UNL     1      26.785   6.144  48.963  1.00  0.00     0.037 A 
HETATM   14  C10 UNL     1      27.259   4.817  48.914  1.00  0.00     0.069 A 
HETATM   15  C16 UNL     1      26.433   3.878  49.467  1.00  0.00     0.049 A 
BRANCH  14  16
HETATM   16  O1  UNL     1      28.453   4.882  48.304  1.00  0.00    -0.349 OA
BRANCH  16  17
HETATM   17  C11 UNL     1      29.361   5.808  47.920  1.00  0.00     0.207 C 
BRANCH  17  18
HETATM   18  C12 UNL     1      30.776   5.373  48.051  1.00  0.00     0.145 C 
HETATM   19  C13 UNL     1      31.656   6.149  47.091  1.00  0.00     0.036 C 
HETATM   20  C14 UNL     1      33.015   5.926  47.750  1.00  0.00     0.029 C 
HETATM   21  C15 UNL     1      32.622   5.902  49.204  1.00  0.00     0.168 C 
HETATM   22  O2  UNL     1      31.326   5.439  49.280  1.00  0.00    -0.384 OA
ENDBRANCH  17  18
ENDBRANCH  16  17
ENDBRANCH  14  16
ENDBRANCH   7  10
BRANCH   1  23
HETATM   23  N1  UNL     1      22.939   3.453  48.050  1.00  0.00    -0.286 NA
HETATM   24  H1  UNL     1      23.399   4.216  48.587  1.00  0.00     0.125 HD
HETATM   25  H2  UNL     1      23.433   4.374  48.193  1.00  0.00     0.125 HD
ENDBRANCH   1  23
BRANCH   9  26
HETATM   26  C18 UNL     1      23.856   0.793  53.427  1.00  0.00     0.130 C 
BRANCH  26  27
HETATM   27  C19 UNL     1      24.464  -0.564  53.156  1.00  0.00     0.027 C 
BRANCH  27  28
HETATM   28  C20 UNL     1      25.877  -0.705  53.614  1.00  0.00     0.017 C 
HETATM   29  C21 UNL     1      26.330   0.320  54.608  1.00  0.00     0.042 C 
HETATM   30  C22 UNL     1      27.585   0.936  54.036  1.00  0.00     0.225 C 
HETATM   31  C23 UNL     1      28.866   0.461  54.725  1.00  0.00     0.066 C 
HETATM   32  N5  UNL     1      27.964   0.147  52.889  1.00  0.00     0.093 N 
HETATM   33  C24 UNL     1      28.720  -0.721  53.790  1.00  0.00     0.275 C 
HETATM   34  C25 UNL     1      26.761  -0.486  52.390  1.00  0.00     0.277 C 
ENDBRANCH  27  28
ENDBRANCH  26  27
ENDBRANCH   9  26
TORSDOF 8
ENDMDL
MODEL 2
REMARK VINA RESULT:      -8.7      5.382      9.524
REMARK  8 active torsions:
REMARK  status: ('A' for Active; 'I' for Inactive)
REMARK    1  A    between atoms: N1_1  and  C1_2 
REMARK    2  A    between atoms: C5_8  and  C6_9 
REMARK    3  A    between atoms: C10_13  and  O1_14 
REMARK    4  A    between atoms: O1_14  and  C11_15 
REMARK    5  A    between atoms: C11_15  and  C12_16 
REMARK    6  A    between atoms: N4_23  and  C18_24 
REMARK    7  A    between atoms: C18_24  and  C19_25 
REMARK    8  A    between atoms: C19_25  and  C20_26 
ROOT
HETATM    1  C1  UNL     1      20.727  -0.814  53.978  1.00  0.00     0.117 A 
HETATM    2  N2  UNL     1      21.400  -1.525  54.931  1.00  0.00    -0.229 NA
HETATM    3  C2  UNL     1      22.760  -1.414  54.950  1.00  0.00     0.237 A 
HETATM    4  N3  UNL     1      23.494  -0.664  54.112  1.00  0.00    -0.223 NA
HETATM    5  C3  UNL     1      22.866   0.051  53.160  1.00  0.00     0.145 A 
HETATM    6  C4  UNL     1      21.493  -0.050  53.127  1.00  0.00     0.062 A 
HETATM    7  C5  UNL     1      20.970   0.722  52.112  1.00  0.00     0.007 A 
HETATM    8  C17 UNL     1      22.088   1.309  51.510  1.00  0.00     0.106 A 
HETATM    9  N4  UNL     1      23.223   0.898  52.149  1.00  0.00    -0.340 N 
ENDROOT
BRANCH   7  10
HETATM   10  C6  UNL     1      19.666   1.070  51.574  1.00  0.00    -0.021 A 
HETATM   11  C7  UNL     1      19.072   0.293  50.604  1.00  0.00     0.012 A 
HETATM   12  C8  UNL     1      17.843   0.611  50.064  1.00  0.00     0.004 A 
HETATM   13  C9  UNL     1      17.200   1.766  50.533  1.00  0.00     0.037 A 
HETATM   14  C10 UNL     1      17.776   2.586  51.524  1.00  0.00     0.069 A 
HETATM   15  C16 UNL     1      18.995   2.177  51.990  1.00  0.00     0.049 A 
BRANCH  14  16
HETATM   16  O1  UNL     1      16.897   3.581  51.725  1.00  0.00    -0.349 OA
BRANCH  16  17
HETATM   17  C11 UNL     1      15.732   4.040  51.216  1.00  0.00     0.207 C 
BRANCH  17  18
HETATM   18  C12 UNL     1      14.539   3.753  52.054  1.00  0.00     0.145 C 
HETATM   19  C13 UNL     1      14.740   4.292  53.457  1.00  0.00     0.036 C 
HETATM   20  C14 UNL     1      13.287   4.350  53.922  1.00  0.00     0.029 C 
HETATM   21  C15 UNL     1      12.594   4.702  52.632  1.00  0.00     0.168 C 
HETATM   22  O2  UNL     1      13.349   4.192  51.598  1.00  0.00    -0.384 OA
ENDBRANCH  17  18
ENDBRANCH  16  17
ENDBRANCH  14  16
ENDBRANCH   7  10
BRANCH   1  23
HETATM   23  N1  UNL     1      19.323  -0.923  53.930  1.00  0.00    -0.286 NA
HETATM   24  H1  UNL     1      19.161  -1.347  52.995  1.00  0.00     0.125 HD
HETATM   25  H2  UNL     1      18.758  -1.313  53.129  1.00  0.00     0.125 HD
ENDBRANCH   1  23
BRANCH   9  26
HETATM   26  C18 UNL     1      24.602   1.251  51.872  1.00  0.00     0.130 C 
BRANCH  26  27
HETATM   27  C19 UNL     1      25.178   2.000  53.052  1.00  0.00     0.027 C 
BRANCH  27  28
HETATM   28  C20 UNL     1      26.582   1.623  53.391  1.00  0.00     0.017 C 
HETATM   29  C21 UNL     1      27.224   0.649  52.453  1.00  0.00     0.042 C 
HETATM   30  C22 UNL     1      27.727  -0.491  53.307  1.00  0.00     0.225 C 
HETATM   31  C23 UNL     1      29.243  -0.481  53.506  1.00  0.00     0.066 C 
HETATM   32  N5  UNL     1      27.588  -0.086  54.684  1.00  0.00     0.093 N 
HETATM   33  C24 UNL     1      28.916   0.520  54.594  1.00  0.00     0.275 C 
HETATM   34  C25 UNL     1      26.531   0.902  54.734  1.00  0.00     0.277 C 
ENDBRANCH  27  28
ENDBRANCH  26  27
ENDBRANCH   9  26
TORSDOF 8
ENDMDL
MODEL 3
REMARK VINA RESULT:      -8.7      3.101      6.736
REMARK  8 active torsions:
REMARK  status: ('A' for Active; 'I' for Inactive)
REMARK    1  A    between atoms: N1_1  and  C1_2 
REMARK    2  A    between atoms: C5_8  and  C6_9 
REMARK    3  A    between atoms: C10_13  and  O1_14 
REMARK    4  A    between atoms: O1_14  and  C11_15 
REMARK    5  A    between atoms: C11_15  and  C12_16 
REMARK    6  A    between atoms: N4_23  and  C18_24 
REMARK    7  A    between atoms: C18_24  and  C19_25 
REMARK    8  A    between atoms: C19_25  and  C20_26 
ROOT
HETATM    1  C1  UNL     1      27.533   1.823  53.342  1.00  0.00     0.117 A 
HETATM    2  N2  UNL     1      28.122   1.113  54.348  1.00  0.00    -0.229 NA
HETATM    3  C2  UNL     1      27.408   0.082  54.887  1.00  0.00     0.237 A 
HETATM    4  N3  UNL     1      26.175  -0.292  54.512  1.00  0.00    -0.223 NA
HETATM    5  C3  UNL     1      25.562   0.384  53.523  1.00  0.00     0.145 A 
HETATM    6  C4  UNL     1      26.269   1.427  52.968  1.00  0.00     0.062 A 
HETATM    7  C5  UNL     1      25.538   2.040  51.973  1.00  0.00     0.007 A 
HETATM    8  C17 UNL     1      24.334   1.327  51.937  1.00  0.00     0.106 A 
HETATM    9  N4  UNL     1      24.361   0.334  52.874  1.00  0.00    -0.340 N 
ENDROOT
BRANCH   7  10
HETATM   10  C6  UNL     1      25.697   3.124  51.019  1.00  0.00    -0.021 A 
HETATM   11  C7  UNL     1      26.644   3.053  50.021  1.00  0.00     0.012 A 
HETATM   12  C8  UNL     1      26.828   4.075  49.114  1.00  0.00     0.004 A 
HETATM   13  C9  UNL     1      26.014   5.211  49.232  1.00  0.00     0.037 A 
HETATM   14  C10 UNL     1      25.034   5.321  50.240  1.00  0.00     0.069 A 
HETATM   15  C16 UNL     1      24.937   4.249  51.084  1.00  0.00     0.049 A 
BRANCH  14  16
HETATM   16  O1  UNL     1      24.456   6.518  50.052  1.00  0.00    -0.349 OA
BRANCH  16  17
HETATM   17  C11 UNL     1      23.638   7.376  50.702  1.00  0.00     0.207 C 
BRANCH  17  18
HETATM   18  C12 UNL     1      22.204   6.984  50.696  1.00  0.00     0.145 C 
HETATM   19  C13 UNL     1      21.757   6.648  49.286  1.00  0.00     0.036 C 
HETATM   20  C14 UNL     1      20.512   5.822  49.601  1.00  0.00     0.029 C 
HETATM   21  C15 UNL     1      20.941   5.143  50.875  1.00  0.00     0.168 C 
HETATM   22  O2  UNL     1      21.843   5.971  51.508  1.00  0.00    -0.384 OA
ENDBRANCH  17  18
ENDBRANCH  16  17
ENDBRANCH  14  16
ENDBRANCH   7  10
BRANCH   1  23
HETATM   23  N1  UNL     1      28.247   2.900  52.778  1.00  0.00    -0.286 NA
HETATM   24  H1  UNL     1      29.189   2.795  53.204  1.00  0.00     0.125 HD
HETATM   25  H2  UNL     1      29.257   3.140  52.964  1.00  0.00     0.125 HD
ENDBRANCH   1  23
BRANCH   9  26
HETATM   26  C18 UNL     1      23.340  -0.648  53.189  1.00  0.00     0.130 C 
BRANCH  26  27
HETATM   27  C19 UNL     1      22.164   0.039  53.844  1.00  0.00     0.027 C 
BRANCH  27  28
HETATM   28  C20 UNL     1      20.943   0.114  52.988  1.00  0.00     0.017 C 
HETATM   29  C21 UNL     1      21.190   0.006  51.516  1.00  0.00     0.042 C 
HETATM   30  C22 UNL     1      20.536   1.215  50.888  1.00  0.00     0.225 C 
HETATM   31  C23 UNL     1      19.228   0.893  50.165  1.00  0.00     0.066 C 
HETATM   32  N5  UNL     1      19.756   1.860  51.916  1.00  0.00     0.093 N 
HETATM   33  C24 UNL     1      18.641   0.986  51.557  1.00  0.00     0.275 C 
HETATM   34  C25 UNL     1      20.350   1.505  53.189  1.00  0.00     0.277 C 
ENDBRANCH  27  28
ENDBRANCH  26  27
ENDBRANCH   9  26
TORSDOF 8
ENDMDL
MODEL 4
REMARK VINA RESULT:      -8.7      1.735      4.954
REMARK  8 active torsions:
REMARK  status: ('A' for Active; 'I' for Inactive)
REMARK    1  A    between atoms: N1_1  and  C1_2 
REMARK    2  A    between atoms: C5_8  and  C6_9 
REMARK    3  A    between atoms: C10_13  and  O1_14 
REMARK    4  A    between atoms: O1_14  and  C11_15 
REMARK    5  A    between atoms: C11_15  and  C12_16 
REMARK    6  A    between atoms: N4_23  and  C18_24 
REMARK    7  A    between atoms: C18_24  and  C19_25 
REMARK    8  A    between atoms: C19_25  and  C20_26 
ROOT
HETATM    1  C1  UNL     1      27.419   1.822  53.352  1.00  0.00     0.117 A 
HETATM    2  N2  UNL     1      27.994   1.110  54.365  1.00  0.00    -0.229 NA
HETATM    3  C2  UNL     1      27.270   0.083  54.898  1.00  0.00     0.237 A 
HETATM    4  N3  UNL     1      26.040  -0.288  54.509  1.00  0.00    -0.223 NA
HETATM    5  C3  UNL     1      25.441   0.389  53.513  1.00  0.00     0.145 A 
HETATM    6  C4  UNL     1      26.158   1.430  52.964  1.00  0.00     0.062 A 
HETATM    7  C5  UNL     1      25.440   2.044  51.961  1.00  0.00     0.007 A 
HETATM    8  C17 UNL     1      24.234   1.335  51.912  1.00  0.00     0.106 A 
HETATM    9  N4  UNL     1      24.247   0.342  52.850  1.00  0.00    -0.340 N 
ENDROOT
BRANCH   7  10
HETATM   10  C6  UNL     1      25.613   3.126  51.008  1.00  0.00    -0.021 A 
HETATM   11  C7  UNL     1      24.621   4.062  50.815  1.00  0.00     0.012 A 
HETATM   12  C8  UNL     1      24.753   5.089  49.904  1.00  0.00     0.004 A 
HETATM   13  C9  UNL     1      25.942   5.161  49.164  1.00  0.00     0.037 A 
HETATM   14  C10 UNL     1      26.980   4.223  49.334  1.00  0.00     0.069 A 
HETATM   15  C16 UNL     1      26.744   3.248  50.263  1.00  0.00     0.049 A 
BRANCH  14  16
HETATM   16  O1  UNL     1      27.946   4.595  48.480  1.00  0.00    -0.349 OA
BRANCH  16  17
HETATM   17  C11 UNL     1      28.685   5.686  48.177  1.00  0.00     0.207 C 
BRANCH  17  18
HETATM   18  C12 UNL     1      30.148   5.436  48.098  1.00  0.00     0.145 C 
HETATM   19  C13 UNL     1      30.825   6.529  47.294  1.00  0.00     0.036 C 
HETATM   20  C14 UNL     1      32.262   6.354  47.781  1.00  0.00     0.029 C 
HETATM   21  C15 UNL     1      32.026   5.941  49.210  1.00  0.00     0.168 C 
HETATM   22  O2  UNL     1      30.809   5.295  49.264  1.00  0.00    -0.384 OA
ENDBRANCH  17  18
ENDBRANCH  16  17
ENDBRANCH  14  16
ENDBRANCH   7  10
BRANCH   1  23
HETATM   23  N1  UNL     1      28.142   2.895  52.795  1.00  0.00    -0.286 NA
HETATM   24  H1  UNL     1      28.171   3.579  53.579  1.00  0.00     0.125 HD
HETATM   25  H2  UNL     1      28.388   3.798  53.284  1.00  0.00     0.125 HD
ENDBRANCH   1  23
BRANCH   9  26
HETATM   26  C18 UNL     1      23.219  -0.635  53.154  1.00  0.00     0.130 C 
BRANCH  26  27
HETATM   27  C19 UNL     1      22.071   0.044  53.867  1.00  0.00     0.027 C 
BRANCH  27  28
HETATM   28  C20 UNL     1      20.841   0.200  53.037  1.00  0.00     0.017 C 
HETATM   29  C21 UNL     1      21.018  -0.078  51.576  1.00  0.00     0.042 C 
HETATM   30  C22 UNL     1      20.506   1.143  50.849  1.00  0.00     0.225 C 
HETATM   31  C23 UNL     1      19.141   0.932  50.191  1.00  0.00     0.066 C 
HETATM   32  N5  UNL     1      19.855   1.980  51.827  1.00  0.00     0.093 N 
HETATM   33  C24 UNL     1      18.622   1.233  51.582  1.00  0.00     0.275 C 
HETATM   34  C25 UNL     1      20.443   1.670  53.114  1.00  0.00     0.277 C 
ENDBRANCH  27  28
ENDBRANCH  26  27
ENDBRANCH   9  26
TORSDOF 8
ENDMDL
MODEL 5
REMARK VINA RESULT:      -8.5      2.124      2.582
REMARK  8 active torsions:
REMARK  status: ('A' for Active; 'I' for Inactive)
REMARK    1  A    between atoms: N1_1  and  C1_2 
REMARK    2  A    between atoms: C5_8  and  C6_9 
REMARK    3  A    between atoms: C10_13  and  O1_14 
REMARK    4  A    between atoms: O1_14  and  C11_15 
REMARK    5  A    between atoms: C11_15  and  C12_16 
REMARK    6  A    between atoms: N4_23  and  C18_24 
REMARK    7  A    between atoms: C18_24  and  C19_25 
REMARK    8  A    between atoms: C19_25  and  C20_26 
ROOT
HETATM    1  C1  UNL     1      22.593   2.602  49.024  1.00  0.00     0.117 A 
HETATM    2  N2  UNL     1      21.444   1.885  48.849  1.00  0.00    -0.229 NA
HETATM    3  C2  UNL     1      21.089   1.022  49.845  1.00  0.00     0.237 A 
HETATM    4  N3  UNL     1      21.773   0.818  50.982  1.00  0.00    -0.223 NA
HETATM    5  C3  UNL     1      22.910   1.507  51.190  1.00  0.00     0.145 A 
HETATM    6  C4  UNL     1      23.283   2.383  50.194  1.00  0.00     0.062 A 
HETATM    7  C5  UNL     1      24.459   3.023  50.521  1.00  0.00     0.007 A 
HETATM    8  C17 UNL     1      24.804   2.500  51.772  1.00  0.00     0.106 A 
HETATM    9  N4  UNL     1      23.864   1.589  52.164  1.00  0.00    -0.340 N 
ENDROOT
BRANCH   7  10
HETATM   10  C6  UNL     1      25.338   4.033  49.958  1.00  0.00    -0.021 A 
HETATM   11  C7  UNL     1      26.500   3.675  49.310  1.00  0.00     0.012 A 
HETATM   12  C8  UNL     1      27.362   4.615  48.782  1.00  0.00     0.004 A 
HETATM   13  C9  UNL     1      27.022   5.967  48.923  1.00  0.00     0.037 A 
HETATM   14  C10 UNL     1      25.842   6.373  49.579  1.00  0.00     0.069 A 
HETATM   15  C16 UNL     1      25.061   5.360  50.062  1.00  0.00     0.049 A 
BRANCH  14  16
HETATM   16  O1  UNL     1      25.841   7.714  49.524  1.00  0.00    -0.349 OA
BRANCH  16  17
HETATM   17  C11 UNL     1      26.469   8.766  50.097  1.00  0.00     0.207 C 
BRANCH  17  18
HETATM   18  C12 UNL     1      27.323   9.552  49.168  1.00  0.00     0.145 C 
HETATM   19  C13 UNL     1      28.789   9.311  49.473  1.00  0.00     0.036 C 
HETATM   20  C14 UNL     1      29.404   9.760  48.149  1.00  0.00     0.029 C 
HETATM   21  C15 UNL     1      28.333   9.329  47.182  1.00  0.00     0.168 C 
HETATM   22  O2  UNL     1      27.127   9.364  47.848  1.00  0.00    -0.384 OA
ENDBRANCH  17  18
ENDBRANCH  16  17
ENDBRANCH  14  16
ENDBRANCH   7  10
BRANCH   1  23
HETATM   23  N1  UNL     1      22.987   3.490  48.003  1.00  0.00    -0.286 NA
HETATM   24  H1  UNL     1      24.000   3.625  48.199  1.00  0.00     0.125 HD
HETATM   25  H2  UNL     1      23.959   3.874  47.856  1.00  0.00     0.125 HD
ENDBRANCH   1  23
BRANCH   9  26
HETATM   26  C18 UNL     1      23.809   0.805  53.383  1.00  0.00     0.130 C 
BRANCH  26  27
HETATM   27  C19 UNL     1      24.418  -0.556  53.136  1.00  0.00     0.027 C 
BRANCH  27  28
HETATM   28  C20 UNL     1      25.829  -0.691  53.602  1.00  0.00     0.017 C 
HETATM   29  C21 UNL     1      26.281   0.354  54.574  1.00  0.00     0.042 C 
HETATM   30  C22 UNL     1      27.540   0.954  53.994  1.00  0.00     0.225 C 
HETATM   31  C23 UNL     1      28.817   0.491  54.698  1.00  0.00     0.066 C 
HETATM   32  N5  UNL     1      27.920   0.139  52.866  1.00  0.00     0.093 N 
HETATM   33  C24 UNL     1      28.670  -0.712  53.789  1.00  0.00     0.275 C 
HETATM   34  C25 UNL     1      26.717  -0.502  52.377  1.00  0.00     0.277 C 
ENDBRANCH  27  28
ENDBRANCH  26  27
ENDBRANCH   9  26
TORSDOF 8
ENDMDL
MODEL 6
REMARK VINA RESULT:      -8.4      3.233      7.591
REMARK  8 active torsions:
REMARK  status: ('A' for Active; 'I' for Inactive)
REMARK    1  A    between atoms: N1_1  and  C1_2 
REMARK    2  A    between atoms: C5_8  and  C6_9 
REMARK    3  A    between atoms: C10_13  and  O1_14 
REMARK    4  A    between atoms: O1_14  and  C11_15 
REMARK    5  A    between atoms: C11_15  and  C12_16 
REMARK    6  A    between atoms: N4_23  and  C18_24 
REMARK    7  A    between atoms: C18_24  and  C19_25 
REMARK    8  A    between atoms: C19_25  and  C20_26 
ROOT
HETATM    1  C1  UNL     1      24.779   7.321  50.274  1.00  0.00     0.117 A 
HETATM    2  N2  UNL     1      24.879   8.682  50.240  1.00  0.00    -0.229 NA
HETATM    3  C2  UNL     1      25.956   9.214  49.593  1.00  0.00     0.237 A 
HETATM    4  N3  UNL     1      26.926   8.513  48.985  1.00  0.00    -0.223 NA
HETATM    5  C3  UNL     1      26.862   7.169  48.997  1.00  0.00     0.145 A 
HETATM    6  C4  UNL     1      25.780   6.615  49.646  1.00  0.00     0.062 A 
HETATM    7  C5  UNL     1      25.829   5.239  49.592  1.00  0.00     0.007 A 
HETATM    8  C17 UNL     1      26.998   4.960  48.877  1.00  0.00     0.106 A 
HETATM    9  N4  UNL     1      27.611   6.129  48.524  1.00  0.00    -0.340 N 
ENDROOT
BRANCH   7  10
HETATM   10  C6  UNL     1      25.029   4.106  50.027  1.00  0.00    -0.021 A 
HETATM   11  C7  UNL     1      24.020   3.608  49.232  1.00  0.00     0.012 A 
HETATM   12  C8  UNL     1      23.235   2.545  49.628  1.00  0.00     0.004 A 
HETATM   13  C9  UNL     1      23.491   1.973  50.882  1.00  0.00     0.037 A 
HETATM   14  C10 UNL     1      24.515   2.454  51.723  1.00  0.00     0.069 A 
HETATM   15  C16 UNL     1      25.232   3.509  51.231  1.00  0.00     0.049 A 
BRANCH  14  16
HETATM   16  O1  UNL     1      24.474   1.681  52.820  1.00  0.00    -0.349 OA
BRANCH  16  17
HETATM   17  C11 UNL     1      25.046   0.555  53.305  1.00  0.00     0.207 C 
BRANCH  17  18
HETATM   18  C12 UNL     1      26.414   0.747  53.853  1.00  0.00     0.145 C 
HETATM   19  C13 UNL     1      27.446   0.164  52.907  1.00  0.00     0.036 C 
HETATM   20  C14 UNL     1      28.688   0.910  53.390  1.00  0.00     0.029 C 
HETATM   21  C15 UNL     1      28.086   2.235  53.779  1.00  0.00     0.168 C 
HETATM   22  O2  UNL     1      26.781   2.007  54.158  1.00  0.00    -0.384 OA
ENDBRANCH  17  18
ENDBRANCH  16  17
ENDBRANCH  14  16
ENDBRANCH   7  10
BRANCH   1  23
HETATM   23  N1  UNL     1      23.682   6.748  50.948  1.00  0.00    -0.286 NA
HETATM   24  H1  UNL     1      22.905   6.878  50.268  1.00  0.00     0.125 HD
HETATM   25  H2  UNL     1      22.694   6.682  50.582  1.00  0.00     0.125 HD
ENDBRANCH   1  23
BRANCH   9  26
HETATM   26  C18 UNL     1      28.839   6.323  47.778  1.00  0.00     0.130 C 
BRANCH  26  27
HETATM   27  C19 UNL     1      29.819   5.224  48.123  1.00  0.00     0.027 C 
BRANCH  27  28
HETATM   28  C20 UNL     1      31.187   5.425  47.561  1.00  0.00     0.017 C 
HETATM   29  C21 UNL     1      31.877   4.178  47.102  1.00  0.00     0.042 C 
HETATM   30  C22 UNL     1      33.213   4.151  47.808  1.00  0.00     0.225 C 
HETATM   31  C23 UNL     1      34.389   4.512  46.899  1.00  0.00     0.066 C 
HETATM   32  N5  UNL     1      33.379   5.428  48.455  1.00  0.00     0.093 N 
HETATM   33  C24 UNL     1      33.968   5.932  47.215  1.00  0.00     0.275 C 
HETATM   34  C25 UNL     1      32.054   5.962  48.695  1.00  0.00     0.277 C 
ENDBRANCH  27  28
ENDBRANCH  26  27
ENDBRANCH   9  26
TORSDOF 8
ENDMDL
MODEL 7
REMARK VINA RESULT:      -8.3      3.392      8.089
REMARK  8 active torsions:
REMARK  status: ('A' for Active; 'I' for Inactive)
REMARK    1  A    between atoms: N1_1  and  C1_2 
REMARK    2  A    between atoms: C5_8  and  C6_9 
REMARK    3  A    between atoms: C10_13  and  O1_14 
REMARK    4  A    between atoms: O1_14  and  C11_15 
REMARK    5  A    between atoms: C11_15  and  C12_16 
REMARK    6  A    between atoms: N4_23  and  C18_24 
REMARK    7  A    between atoms: C18_24  and  C19_25 
REMARK    8  A    between atoms: C19_25  and  C20_26 
ROOT
HETATM    1  C1  UNL     1      26.734   3.893  49.499  1.00  0.00     0.117 A 
HETATM    2  N2  UNL     1      27.654   4.518  48.708  1.00  0.00    -0.229 NA
HETATM    3  C2  UNL     1      27.525   5.867  48.544  1.00  0.00     0.237 A 
HETATM    4  N3  UNL     1      26.569   6.631  49.095  1.00  0.00    -0.223 NA
HETATM    5  C3  UNL     1      25.644   6.051  49.882  1.00  0.00     0.145 A 
HETATM    6  C4  UNL     1      25.761   4.690  50.058  1.00  0.00     0.062 A 
HETATM    7  C5  UNL     1      24.758   4.215  50.876  1.00  0.00     0.007 A 
HETATM    8  C17 UNL     1      24.007   5.350  51.201  1.00  0.00     0.106 A 
HETATM    9  N4  UNL     1      24.550   6.448  50.597  1.00  0.00    -0.340 N 
ENDROOT
BRANCH   7  10
HETATM   10  C6  UNL     1      24.338   2.951  51.458  1.00  0.00    -0.021 A 
HETATM   11  C7  UNL     1      23.160   2.353  51.068  1.00  0.00     0.012 A 
HETATM   12  C8  UNL     1      22.730   1.162  51.617  1.00  0.00     0.004 A 
HETATM   13  C9  UNL     1      23.533   0.565  52.598  1.00  0.00     0.037 A 
HETATM   14  C10 UNL     1      24.744   1.147  53.023  1.00  0.00     0.069 A 
HETATM   15  C16 UNL     1      25.075   2.325  52.413  1.00  0.00     0.049 A 
BRANCH  14  16
HETATM   16  O1  UNL     1      25.238   0.315  53.954  1.00  0.00    -0.349 OA
BRANCH  16  17
HETATM   17  C11 UNL     1      26.397   0.078  54.609  1.00  0.00     0.207 C 
BRANCH  17  18
HETATM   18  C12 UNL     1      27.571  -0.134  53.723  1.00  0.00     0.145 C 
HETATM   19  C13 UNL     1      28.804   0.516  54.321  1.00  0.00     0.036 C 
HETATM   20  C14 UNL     1      29.889  -0.245  53.563  1.00  0.00     0.029 C 
HETATM   21  C15 UNL     1      29.240  -1.598  53.427  1.00  0.00     0.168 C 
HETATM   22  O2  UNL     1      27.876  -1.407  53.403  1.00  0.00    -0.384 OA
ENDBRANCH  17  18
ENDBRANCH  16  17
ENDBRANCH  14  16
ENDBRANCH   7  10
BRANCH   1  23
HETATM   23  N1  UNL     1      26.839   2.498  49.673  1.00  0.00    -0.286 NA
HETATM   24  H1  UNL     1      27.146   2.416  50.664  1.00  0.00     0.125 HD
HETATM   25  H2  UNL     1      27.129   2.003  50.559  1.00  0.00     0.125 HD
ENDBRANCH   1  23
BRANCH   9  26
HETATM   26  C18 UNL     1      24.109   7.829  50.653  1.00  0.00     0.130 C 
BRANCH  26  27
HETATM   27  C19 UNL     1      22.742   7.949  50.018  1.00  0.00     0.027 C 
BRANCH  27  28
HETATM   28  C20 UNL     1      22.767   8.368  48.586  1.00  0.00     0.017 C 
HETATM   29  C21 UNL     1      22.891   7.251  47.597  1.00  0.00     0.042 C 
HETATM   30  C22 UNL     1      24.075   7.592  46.722  1.00  0.00     0.225 C 
HETATM   31  C23 UNL     1      23.680   8.085  45.329  1.00  0.00     0.066 C 
HETATM   32  N5  UNL     1      24.466   8.943  47.040  1.00  0.00     0.093 N 
HETATM   33  C24 UNL     1      23.507   9.410  46.041  1.00  0.00     0.275 C 
HETATM   34  C25 UNL     1      24.027   9.207  48.395  1.00  0.00     0.277 C 
ENDBRANCH  27  28
ENDBRANCH  26  27
ENDBRANCH   9  26
TORSDOF 8
ENDMDL
MODEL 8
REMARK VINA RESULT:      -8.2      3.026      6.109
REMARK  8 active torsions:
REMARK  status: ('A' for Active; 'I' for Inactive)
REMARK    1  A    between atoms: N1_1  and  C1_2 
REMARK    2  A    between atoms: C5_8  and  C6_9 
REMARK    3  A    between atoms: C10_13  and  O1_14 
REMARK    4  A    between atoms: O1_14  and  C11_15 
REMARK    5  A    between atoms: C11_15  and  C12_16 
REMARK    6  A    between atoms: N4_23  and  C18_24 
REMARK    7  A    between atoms: C18_24  and  C19_25 
REMARK    8  A    between atoms: C19_25  and  C20_26 
ROOT
HETATM    1  C1  UNL     1      27.196   1.802  53.329  1.00  0.00     0.117 A 
HETATM    2  N2  UNL     1      27.677   1.076  54.380  1.00  0.00    -0.229 NA
HETATM    3  C2  UNL     1      26.860   0.114  54.902  1.00  0.00     0.237 A 
HETATM    4  N3  UNL     1      25.623  -0.178  54.468  1.00  0.00    -0.223 NA
HETATM    5  C3  UNL     1      25.115   0.517  53.434  1.00  0.00     0.145 A 
HETATM    6  C4  UNL     1      25.927   1.491  52.896  1.00  0.00     0.062 A 
HETATM    7  C5  UNL     1      25.297   2.131  51.850  1.00  0.00     0.007 A 
HETATM    8  C17 UNL     1      24.047   1.508  51.764  1.00  0.00     0.106 A 
HETATM    9  N4  UNL     1      23.949   0.539  52.722  1.00  0.00    -0.340 N 
ENDROOT
BRANCH   7  10
HETATM   10  C6  UNL     1      25.586   3.177  50.884  1.00  0.00    -0.021 A 
HETATM   11  C7  UNL     1      26.628   3.044  49.992  1.00  0.00     0.012 A 
HETATM   12  C8  UNL     1      26.936   4.029  49.077  1.00  0.00     0.004 A 
HETATM   13  C9  UNL     1      26.149   5.190  49.074  1.00  0.00     0.037 A 
HETATM   14  C10 UNL     1      25.075   5.362  49.970  1.00  0.00     0.069 A 
HETATM   15  C16 UNL     1      24.859   4.324  50.833  1.00  0.00     0.049 A 
BRANCH  14  16
HETATM   16  O1  UNL     1      24.556   6.567  49.686  1.00  0.00    -0.349 OA
BRANCH  16  17
HETATM   17  C11 UNL     1      24.970   7.826  49.418  1.00  0.00     0.207 C 
BRANCH  17  18
HETATM   18  C12 UNL     1      24.541   8.346  48.093  1.00  0.00     0.145 C 
HETATM   19  C13 UNL     1      25.617   8.093  47.055  1.00  0.00     0.036 C 
HETATM   20  C14 UNL     1      24.781   8.214  45.783  1.00  0.00     0.029 C 
HETATM   21  C15 UNL     1      23.467   7.649  46.256  1.00  0.00     0.168 C 
HETATM   22  O2  UNL     1      23.368   7.893  47.608  1.00  0.00    -0.384 OA
ENDBRANCH  17  18
ENDBRANCH  16  17
ENDBRANCH  14  16
ENDBRANCH   7  10
BRANCH   1  23
HETATM   23  N1  UNL     1      28.016   2.809  52.782  1.00  0.00    -0.286 NA
HETATM   24  H1  UNL     1      28.587   2.285  52.089  1.00  0.00     0.125 HD
HETATM   25  H2  UNL     1      28.746   2.676  52.032  1.00  0.00     0.125 HD
ENDBRANCH   1  23
BRANCH   9  26
HETATM   26  C18 UNL     1      22.843  -0.356  53.001  1.00  0.00     0.130 C 
BRANCH  26  27
HETATM   27  C19 UNL     1      21.764   0.393  53.749  1.00  0.00     0.027 C 
BRANCH  27  28
HETATM   28  C20 UNL     1      20.538   0.666  52.944  1.00  0.00     0.017 C 
HETATM   29  C21 UNL     1      20.559   0.127  51.547  1.00  0.00     0.042 C 
HETATM   30  C22 UNL     1      20.253   1.296  50.639  1.00  0.00     0.225 C 
HETATM   31  C23 UNL     1      18.834   1.270  50.070  1.00  0.00     0.066 C 
HETATM   32  N5  UNL     1      19.848   2.395  51.480  1.00  0.00     0.093 N 
HETATM   33  C24 UNL     1      18.478   1.891  51.405  1.00  0.00     0.275 C 
HETATM   34  C25 UNL     1      20.446   2.180  52.782  1.00  0.00     0.277 C 
ENDBRANCH  27  28
ENDBRANCH  26  27
ENDBRANCH   9  26
TORSDOF 8
ENDMDL
MODEL 9
REMARK VINA RESULT:      -7.8      4.097      5.618
REMARK  8 active torsions:
REMARK  status: ('A' for Active; 'I' for Inactive)
REMARK    1  A    between atoms: N1_1  and  C1_2 
REMARK    2  A    between atoms: C5_8  and  C6_9 
REMARK    3  A    between atoms: C10_13  and  O1_14 
REMARK    4  A    between atoms: O1_14  and  C11_15 
REMARK    5  A    between atoms: C11_15  and  C12_16 
REMARK    6  A    between atoms: N4_23  and  C18_24 
REMARK    7  A    between atoms: C18_24  and  C19_25 
REMARK    8  A    between atoms: C19_25  and  C20_26 
ROOT
HETATM    1  C1  UNL     1      20.195   0.636  51.794  1.00  0.00     0.117 A 
HETATM    2  N2  UNL     1      19.388  -0.136  52.580  1.00  0.00    -0.229 NA
HETATM    3  C2  UNL     1      19.983  -0.838  53.588  1.00  0.00     0.237 A 
HETATM    4  N3  UNL     1      21.295  -0.835  53.873  1.00  0.00    -0.223 NA
HETATM    5  C3  UNL     1      22.122  -0.086  53.120  1.00  0.00     0.145 A 
HETATM    6  C4  UNL     1      21.537   0.630  52.098  1.00  0.00     0.062 A 
HETATM    7  C5  UNL     1      22.483   1.351  51.402  1.00  0.00     0.007 A 
HETATM    8  C17 UNL     1      23.691   1.047  52.039  1.00  0.00     0.106 A 
HETATM    9  N4  UNL     1      23.461   0.182  53.071  1.00  0.00    -0.340 N 
ENDROOT
BRANCH   7  10
HETATM   10  C6  UNL     1      22.535   2.284  50.290  1.00  0.00    -0.021 A 
HETATM   11  C7  UNL     1      22.294   1.860  49.001  1.00  0.00     0.012 A 
HETATM   12  C8  UNL     1      22.354   2.722  47.925  1.00  0.00     0.004 A 
HETATM   13  C9  UNL     1      22.673   4.064  48.177  1.00  0.00     0.037 A 
HETATM   14  C10 UNL     1      22.927   4.535  49.482  1.00  0.00     0.069 A 
HETATM   15  C16 UNL     1      22.839   3.596  50.472  1.00  0.00     0.049 A 
BRANCH  14  16
HETATM   16  O1  UNL     1      23.192   5.844  49.348  1.00  0.00    -0.349 OA
BRANCH  16  17
HETATM   17  C11 UNL     1      22.746   6.917  48.656  1.00  0.00     0.207 C 
BRANCH  17  18
HETATM   18  C12 UNL     1      21.846   7.815  49.425  1.00  0.00     0.145 C 
HETATM   19  C13 UNL     1      21.631   9.113  48.673  1.00  0.00     0.036 C 
HETATM   20  C14 UNL     1      20.350   9.594  49.351  1.00  0.00     0.029 C 
HETATM   21  C15 UNL     1      19.665   8.281  49.620  1.00  0.00     0.168 C 
HETATM   22  O2  UNL     1      20.642   7.321  49.774  1.00  0.00    -0.384 OA
ENDBRANCH  17  18
ENDBRANCH  16  17
ENDBRANCH  14  16
ENDBRANCH   7  10
BRANCH   1  23
HETATM   23  N1  UNL     1      19.605   1.360  50.739  1.00  0.00    -0.286 NA
HETATM   24  H1  UNL     1      20.288   1.231  49.966  1.00  0.00     0.125 HD
HETATM   25  H2  UNL     1      19.999   1.472  49.767  1.00  0.00     0.125 HD
ENDBRANCH   1  23
BRANCH   9  26
HETATM   26  C18 UNL     1      24.410  -0.397  54.002  1.00  0.00     0.130 C 
BRANCH  26  27
HETATM   27  C19 UNL     1      25.531  -1.060  53.234  1.00  0.00     0.027 C 
BRANCH  27  28
HETATM   28  C20 UNL     1      26.810  -0.291  53.229  1.00  0.00     0.017 C 
HETATM   29  C21 UNL     1      28.030  -1.086  52.880  1.00  0.00     0.042 C 
HETATM   30  C22 UNL     1      29.014  -0.862  54.004  1.00  0.00     0.225 C 
HETATM   31  C23 UNL     1      30.160   0.081  53.632  1.00  0.00     0.066 C 
HETATM   32  N5  UNL     1      28.480   0.187  54.837  1.00  0.00     0.093 N 
HETATM   33  C24 UNL     1      29.148   1.156  53.969  1.00  0.00     0.275 C 
HETATM   34  C25 UNL     1      27.043   0.183  54.660  1.00  0.00     0.277 C 
ENDBRANCH  27  28
ENDBRANCH  26  27
ENDBRANCH   9  26
TORSDOF 8
ENDMDL
