MODEL 1
REMARK VINA RESULT:      -7.2      0.000      0.000
REMARK  5 active torsions:
REMARK  status: ('A' for Active; 'I' for Inactive)
REMARK    1  A    between atoms: O1_2  and  C2_3 
REMARK    2  A    between atoms: C5_6  and  N1_7 
REMARK    3  A    between atoms: N1_7  and  C7_9 
REMARK    4  A    between atoms: C13_16  and  O2_17 
REMARK    5  A    between atoms: C17_22  and  O4_23 
ROOT
HETATM    1  C2  UNL     1      26.032   0.138  54.146  1.00  0.00     0.102 C 
HETATM    2  C3  UNL     1      25.098   0.902  53.617  1.00  0.00     0.053 C 
HETATM    3  C4  UNL     1      25.536   1.562  52.402  1.00  0.00     0.024 C 
HETATM    4  C5  UNL     1      24.793   2.447  51.769  1.00  0.00     0.144 C 
HETATM    5  N2  UNL     1      25.225   3.353  50.729  1.00  0.00    -0.184 NA
HETATM    6  C13 UNL     1      26.493   3.323  50.373  1.00  0.00     0.289 C 
HETATM    7  O3  UNL     1      27.310   2.404  51.080  1.00  0.00    -0.300 OA
HETATM    8  C15 UNL     1      26.781   1.287  51.654  1.00  0.00     0.195 C 
HETATM    9  C16 UNL     1      27.725   0.461  52.393  1.00  0.00     0.050 C 
HETATM   10  C17 UNL     1      27.341  -0.067  53.544  1.00  0.00     0.100 C 
ENDROOT
BRANCH   4  11
HETATM   11  N1  UNL     1      23.485   2.843  52.178  1.00  0.00    -0.336 N 
HETATM   12  C6  UNL     1      23.200   4.092  52.886  1.00  0.00     0.158 C 
BRANCH  11  13
HETATM   13  C7  UNL     1      22.390   1.978  51.881  1.00  0.00     0.035 A 
HETATM   14  C8  UNL     1      22.192   1.491  50.585  1.00  0.00     0.029 A 
HETATM   15  C9  UNL     1      21.143   0.652  50.265  1.00  0.00     0.002 A 
HETATM   16  C10 UNL     1      20.245   0.274  51.263  1.00  0.00     0.000 A 
HETATM   17  C11 UNL     1      20.438   0.754  52.542  1.00  0.00     0.002 A 
HETATM   18  C12 UNL     1      21.493   1.592  52.844  1.00  0.00     0.029 A 
ENDBRANCH  11  13
ENDBRANCH   4  11
BRANCH   6  19
HETATM   19  O2  UNL     1      27.085   4.111  49.385  1.00  0.00    -0.320 OA
HETATM   20  C14 UNL     1      26.401   5.332  49.083  1.00  0.00     0.214 C 
ENDBRANCH   6  19
BRANCH   1  21
HETATM   21  O1  UNL     1      25.638  -0.479  55.325  1.00  0.00    -0.353 OA
HETATM   22  C1  UNL     1      24.401  -1.201  55.249  1.00  0.00     0.210 C 
ENDBRANCH   1  21
BRANCH  10  23
HETATM   23  O4  UNL     1      28.230  -0.874  54.242  1.00  0.00    -0.353 OA
HETATM   24  C18 UNL     1      29.587  -1.040  53.935  1.00  0.00     0.210 C 
ENDBRANCH  10  23
TORSDOF 5
ENDMDL
MODEL 2
REMARK VINA RESULT:      -7.2      1.952      4.306
REMARK  5 active torsions:
REMARK  status: ('A' for Active; 'I' for Inactive)
REMARK    1  A    between atoms: O1_2  and  C2_3 
REMARK    2  A    between atoms: C5_6  and  N1_7 
REMARK    3  A    between atoms: N1_7  and  C7_9 
REMARK    4  A    between atoms: C13_16  and  O2_17 
REMARK    5  A    between atoms: C17_22  and  O4_23 
ROOT
HETATM    1  C2  UNL     1      26.764   1.043  53.016  1.00  0.00     0.102 C 
HETATM    2  C3  UNL     1      25.670   1.682  52.656  1.00  0.00     0.053 C 
HETATM    3  C4  UNL     1      24.461   1.037  53.133  1.00  0.00     0.024 C 
HETATM    4  C5  UNL     1      23.256   1.455  52.801  1.00  0.00     0.144 C 
HETATM    5  N2  UNL     1      22.013   0.743  52.986  1.00  0.00    -0.184 NA
HETATM    6  C13 UNL     1      22.065  -0.459  53.523  1.00  0.00     0.289 C 
HETATM    7  O3  UNL     1      23.362  -0.936  53.843  1.00  0.00    -0.300 OA
HETATM    8  C15 UNL     1      24.385  -0.074  54.104  1.00  0.00     0.195 C 
HETATM    9  C16 UNL     1      25.674  -0.700  54.364  1.00  0.00     0.050 C 
HETATM   10  C17 UNL     1      26.762  -0.148  53.852  1.00  0.00     0.100 C 
ENDROOT
BRANCH   4  11
HETATM   11  N1  UNL     1      22.994   2.582  51.966  1.00  0.00    -0.336 N 
HETATM   12  C6  UNL     1      22.964   3.962  52.454  1.00  0.00     0.158 C 
BRANCH  11  13
HETATM   13  C7  UNL     1      22.748   2.357  50.579  1.00  0.00     0.035 A 
HETATM   14  C8  UNL     1      21.842   1.377  50.161  1.00  0.00     0.029 A 
HETATM   15  C9  UNL     1      21.582   1.135  48.827  1.00  0.00     0.002 A 
HETATM   16  C10 UNL     1      22.241   1.890  47.857  1.00  0.00     0.000 A 
HETATM   17  C11 UNL     1      23.134   2.858  48.267  1.00  0.00     0.002 A 
HETATM   18  C12 UNL     1      23.382   3.086  49.606  1.00  0.00     0.029 A 
ENDBRANCH  11  13
ENDBRANCH   4  11
BRANCH   6  19
HETATM   19  O2  UNL     1      20.972  -1.286  53.788  1.00  0.00    -0.320 OA
HETATM   20  C14 UNL     1      19.690  -0.720  53.497  1.00  0.00     0.214 C 
ENDBRANCH   6  19
BRANCH   1  21
HETATM   21  O1  UNL     1      27.928   1.632  52.542  1.00  0.00    -0.353 OA
HETATM   22  C1  UNL     1      28.602   2.485  53.478  1.00  0.00     0.210 C 
ENDBRANCH   1  21
BRANCH  10  23
HETATM   23  O4  UNL     1      27.996  -0.728  54.116  1.00  0.00    -0.353 OA
HETATM   24  C18 UNL     1      28.715  -1.541  53.230  1.00  0.00     0.210 C 
ENDBRANCH  10  23
TORSDOF 5
ENDMDL
MODEL 3
REMARK VINA RESULT:      -7.1      2.473      6.731
REMARK  5 active torsions:
REMARK  status: ('A' for Active; 'I' for Inactive)
REMARK    1  A    between atoms: O1_2  and  C2_3 
REMARK    2  A    between atoms: C5_6  and  N1_7 
REMARK    3  A    between atoms: N1_7  and  C7_9 
REMARK    4  A    between atoms: C13_16  and  O2_17 
REMARK    5  A    between atoms: C17_22  and  O4_23 
ROOT
HETATM    1  C2  UNL     1      24.374   2.831  50.208  1.00  0.00     0.102 C 
HETATM    2  C3  UNL     1      25.113   2.245  51.129  1.00  0.00     0.053 C 
HETATM    3  C4  UNL     1      24.359   1.308  51.940  1.00  0.00     0.024 C 
HETATM    4  C5  UNL     1      24.882   0.691  52.980  1.00  0.00     0.144 C 
HETATM    5  N2  UNL     1      24.167  -0.035  54.004  1.00  0.00    -0.184 NA
HETATM    6  C13 UNL     1      22.853  -0.082  53.922  1.00  0.00     0.289 C 
HETATM    7  O3  UNL     1      22.277   0.618  52.830  1.00  0.00    -0.300 OA
HETATM    8  C15 UNL     1      22.982   0.838  51.684  1.00  0.00     0.195 C 
HETATM    9  C16 UNL     1      22.288   1.615  50.668  1.00  0.00     0.050 C 
HETATM   10  C17 UNL     1      22.968   2.527  49.992  1.00  0.00     0.100 C 
ENDROOT
BRANCH   4  11
HETATM   11  N1  UNL     1      26.232   0.846  53.416  1.00  0.00    -0.336 N 
HETATM   12  C6  UNL     1      26.757   2.078  54.007  1.00  0.00     0.158 C 
BRANCH  11  13
HETATM   13  C7  UNL     1      27.123  -0.259  53.272  1.00  0.00     0.035 A 
HETATM   14  C8  UNL     1      28.455  -0.165  53.689  1.00  0.00     0.029 A 
HETATM   15  C9  UNL     1      29.342  -1.216  53.564  1.00  0.00     0.002 A 
HETATM   16  C10 UNL     1      28.903  -2.415  53.003  1.00  0.00     0.000 A 
HETATM   17  C11 UNL     1      27.589  -2.509  52.591  1.00  0.00     0.002 A 
HETATM   18  C12 UNL     1      26.715  -1.448  52.724  1.00  0.00     0.029 A 
ENDBRANCH  11  13
ENDBRANCH   4  11
BRANCH   6  19
HETATM   19  O2  UNL     1      21.999  -0.742  54.808  1.00  0.00    -0.320 OA
HETATM   20  C14 UNL     1      20.957  -1.510  54.197  1.00  0.00     0.214 C 
ENDBRANCH   6  19
BRANCH   1  21
HETATM   21  O1  UNL     1      25.075   3.751  49.442  1.00  0.00    -0.353 OA
HETATM   22  C1  UNL     1      25.302   5.020  50.072  1.00  0.00     0.210 C 
ENDBRANCH   1  21
BRANCH  10  23
HETATM   23  O4  UNL     1      22.316   3.255  49.005  1.00  0.00    -0.353 OA
HETATM   24  C18 UNL     1      21.958   2.767  47.741  1.00  0.00     0.210 C 
ENDBRANCH  10  23
TORSDOF 5
ENDMDL
MODEL 4
REMARK VINA RESULT:      -6.8      2.310      4.874
REMARK  5 active torsions:
REMARK  status: ('A' for Active; 'I' for Inactive)
REMARK    1  A    between atoms: O1_2  and  C2_3 
REMARK    2  A    between atoms: C5_6  and  N1_7 
REMARK    3  A    between atoms: N1_7  and  C7_9 
REMARK    4  A    between atoms: C13_16  and  O2_17 
REMARK    5  A    between atoms: C17_22  and  O4_23 
ROOT
HETATM    1  C2  UNL     1      26.346   2.592  51.202  1.00  0.00     0.102 C 
HETATM    2  C3  UNL     1      25.086   2.596  50.818  1.00  0.00     0.053 C 
HETATM    3  C4  UNL     1      24.245   1.754  51.647  1.00  0.00     0.024 C 
HETATM    4  C5  UNL     1      22.974   1.535  51.377  1.00  0.00     0.144 C 
HETATM    5  N2  UNL     1      22.128   0.519  51.960  1.00  0.00    -0.184 NA
HETATM    6  C13 UNL     1      22.666  -0.299  52.841  1.00  0.00     0.289 C 
HETATM    7  O3  UNL     1      24.046  -0.101  53.105  1.00  0.00    -0.300 OA
HETATM    8  C15 UNL     1      24.630   1.116  52.924  1.00  0.00     0.195 C 
HETATM    9  C16 UNL     1      26.062   1.163  53.181  1.00  0.00     0.050 C 
HETATM   10  C17 UNL     1      26.831   1.868  52.367  1.00  0.00     0.100 C 
ENDROOT
BRANCH   4  11
HETATM   11  N1  UNL     1      22.274   2.106  50.273  1.00  0.00    -0.336 N 
HETATM   12  C6  UNL     1      21.714   1.318  49.174  1.00  0.00     0.158 C 
BRANCH  11  13
HETATM   13  C7  UNL     1      22.107   3.522  50.232  1.00  0.00     0.035 A 
HETATM   14  C8  UNL     1      22.401   4.246  49.072  1.00  0.00     0.029 A 
HETATM   15  C9  UNL     1      22.251   5.617  49.001  1.00  0.00     0.002 A 
HETATM   16  C10 UNL     1      21.790   6.310  50.120  1.00  0.00     0.000 A 
HETATM   17  C11 UNL     1      21.499   5.598  51.265  1.00  0.00     0.002 A 
HETATM   18  C12 UNL     1      21.656   4.227  51.319  1.00  0.00     0.029 A 
ENDBRANCH  11  13
ENDBRANCH   4  11
BRANCH   6  19
HETATM   19  O2  UNL     1      22.005  -1.329  53.513  1.00  0.00    -0.320 OA
HETATM   20  C14 UNL     1      22.238  -1.388  54.924  1.00  0.00     0.214 C 
ENDBRANCH   6  19
BRANCH   1  21
HETATM   21  O1  UNL     1      27.168   3.372  50.401  1.00  0.00    -0.353 OA
HETATM   22  C1  UNL     1      26.501   4.065  49.337  1.00  0.00     0.210 C 
ENDBRANCH   1  21
BRANCH  10  23
HETATM   23  O4  UNL     1      28.195   1.934  52.621  1.00  0.00    -0.353 OA
HETATM   24  C18 UNL     1      28.778   2.452  53.785  1.00  0.00     0.210 C 
ENDBRANCH  10  23
TORSDOF 5
ENDMDL
MODEL 5
REMARK VINA RESULT:      -6.7      2.786      6.917
REMARK  5 active torsions:
REMARK  status: ('A' for Active; 'I' for Inactive)
REMARK    1  A    between atoms: O1_2  and  C2_3 
REMARK    2  A    between atoms: C5_6  and  N1_7 
REMARK    3  A    between atoms: N1_7  and  C7_9 
REMARK    4  A    between atoms: C13_16  and  O2_17 
REMARK    5  A    between atoms: C17_22  and  O4_23 
ROOT
HETATM    1  C2  UNL     1      22.733   2.719  49.268  1.00  0.00     0.102 C 
HETATM    2  C3  UNL     1      23.405   2.494  50.379  1.00  0.00     0.053 C 
HETATM    3  C4  UNL     1      22.781   1.491  51.219  1.00  0.00     0.024 C 
HETATM    4  C5  UNL     1      23.233   1.189  52.419  1.00  0.00     0.144 C 
HETATM    5  N2  UNL     1      22.548   0.424  53.435  1.00  0.00    -0.184 NA
HETATM    6  C13 UNL     1      21.334  -0.012  53.164  1.00  0.00     0.289 C 
HETATM    7  O3  UNL     1      20.820   0.346  51.891  1.00  0.00    -0.300 OA
HETATM    8  C15 UNL     1      21.652   0.613  50.845  1.00  0.00     0.195 C 
HETATM    9  C16 UNL     1      20.991   1.020  49.613  1.00  0.00     0.050 C 
HETATM   10  C17 UNL     1      21.526   1.996  48.898  1.00  0.00     0.100 C 
ENDROOT
BRANCH   4  11
HETATM   11  N1  UNL     1      24.383   1.782  53.021  1.00  0.00    -0.336 N 
HETATM   12  C6  UNL     1      24.440   3.177  53.461  1.00  0.00     0.158 C 
BRANCH  11  13
HETATM   13  C7  UNL     1      25.545   0.975  53.207  1.00  0.00     0.035 A 
HETATM   14  C8  UNL     1      25.963   0.081  52.215  1.00  0.00     0.029 A 
HETATM   15  C9  UNL     1      27.082  -0.714  52.364  1.00  0.00     0.002 A 
HETATM   16  C10 UNL     1      27.826  -0.629  53.541  1.00  0.00     0.000 A 
HETATM   17  C11 UNL     1      27.416   0.253  54.520  1.00  0.00     0.002 A 
HETATM   18  C12 UNL     1      26.293   1.040  54.354  1.00  0.00     0.029 A 
ENDBRANCH  11  13
ENDBRANCH   4  11
BRANCH   6  19
HETATM   19  O2  UNL     1      20.528  -0.772  54.013  1.00  0.00    -0.320 OA
HETATM   20  C14 UNL     1      19.209  -1.041  53.527  1.00  0.00     0.214 C 
ENDBRANCH   6  19
BRANCH   1  21
HETATM   21  O1  UNL     1      23.304   3.697  48.466  1.00  0.00    -0.353 OA
HETATM   22  C1  UNL     1      24.292   4.512  49.112  1.00  0.00     0.210 C 
ENDBRANCH   1  21
BRANCH  10  23
HETATM   23  O4  UNL     1      20.912   2.372  47.710  1.00  0.00    -0.353 OA
HETATM   24  C18 UNL     1      19.850   3.280  47.600  1.00  0.00     0.210 C 
ENDBRANCH  10  23
TORSDOF 5
ENDMDL
MODEL 6
REMARK VINA RESULT:      -6.7      2.639      4.387
REMARK  5 active torsions:
REMARK  status: ('A' for Active; 'I' for Inactive)
REMARK    1  A    between atoms: O1_2  and  C2_3 
REMARK    2  A    between atoms: C5_6  and  N1_7 
REMARK    3  A    between atoms: N1_7  and  C7_9 
REMARK    4  A    between atoms: C13_16  and  O2_17 
REMARK    5  A    between atoms: C17_22  and  O4_23 
ROOT
HETATM    1  C2  UNL     1      21.677   1.264  52.961  1.00  0.00     0.102 C 
HETATM    2  C3  UNL     1      22.141   2.172  52.128  1.00  0.00     0.053 C 
HETATM    3  C4  UNL     1      23.577   2.081  51.942  1.00  0.00     0.024 C 
HETATM    4  C5  UNL     1      24.257   2.957  51.230  1.00  0.00     0.144 C 
HETATM    5  N2  UNL     1      25.692   3.122  51.204  1.00  0.00    -0.184 NA
HETATM    6  C13 UNL     1      26.416   2.341  51.978  1.00  0.00     0.289 C 
HETATM    7  O3  UNL     1      25.691   1.426  52.783  1.00  0.00    -0.300 OA
HETATM    8  C15 UNL     1      24.454   0.989  52.412  1.00  0.00     0.195 C 
HETATM    9  C16 UNL     1      23.802   0.094  53.358  1.00  0.00     0.050 C 
HETATM   10  C17 UNL     1      22.506   0.242  53.582  1.00  0.00     0.100 C 
ENDROOT
BRANCH   4  11
HETATM   11  N1  UNL     1      23.677   4.068  50.548  1.00  0.00    -0.336 N 
HETATM   12  C6  UNL     1      23.602   5.416  51.112  1.00  0.00     0.158 C 
BRANCH  11  13
HETATM   13  C7  UNL     1      23.139   3.858  49.243  1.00  0.00     0.035 A 
HETATM   14  C8  UNL     1      22.945   2.565  48.747  1.00  0.00     0.029 A 
HETATM   15  C9  UNL     1      22.426   2.328  47.489  1.00  0.00     0.002 A 
HETATM   16  C10 UNL     1      22.083   3.410  46.680  1.00  0.00     0.000 A 
HETATM   17  C11 UNL     1      22.273   4.687  47.167  1.00  0.00     0.002 A 
HETATM   18  C12 UNL     1      22.793   4.905  48.428  1.00  0.00     0.029 A 
ENDBRANCH  11  13
ENDBRANCH   4  11
BRANCH   6  19
HETATM   19  O2  UNL     1      27.809   2.349  52.076  1.00  0.00    -0.320 OA
HETATM   20  C14 UNL     1      28.329   2.349  53.410  1.00  0.00     0.214 C 
ENDBRANCH   6  19
BRANCH   1  21
HETATM   21  O1  UNL     1      20.308   1.356  53.170  1.00  0.00    -0.353 OA
HETATM   22  C1  UNL     1      19.556   1.868  52.061  1.00  0.00     0.210 C 
ENDBRANCH   1  21
BRANCH  10  23
HETATM   23  O4  UNL     1      21.875  -0.623  54.465  1.00  0.00    -0.353 OA
HETATM   24  C18 UNL     1      22.521  -1.555  55.288  1.00  0.00     0.210 C 
ENDBRANCH  10  23
TORSDOF 5
ENDMDL
MODEL 7
REMARK VINA RESULT:      -6.4      2.623      4.880
REMARK  5 active torsions:
REMARK  status: ('A' for Active; 'I' for Inactive)
REMARK    1  A    between atoms: O1_2  and  C2_3 
REMARK    2  A    between atoms: C5_6  and  N1_7 
REMARK    3  A    between atoms: N1_7  and  C7_9 
REMARK    4  A    between atoms: C13_16  and  O2_17 
REMARK    5  A    between atoms: C17_22  and  O4_23 
ROOT
HETATM    1  C2  UNL     1      22.194   0.644  51.675  1.00  0.00     0.102 C 
HETATM    2  C3  UNL     1      23.096   1.435  51.130  1.00  0.00     0.053 C 
HETATM    3  C4  UNL     1      24.357   1.422  51.846  1.00  0.00     0.024 C 
HETATM    4  C5  UNL     1      25.360   2.217  51.530  1.00  0.00     0.144 C 
HETATM    5  N2  UNL     1      26.536   2.483  52.325  1.00  0.00    -0.184 NA
HETATM    6  C13 UNL     1      26.630   1.898  53.502  1.00  0.00     0.289 C 
HETATM    7  O3  UNL     1      25.535   1.077  53.871  1.00  0.00    -0.300 OA
HETATM    8  C15 UNL     1      24.743   0.492  52.928  1.00  0.00     0.195 C 
HETATM    9  C16 UNL     1      23.623  -0.280  53.448  1.00  0.00     0.050 C 
HETATM   10  C17 UNL     1      22.454  -0.195  52.835  1.00  0.00     0.100 C 
ENDROOT
BRANCH   4  11
HETATM   11  N1  UNL     1      25.340   3.152  50.452  1.00  0.00    -0.336 N 
HETATM   12  C6  UNL     1      26.341   3.181  49.385  1.00  0.00     0.158 C 
BRANCH  11  13
HETATM   13  C7  UNL     1      24.288   4.115  50.408  1.00  0.00     0.035 A 
HETATM   14  C8  UNL     1      23.980   4.893  51.529  1.00  0.00     0.029 A 
HETATM   15  C9  UNL     1      22.968   5.832  51.519  1.00  0.00     0.002 A 
HETATM   16  C10 UNL     1      22.223   6.017  50.355  1.00  0.00     0.000 A 
HETATM   17  C11 UNL     1      22.525   5.251  49.248  1.00  0.00     0.002 A 
HETATM   18  C12 UNL     1      23.540   4.316  49.276  1.00  0.00     0.029 A 
ENDBRANCH  11  13
ENDBRANCH   4  11
BRANCH   6  19
HETATM   19  O2  UNL     1      27.693   2.027  54.398  1.00  0.00    -0.320 OA
HETATM   20  C14 UNL     1      28.946   2.396  53.814  1.00  0.00     0.214 C 
ENDBRANCH   6  19
BRANCH   1  21
HETATM   21  O1  UNL     1      20.972   0.666  51.017  1.00  0.00    -0.353 OA
HETATM   22  C1  UNL     1      21.028   1.080  49.645  1.00  0.00     0.210 C 
ENDBRANCH   1  21
BRANCH  10  23
HETATM   23  O4  UNL     1      21.389  -0.947  53.313  1.00  0.00    -0.353 OA
HETATM   24  C18 UNL     1      21.282  -1.467  54.610  1.00  0.00     0.210 C 
ENDBRANCH  10  23
TORSDOF 5
ENDMDL
MODEL 8
REMARK VINA RESULT:      -6.3      2.782      5.224
REMARK  5 active torsions:
REMARK  status: ('A' for Active; 'I' for Inactive)
REMARK    1  A    between atoms: O1_2  and  C2_3 
REMARK    2  A    between atoms: C5_6  and  N1_7 
REMARK    3  A    between atoms: N1_7  and  C7_9 
REMARK    4  A    between atoms: C13_16  and  O2_17 
REMARK    5  A    between atoms: C17_22  and  O4_23 
ROOT
HETATM    1  C2  UNL     1      25.142   0.983  52.190  1.00  0.00     0.102 C 
HETATM    2  C3  UNL     1      24.307   1.617  51.391  1.00  0.00     0.053 C 
HETATM    3  C4  UNL     1      22.919   1.300  51.665  1.00  0.00     0.024 C 
HETATM    4  C5  UNL     1      21.929   1.746  50.917  1.00  0.00     0.144 C 
HETATM    5  N2  UNL     1      20.561   1.283  50.928  1.00  0.00    -0.184 NA
HETATM    6  C13 UNL     1      20.250   0.300  51.748  1.00  0.00     0.289 C 
HETATM    7  O3  UNL     1      21.318  -0.218  52.524  1.00  0.00    -0.300 OA
HETATM    8  C15 UNL     1      22.404   0.548  52.828  1.00  0.00     0.195 C 
HETATM    9  C16 UNL     1      23.449  -0.127  53.585  1.00  0.00     0.050 C 
HETATM   10  C17 UNL     1      24.712   0.106  53.269  1.00  0.00     0.100 C 
ENDROOT
BRANCH   4  11
HETATM   11  N1  UNL     1      22.093   2.596  49.783  1.00  0.00    -0.336 N 
HETATM   12  C6  UNL     1      22.059   2.118  48.400  1.00  0.00     0.158 C 
BRANCH  11  13
HETATM   13  C7  UNL     1      22.303   3.990  50.004  1.00  0.00     0.035 A 
HETATM   14  C8  UNL     1      23.325   4.676  49.339  1.00  0.00     0.029 A 
HETATM   15  C9  UNL     1      23.553   6.024  49.530  1.00  0.00     0.002 A 
HETATM   16  C10 UNL     1      22.742   6.733  50.416  1.00  0.00     0.000 A 
HETATM   17  C11 UNL     1      21.733   6.059  51.073  1.00  0.00     0.002 A 
HETATM   18  C12 UNL     1      21.519   4.710  50.869  1.00  0.00     0.029 A 
ENDBRANCH  11  13
ENDBRANCH   4  11
BRANCH   6  19
HETATM   19  O2  UNL     1      18.983  -0.267  51.904  1.00  0.00    -0.320 OA
HETATM   20  C14 UNL     1      18.732  -0.862  53.182  1.00  0.00     0.214 C 
ENDBRANCH   6  19
BRANCH   1  21
HETATM   21  O1  UNL     1      26.475   1.254  51.921  1.00  0.00    -0.353 OA
HETATM   22  C1  UNL     1      26.724   2.519  51.292  1.00  0.00     0.210 C 
ENDBRANCH   1  21
BRANCH  10  23
HETATM   23  O4  UNL     1      25.713  -0.517  54.003  1.00  0.00    -0.353 OA
HETATM   24  C18 UNL     1      26.418   0.061  55.066  1.00  0.00     0.210 C 
ENDBRANCH  10  23
TORSDOF 5
ENDMDL
MODEL 9
REMARK VINA RESULT:      -6.3      5.478     10.678
REMARK  5 active torsions:
REMARK  status: ('A' for Active; 'I' for Inactive)
REMARK    1  A    between atoms: O1_2  and  C2_3 
REMARK    2  A    between atoms: C5_6  and  N1_7 
REMARK    3  A    between atoms: N1_7  and  C7_9 
REMARK    4  A    between atoms: C13_16  and  O2_17 
REMARK    5  A    between atoms: C17_22  and  O4_23 
ROOT
HETATM    1  C2  UNL     1      29.264   9.637  47.546  1.00  0.00     0.102 C 
HETATM    2  C3  UNL     1      29.961   8.532  47.723  1.00  0.00     0.053 C 
HETATM    3  C4  UNL     1      29.123   7.355  47.845  1.00  0.00     0.024 C 
HETATM    4  C5  UNL     1      29.612   6.163  48.127  1.00  0.00     0.144 C 
HETATM    5  N2  UNL     1      28.864   4.998  48.538  1.00  0.00    -0.184 NA
HETATM    6  C13 UNL     1      27.559   5.118  48.670  1.00  0.00     0.289 C 
HETATM    7  O3  UNL     1      27.029   6.408  48.413  1.00  0.00    -0.300 OA
HETATM    8  C15 UNL     1      27.670   7.281  47.586  1.00  0.00     0.195 C 
HETATM    9  C16 UNL     1      27.043   8.588  47.454  1.00  0.00     0.050 C 
HETATM   10  C17 UNL     1      27.814   9.663  47.428  1.00  0.00     0.100 C 
ENDROOT
BRANCH   4  11
HETATM   11  N1  UNL     1      30.997   5.884  48.321  1.00  0.00    -0.336 N 
HETATM   12  C6  UNL     1      31.702   6.115  49.583  1.00  0.00     0.158 C 
BRANCH  11  13
HETATM   13  C7  UNL     1      31.742   5.350  47.228  1.00  0.00     0.035 A 
HETATM   14  C8  UNL     1      32.267   6.189  46.239  1.00  0.00     0.029 A 
HETATM   15  C9  UNL     1      32.991   5.703  45.169  1.00  0.00     0.002 A 
HETATM   16  C10 UNL     1      33.211   4.330  45.062  1.00  0.00     0.000 A 
HETATM   17  C11 UNL     1      32.694   3.501  46.036  1.00  0.00     0.002 A 
HETATM   18  C12 UNL     1      31.972   4.004  47.100  1.00  0.00     0.029 A 
ENDBRANCH  11  13
ENDBRANCH   4  11
BRANCH   6  19
HETATM   19  O2  UNL     1      26.676   4.102  49.045  1.00  0.00    -0.320 OA
HETATM   20  C14 UNL     1      25.522   4.533  49.775  1.00  0.00     0.214 C 
ENDBRANCH   6  19
BRANCH   1  21
HETATM   21  O1  UNL     1      30.050  10.776  47.456  1.00  0.00    -0.353 OA
HETATM   22  C1  UNL     1      30.482  11.319  48.711  1.00  0.00     0.210 C 
ENDBRANCH   1  21
BRANCH  10  23
HETATM   23  O4  UNL     1      27.222  10.910  47.280  1.00  0.00    -0.353 OA
HETATM   24  C18 UNL     1      26.383  11.526  48.219  1.00  0.00     0.210 C 
ENDBRANCH  10  23
TORSDOF 5
ENDMDL
