MODEL 1
REMARK VINA RESULT:      -9.0      0.000      0.000
REMARK  7 active torsions:
REMARK  status: ('A' for Active; 'I' for Inactive)
REMARK    1  A    between atoms: N1_1  and  C1_2 
REMARK    2  A    between atoms: C3_6  and  N4_7 
REMARK    3  A    between atoms: N4_7  and  N5_8 
REMARK    4  A    between atoms: N5_8  and  C4_9 
REMARK    5  A    between atoms: C12_19  and  C13_20 
REMARK    6  A    between atoms: C13_20  and  C14_21 
REMARK    7  A    between atoms: C14_21  and  C15_22 
ROOT
HETATM    1  C1  UNL     1      21.671   1.533  52.660  1.00  0.00     0.129 C 
HETATM    2  N2  UNL     1      20.846   2.485  52.274  1.00  0.00    -0.224 NA
HETATM    3  C2  UNL     1      21.114   3.854  51.907  1.00  0.00     0.237 C 
HETATM    4  N3  UNL     1      22.096   4.713  52.029  1.00  0.00    -0.223 NA
HETATM    5  C3  UNL     1      23.403   4.673  52.608  1.00  0.00     0.143 C 
HETATM    6  C10 UNL     1      24.199   3.701  53.023  1.00  0.00     0.052 C 
HETATM    7  C11 UNL     1      24.014   2.266  53.036  1.00  0.00     0.015 C 
HETATM    8  C12 UNL     1      23.127   1.305  52.916  1.00  0.00    -0.012 C 
ENDROOT
BRANCH   5   9
HETATM    9  N4  UNL     1      24.055   5.920  52.814  1.00  0.00    -0.284 N 
HETATM   10  H4  UNL     1      24.403   6.174  53.768  1.00  0.00     0.188 HD
BRANCH   9  11
HETATM   11  N5  UNL     1      24.153   6.700  51.649  1.00  0.00    -0.299 N 
HETATM   12  H5  UNL     1      23.373   7.395  51.581  1.00  0.00     0.187 HD
BRANCH  11  13
HETATM   13  C4  UNL     1      25.145   6.633  50.630  1.00  0.00     0.049 A 
HETATM   14  C5  UNL     1      25.328   5.450  49.933  1.00  0.00     0.034 A 
HETATM   15  C6  UNL     1      26.309   5.473  48.964  1.00  0.00     0.046 A 
HETATM   16  C7  UNL     1      27.099   6.580  48.657  1.00  0.00     0.133 A 
HETATM   17  F1  UNL     1      28.031   6.490  47.688  1.00  0.00    -0.205 F 
HETATM   18  C8  UNL     1      26.857   7.706  49.388  1.00  0.00     0.051 A 
HETATM   19 BR1  UNL     1      27.918   9.249  49.001  1.00  0.00    -0.048 Br
HETATM   20  C9  UNL     1      25.894   7.780  50.382  1.00  0.00     0.053 A 
ENDBRANCH  11  13
ENDBRANCH   9  11
ENDBRANCH   5   9
BRANCH   8  21
HETATM   21  C13 UNL     1      23.217  -0.125  53.014  1.00  0.00     0.047 C 
BRANCH  21  22
HETATM   22  C14 UNL     1      24.010  -0.782  54.071  1.00  0.00     0.043 C 
BRANCH  22  23
HETATM   23  C15 UNL     1      25.450  -0.476  54.134  1.00  0.00    -0.058 A 
HETATM   24  C16 UNL     1      26.376   0.084  54.981  1.00  0.00     0.007 A 
HETATM   25  C17 UNL     1      27.710   0.207  54.773  1.00  0.00     0.001 A 
HETATM   26  C18 UNL     1      28.269  -0.253  53.617  1.00  0.00     0.000 A 
HETATM   27  C19 UNL     1      27.431  -0.834  52.694  1.00  0.00     0.001 A 
HETATM   28  C20 UNL     1      26.066  -0.940  52.951  1.00  0.00     0.007 A 
ENDBRANCH  22  23
ENDBRANCH  21  22
ENDBRANCH   8  21
BRANCH   1  29
HETATM   29  N1  UNL     1      20.758   0.435  52.864  1.00  0.00    -0.384 N 
HETATM   30  H1  UNL     1      20.096  -0.141  52.297  1.00  0.00     0.157 HD
HETATM   31  H2  UNL     1      20.854   0.225  53.900  1.00  0.00     0.157 HD
ENDBRANCH   1  29
TORSDOF 7
ENDMDL
MODEL 2
REMARK VINA RESULT:      -8.9      3.025      5.111
REMARK  7 active torsions:
REMARK  status: ('A' for Active; 'I' for Inactive)
REMARK    1  A    between atoms: N1_1  and  C1_2 
REMARK    2  A    between atoms: C3_6  and  N4_7 
REMARK    3  A    between atoms: N4_7  and  N5_8 
REMARK    4  A    between atoms: N5_8  and  C4_9 
REMARK    5  A    between atoms: C12_19  and  C13_20 
REMARK    6  A    between atoms: C13_20  and  C14_21 
REMARK    7  A    between atoms: C14_21  and  C15_22 
ROOT
HETATM    1  C1  UNL     1      24.833  -0.761  54.845  1.00  0.00     0.129 C 
HETATM    2  N2  UNL     1      26.080  -0.471  55.157  1.00  0.00    -0.224 NA
HETATM    3  C2  UNL     1      26.976   0.506  54.590  1.00  0.00     0.237 C 
HETATM    4  N3  UNL     1      27.045   1.242  53.508  1.00  0.00    -0.223 NA
HETATM    5  C3  UNL     1      26.220   1.413  52.352  1.00  0.00     0.143 C 
HETATM    6  C10 UNL     1      24.977   1.079  52.049  1.00  0.00     0.052 C 
HETATM    7  C11 UNL     1      23.966   0.388  52.821  1.00  0.00     0.015 C 
HETATM    8  C12 UNL     1      23.760  -0.345  53.890  1.00  0.00    -0.012 C 
ENDROOT
BRANCH   5   9
HETATM    9  N4  UNL     1      26.800   2.084  51.241  1.00  0.00    -0.284 N 
HETATM   10  H4  UNL     1      27.820   1.970  51.038  1.00  0.00     0.188 HD
BRANCH   9  11
HETATM   11  N5  UNL     1      25.882   2.862  50.515  1.00  0.00    -0.299 N 
HETATM   12  H5  UNL     1      24.961   2.375  50.408  1.00  0.00     0.187 HD
BRANCH  11  13
HETATM   13  C4  UNL     1      26.077   4.156  49.955  1.00  0.00     0.049 A 
HETATM   14  C5  UNL     1      27.121   4.366  49.070  1.00  0.00     0.034 A 
HETATM   15  C6  UNL     1      27.239   5.648  48.576  1.00  0.00     0.046 A 
HETATM   16  C7  UNL     1      26.396   6.708  48.905  1.00  0.00     0.133 A 
HETATM   17  F1  UNL     1      26.603   7.923  48.361  1.00  0.00    -0.205 F 
HETATM   18  C8  UNL     1      25.391   6.420  49.783  1.00  0.00     0.051 A 
HETATM   19 BR1  UNL     1      24.210   7.845  50.263  1.00  0.00    -0.048 Br
HETATM   20  C9  UNL     1      25.194   5.163  50.333  1.00  0.00     0.053 A 
ENDBRANCH  11  13
ENDBRANCH   9  11
ENDBRANCH   5   9
BRANCH   8  21
HETATM   21  C13 UNL     1      22.584  -0.966  54.436  1.00  0.00     0.047 C 
BRANCH  21  22
HETATM   22  C14 UNL     1      21.324  -0.221  54.612  1.00  0.00     0.043 C 
BRANCH  22  23
HETATM   23  C15 UNL     1      20.444  -0.079  53.439  1.00  0.00    -0.058 A 
HETATM   24  C16 UNL     1      20.414   0.530  52.208  1.00  0.00     0.007 A 
HETATM   25  C17 UNL     1      19.431   0.453  51.278  1.00  0.00     0.001 A 
HETATM   26  C18 UNL     1      18.316  -0.294  51.519  1.00  0.00     0.000 A 
HETATM   27  C19 UNL     1      18.240  -0.949  52.725  1.00  0.00     0.001 A 
HETATM   28  C20 UNL     1      19.275  -0.841  53.652  1.00  0.00     0.007 A 
ENDBRANCH  22  23
ENDBRANCH  21  22
ENDBRANCH   8  21
BRANCH   1  29
HETATM   29  N1  UNL     1      24.544  -1.813  55.787  1.00  0.00    -0.384 N 
HETATM   30  H1  UNL     1      24.897  -2.771  56.016  1.00  0.00     0.157 HD
HETATM   31  H2  UNL     1      23.743  -1.418  56.360  1.00  0.00     0.157 HD
ENDBRANCH   1  29
TORSDOF 7
ENDMDL
MODEL 3
REMARK VINA RESULT:      -8.8      3.019      5.094
REMARK  7 active torsions:
REMARK  status: ('A' for Active; 'I' for Inactive)
REMARK    1  A    between atoms: N1_1  and  C1_2 
REMARK    2  A    between atoms: C3_6  and  N4_7 
REMARK    3  A    between atoms: N4_7  and  N5_8 
REMARK    4  A    between atoms: N5_8  and  C4_9 
REMARK    5  A    between atoms: C12_19  and  C13_20 
REMARK    6  A    between atoms: C13_20  and  C14_21 
REMARK    7  A    between atoms: C14_21  and  C15_22 
ROOT
HETATM    1  C1  UNL     1      24.860  -0.692  54.762  1.00  0.00     0.129 C 
HETATM    2  N2  UNL     1      26.095  -0.395  55.112  1.00  0.00    -0.224 NA
HETATM    3  C2  UNL     1      26.996   0.602  54.587  1.00  0.00     0.237 C 
HETATM    4  N3  UNL     1      27.085   1.359  53.521  1.00  0.00    -0.223 NA
HETATM    5  C3  UNL     1      26.289   1.543  52.347  1.00  0.00     0.143 C 
HETATM    6  C10 UNL     1      25.058   1.202  52.005  1.00  0.00     0.052 C 
HETATM    7  C11 UNL     1      24.034   0.486  52.737  1.00  0.00     0.015 C 
HETATM    8  C12 UNL     1      23.808  -0.270  53.787  1.00  0.00    -0.012 C 
ENDROOT
BRANCH   5   9
HETATM    9  N4  UNL     1      26.890   2.240  51.264  1.00  0.00    -0.284 N 
HETATM   10  H4  UNL     1      27.930   2.349  51.228  1.00  0.00     0.188 HD
BRANCH   9  11
HETATM   11  N5  UNL     1      25.962   2.725  50.325  1.00  0.00    -0.299 N 
HETATM   12  H5  UNL     1      25.204   2.029  50.136  1.00  0.00     0.187 HD
BRANCH  11  13
HETATM   13  C4  UNL     1      25.963   3.983  49.661  1.00  0.00     0.049 A 
HETATM   14  C5  UNL     1      24.768   4.662  49.485  1.00  0.00     0.034 A 
HETATM   15  C6  UNL     1      24.859   5.873  48.830  1.00  0.00     0.046 A 
HETATM   16  C7  UNL     1      26.043   6.432  48.353  1.00  0.00     0.133 A 
HETATM   17  F1  UNL     1      26.016   7.625  47.727  1.00  0.00    -0.205 F 
HETATM   18  C8  UNL     1      27.176   5.702  48.566  1.00  0.00     0.051 A 
HETATM   19 BR1  UNL     1      28.824   6.432  47.927  1.00  0.00    -0.048 Br
HETATM   20  C9  UNL     1      27.185   4.476  49.212  1.00  0.00     0.053 A 
ENDBRANCH  11  13
ENDBRANCH   9  11
ENDBRANCH   5   9
BRANCH   8  21
HETATM   21  C13 UNL     1      22.625  -0.913  54.290  1.00  0.00     0.047 C 
BRANCH  21  22
HETATM   22  C14 UNL     1      21.389  -0.157  54.567  1.00  0.00     0.043 C 
BRANCH  22  23
HETATM   23  C15 UNL     1      20.244  -0.363  53.663  1.00  0.00    -0.058 A 
HETATM   24  C16 UNL     1      19.049  -1.038  53.607  1.00  0.00     0.007 A 
HETATM   25  C17 UNL     1      18.138  -1.011  52.604  1.00  0.00     0.001 A 
HETATM   26  C18 UNL     1      18.362  -0.251  51.494  1.00  0.00     0.000 A 
HETATM   27  C19 UNL     1      19.532   0.469  51.443  1.00  0.00     0.001 A 
HETATM   28  C20 UNL     1      20.440   0.411  52.499  1.00  0.00     0.007 A 
ENDBRANCH  22  23
ENDBRANCH  21  22
ENDBRANCH   8  21
BRANCH   1  29
HETATM   29  N1  UNL     1      24.558  -1.765  55.677  1.00  0.00    -0.384 N 
HETATM   30  H1  UNL     1      23.822  -2.002  56.380  1.00  0.00     0.157 HD
HETATM   31  H2  UNL     1      25.352  -2.451  55.522  1.00  0.00     0.157 HD
ENDBRANCH   1  29
TORSDOF 7
ENDMDL
MODEL 4
REMARK VINA RESULT:      -8.8      5.392      8.500
REMARK  7 active torsions:
REMARK  status: ('A' for Active; 'I' for Inactive)
REMARK    1  A    between atoms: N1_1  and  C1_2 
REMARK    2  A    between atoms: C3_6  and  N4_7 
REMARK    3  A    between atoms: N4_7  and  N5_8 
REMARK    4  A    between atoms: N5_8  and  C4_9 
REMARK    5  A    between atoms: C12_19  and  C13_20 
REMARK    6  A    between atoms: C13_20  and  C14_21 
REMARK    7  A    between atoms: C14_21  and  C15_22 
ROOT
HETATM    1  C1  UNL     1      25.381  -0.520  54.298  1.00  0.00     0.129 C 
HETATM    2  N2  UNL     1      24.973  -1.181  55.362  1.00  0.00    -0.224 NA
HETATM    3  C2  UNL     1      23.643  -1.575  55.757  1.00  0.00     0.237 C 
HETATM    4  N3  UNL     1      22.409  -1.274  55.435  1.00  0.00    -0.223 NA
HETATM    5  C3  UNL     1      21.803  -0.376  54.501  1.00  0.00     0.143 C 
HETATM    6  C10 UNL     1      22.245   0.307  53.458  1.00  0.00     0.052 C 
HETATM    7  C11 UNL     1      23.564   0.387  52.868  1.00  0.00     0.015 C 
HETATM    8  C12 UNL     1      24.835   0.120  53.062  1.00  0.00    -0.012 C 
ENDROOT
BRANCH   5   9
HETATM    9  N4  UNL     1      20.416  -0.110  54.671  1.00  0.00    -0.284 N 
HETATM   10  H4  UNL     1      20.110   0.729  55.217  1.00  0.00     0.188 HD
BRANCH   9  11
HETATM   11  N5  UNL     1      19.584  -1.059  54.052  1.00  0.00    -0.299 N 
HETATM   12  H5  UNL     1      19.726  -2.016  54.450  1.00  0.00     0.187 HD
BRANCH  11  13
HETATM   13  C4  UNL     1      18.638  -0.849  53.010  1.00  0.00     0.049 A 
HETATM   14  C5  UNL     1      18.971  -0.036  51.939  1.00  0.00     0.034 A 
HETATM   15  C6  UNL     1      17.996   0.114  50.975  1.00  0.00     0.046 A 
HETATM   16  C7  UNL     1      16.738  -0.486  51.016  1.00  0.00     0.133 A 
HETATM   17  F1  UNL     1      15.861  -0.270  50.017  1.00  0.00    -0.205 F 
HETATM   18  C8  UNL     1      16.488  -1.272  52.103  1.00  0.00     0.051 A 
HETATM   19 BR1  UNL     1      14.773  -2.115  52.200  1.00  0.00    -0.048 Br
HETATM   20  C9  UNL     1      17.403  -1.481  53.122  1.00  0.00     0.053 A 
ENDBRANCH  11  13
ENDBRANCH   9  11
ENDBRANCH   5   9
BRANCH   8  21
HETATM   21  C13 UNL     1      26.013   0.354  52.272  1.00  0.00     0.047 C 
BRANCH  21  22
HETATM   22  C14 UNL     1      26.529   1.715  52.032  1.00  0.00     0.043 C 
BRANCH  22  23
HETATM   23  C15 UNL     1      25.791   2.569  51.086  1.00  0.00    -0.058 A 
HETATM   24  C16 UNL     1      24.503   2.881  50.727  1.00  0.00     0.007 A 
HETATM   25  C17 UNL     1      24.106   3.778  49.790  1.00  0.00     0.001 A 
HETATM   26  C18 UNL     1      25.032   4.488  49.085  1.00  0.00     0.000 A 
HETATM   27  C19 UNL     1      26.358   4.254  49.364  1.00  0.00     0.001 A 
HETATM   28  C20 UNL     1      26.719   3.323  50.335  1.00  0.00     0.007 A 
ENDBRANCH  22  23
ENDBRANCH  21  22
ENDBRANCH   8  21
BRANCH   1  29
HETATM   29  N1  UNL     1      26.804  -0.470  54.526  1.00  0.00    -0.384 N 
HETATM   30  H1  UNL     1      27.467  -0.044  55.213  1.00  0.00     0.157 HD
HETATM   31  H2  UNL     1      27.201  -1.050  53.730  1.00  0.00     0.157 HD
ENDBRANCH   1  29
TORSDOF 7
ENDMDL
MODEL 5
REMARK VINA RESULT:      -8.7      1.471      1.969
REMARK  7 active torsions:
REMARK  status: ('A' for Active; 'I' for Inactive)
REMARK    1  A    between atoms: N1_1  and  C1_2 
REMARK    2  A    between atoms: C3_6  and  N4_7 
REMARK    3  A    between atoms: N4_7  and  N5_8 
REMARK    4  A    between atoms: N5_8  and  C4_9 
REMARK    5  A    between atoms: C12_19  and  C13_20 
REMARK    6  A    between atoms: C13_20  and  C14_21 
REMARK    7  A    between atoms: C14_21  and  C15_22 
ROOT
HETATM    1  C1  UNL     1      22.631   0.720  53.045  1.00  0.00     0.129 C 
HETATM    2  N2  UNL     1      21.435   1.109  52.651  1.00  0.00    -0.224 NA
HETATM    3  C2  UNL     1      21.008   2.362  52.078  1.00  0.00     0.237 C 
HETATM    4  N3  UNL     1      21.476   3.580  51.958  1.00  0.00    -0.223 NA
HETATM    5  C3  UNL     1      22.679   4.241  52.361  1.00  0.00     0.143 C 
HETATM    6  C10 UNL     1      23.859   3.826  52.789  1.00  0.00     0.052 C 
HETATM    7  C11 UNL     1      24.372   2.491  53.012  1.00  0.00     0.015 C 
HETATM    8  C12 UNL     1      24.034   1.228  53.135  1.00  0.00    -0.012 C 
ENDROOT
BRANCH   5   9
HETATM    9  N4  UNL     1      22.679   5.662  52.316  1.00  0.00    -0.284 N 
HETATM   10  H4  UNL     1      21.785   6.187  52.461  1.00  0.00     0.188 HD
BRANCH   9  11
HETATM   11  N5  UNL     1      23.947   6.214  52.068  1.00  0.00    -0.299 N 
HETATM   12  H5  UNL     1      24.598   6.066  52.874  1.00  0.00     0.187 HD
BRANCH  11  13
HETATM   13  C4  UNL     1      24.391   6.905  50.906  1.00  0.00     0.049 A 
HETATM   14  C5  UNL     1      23.688   8.012  50.460  1.00  0.00     0.034 A 
HETATM   15  C6  UNL     1      24.187   8.621  49.327  1.00  0.00     0.046 A 
HETATM   16  C7  UNL     1      25.318   8.201  48.630  1.00  0.00     0.133 A 
HETATM   17  F1  UNL     1      25.717   8.873  47.533  1.00  0.00    -0.205 F 
HETATM   18  C8  UNL     1      25.954   7.103  49.133  1.00  0.00     0.051 A 
HETATM   19 BR1  UNL     1      27.512   6.491  48.208  1.00  0.00    -0.048 Br
HETATM   20  C9  UNL     1      25.529   6.424  50.264  1.00  0.00     0.053 A 
ENDBRANCH  11  13
ENDBRANCH   9  11
ENDBRANCH   5   9
BRANCH   8  21
HETATM   21  C13 UNL     1      24.792   0.037  53.405  1.00  0.00     0.047 C 
BRANCH  21  22
HETATM   22  C14 UNL     1      25.846  -0.436  52.488  1.00  0.00     0.043 C 
BRANCH  22  23
HETATM   23  C15 UNL     1      27.247  -0.282  52.919  1.00  0.00    -0.058 A 
HETATM   24  C16 UNL     1      28.119   0.686  53.353  1.00  0.00     0.007 A 
HETATM   25  C17 UNL     1      29.410   0.518  53.728  1.00  0.00     0.001 A 
HETATM   26  C18 UNL     1      29.977  -0.722  53.700  1.00  0.00     0.000 A 
HETATM   27  C19 UNL     1      29.192  -1.769  53.279  1.00  0.00     0.001 A 
HETATM   28  C20 UNL     1      27.869  -1.550  52.903  1.00  0.00     0.007 A 
ENDBRANCH  22  23
ENDBRANCH  21  22
ENDBRANCH   8  21
BRANCH   1  29
HETATM   29  N1  UNL     1      22.354  -0.617  53.508  1.00  0.00    -0.384 N 
HETATM   30  H1  UNL     1      22.889  -1.453  53.836  1.00  0.00     0.157 HD
HETATM   31  H2  UNL     1      21.295  -0.676  53.471  1.00  0.00     0.157 HD
ENDBRANCH   1  29
TORSDOF 7
ENDMDL
MODEL 6
REMARK VINA RESULT:      -8.7      4.793      8.507
REMARK  7 active torsions:
REMARK  status: ('A' for Active; 'I' for Inactive)
REMARK    1  A    between atoms: N1_1  and  C1_2 
REMARK    2  A    between atoms: C3_6  and  N4_7 
REMARK    3  A    between atoms: N4_7  and  N5_8 
REMARK    4  A    between atoms: N5_8  and  C4_9 
REMARK    5  A    between atoms: C12_19  and  C13_20 
REMARK    6  A    between atoms: C13_20  and  C14_21 
REMARK    7  A    between atoms: C14_21  and  C15_22 
ROOT
HETATM    1  C1  UNL     1      26.872   1.929  53.019  1.00  0.00     0.129 C 
HETATM    2  N2  UNL     1      27.000   1.206  54.113  1.00  0.00    -0.224 NA
HETATM    3  C2  UNL     1      26.172   0.142  54.625  1.00  0.00     0.237 C 
HETATM    4  N3  UNL     1      24.969  -0.333  54.418  1.00  0.00    -0.223 NA
HETATM    5  C3  UNL     1      23.887   0.011  53.547  1.00  0.00     0.143 C 
HETATM    6  C10 UNL     1      23.776   0.771  52.471  1.00  0.00     0.052 C 
HETATM    7  C11 UNL     1      24.760   1.563  51.763  1.00  0.00     0.015 C 
HETATM    8  C12 UNL     1      25.965   2.080  51.839  1.00  0.00    -0.012 C 
ENDROOT
BRANCH   5   9
HETATM    9  N4  UNL     1      22.617  -0.556  53.842  1.00  0.00    -0.284 N 
HETATM   10  H4  UNL     1      22.558  -1.432  54.412  1.00  0.00     0.188 HD
BRANCH   9  11
HETATM   11  N5  UNL     1      21.541   0.169  53.303  1.00  0.00    -0.299 N 
HETATM   12  H5  UNL     1      21.803   1.164  53.109  1.00  0.00     0.187 HD
BRANCH  11  13
HETATM   13  C4  UNL     1      20.226  -0.294  53.017  1.00  0.00     0.049 A 
HETATM   14  C5  UNL     1      19.644  -1.244  53.840  1.00  0.00     0.034 A 
HETATM   15  C6  UNL     1      18.369  -1.637  53.490  1.00  0.00     0.046 A 
HETATM   16  C7  UNL     1      17.658  -1.151  52.395  1.00  0.00     0.133 A 
HETATM   17  F1  UNL     1      16.414  -1.606  52.147  1.00  0.00    -0.205 F 
HETATM   18  C8  UNL     1      18.300  -0.217  51.635  1.00  0.00     0.051 A 
HETATM   19 BR1  UNL     1      17.361   0.479  50.121  1.00  0.00    -0.048 Br
HETATM   20  C9  UNL     1      19.581   0.240  51.905  1.00  0.00     0.053 A 
ENDBRANCH  11  13
ENDBRANCH   9  11
ENDBRANCH   5   9
BRANCH   8  21
HETATM   21  C13 UNL     1      26.730   2.906  50.947  1.00  0.00     0.047 C 
BRANCH  21  22
HETATM   22  C14 UNL     1      26.242   3.252  49.598  1.00  0.00     0.043 C 
BRANCH  22  23
HETATM   23  C15 UNL     1      26.464   4.628  49.123  1.00  0.00    -0.058 A 
HETATM   24  C16 UNL     1      25.798   5.822  48.991  1.00  0.00     0.007 A 
HETATM   25  C17 UNL     1      26.295   6.993  48.524  1.00  0.00     0.001 A 
HETATM   26  C18 UNL     1      27.596   7.073  48.121  1.00  0.00     0.000 A 
HETATM   27  C19 UNL     1      28.359   5.933  48.209  1.00  0.00     0.001 A 
HETATM   28  C20 UNL     1      27.805   4.751  48.696  1.00  0.00     0.007 A 
ENDBRANCH  22  23
ENDBRANCH  21  22
ENDBRANCH   8  21
BRANCH   1  29
HETATM   29  N1  UNL     1      28.021   2.794  53.116  1.00  0.00    -0.384 N 
HETATM   30  H1  UNL     1      28.970   2.780  53.554  1.00  0.00     0.157 HD
HETATM   31  H2  UNL     1      27.730   3.653  52.565  1.00  0.00     0.157 HD
ENDBRANCH   1  29
TORSDOF 7
ENDMDL
MODEL 7
REMARK VINA RESULT:      -8.6      5.950      8.813
REMARK  7 active torsions:
REMARK  status: ('A' for Active; 'I' for Inactive)
REMARK    1  A    between atoms: N1_1  and  C1_2 
REMARK    2  A    between atoms: C3_6  and  N4_7 
REMARK    3  A    between atoms: N4_7  and  N5_8 
REMARK    4  A    between atoms: N5_8  and  C4_9 
REMARK    5  A    between atoms: C12_19  and  C13_20 
REMARK    6  A    between atoms: C13_20  and  C14_21 
REMARK    7  A    between atoms: C14_21  and  C15_22 
ROOT
HETATM    1  C1  UNL     1      23.255   1.922  51.848  1.00  0.00     0.129 C 
HETATM    2  N2  UNL     1      22.021   2.335  51.645  1.00  0.00    -0.224 NA
HETATM    3  C2  UNL     1      20.788   1.920  52.268  1.00  0.00     0.237 C 
HETATM    4  N3  UNL     1      20.364   0.919  53.001  1.00  0.00    -0.223 NA
HETATM    5  C3  UNL     1      20.965  -0.263  53.537  1.00  0.00     0.143 C 
HETATM    6  C10 UNL     1      22.213  -0.671  53.696  1.00  0.00     0.052 C 
HETATM    7  C11 UNL     1      23.469  -0.031  53.368  1.00  0.00     0.015 C 
HETATM    8  C12 UNL     1      24.019   0.948  52.688  1.00  0.00    -0.012 C 
ENDROOT
BRANCH   5   9
HETATM    9  N4  UNL     1      20.086  -1.267  54.026  1.00  0.00    -0.284 N 
HETATM   10  H4  UNL     1      20.475  -2.106  54.517  1.00  0.00     0.188 HD
BRANCH   9  11
HETATM   11  N5  UNL     1      18.730  -0.996  53.774  1.00  0.00    -0.299 N 
HETATM   12  H5  UNL     1      18.514   0.023  53.876  1.00  0.00     0.187 HD
BRANCH  11  13
HETATM   13  C4  UNL     1      17.702  -1.915  53.420  1.00  0.00     0.049 A 
HETATM   14  C5  UNL     1      17.772  -3.223  53.869  1.00  0.00     0.034 A 
HETATM   15  C6  UNL     1      16.736  -4.046  53.479  1.00  0.00     0.046 A 
HETATM   16  C7  UNL     1      15.661  -3.650  52.686  1.00  0.00     0.133 A 
HETATM   17  F1  UNL     1      14.701  -4.539  52.365  1.00  0.00    -0.205 F 
HETATM   18  C8  UNL     1      15.665  -2.345  52.285  1.00  0.00     0.051 A 
HETATM   19 BR1  UNL     1      14.208  -1.758  51.194  1.00  0.00    -0.048 Br
HETATM   20  C9  UNL     1      16.662  -1.444  52.625  1.00  0.00     0.053 A 
ENDBRANCH  11  13
ENDBRANCH   9  11
ENDBRANCH   5   9
BRANCH   8  21
HETATM   21  C13 UNL     1      25.383   1.359  52.499  1.00  0.00     0.047 C 
BRANCH  21  22
HETATM   22  C14 UNL     1      26.338   1.421  53.621  1.00  0.00     0.043 C 
BRANCH  22  23
HETATM   23  C15 UNL     1      27.529   0.556  53.553  1.00  0.00    -0.058 A 
HETATM   24  C16 UNL     1      28.882   0.600  53.788  1.00  0.00     0.007 A 
HETATM   25  C17 UNL     1      29.770  -0.416  53.661  1.00  0.00     0.001 A 
HETATM   26  C18 UNL     1      29.348  -1.650  53.262  1.00  0.00     0.000 A 
HETATM   27  C19 UNL     1      28.008  -1.808  52.998  1.00  0.00     0.001 A 
HETATM   28  C20 UNL     1      27.131  -0.734  53.142  1.00  0.00     0.007 A 
ENDBRANCH  22  23
ENDBRANCH  21  22
ENDBRANCH   8  21
BRANCH   1  29
HETATM   29  N1  UNL     1      23.984   2.740  50.911  1.00  0.00    -0.384 N 
HETATM   30  H1  UNL     1      24.964   3.072  50.767  1.00  0.00     0.157 HD
HETATM   31  H2  UNL     1      23.240   3.039  50.215  1.00  0.00     0.157 HD
ENDBRANCH   1  29
TORSDOF 7
ENDMDL
MODEL 8
REMARK VINA RESULT:      -8.5      4.904      8.431
REMARK  7 active torsions:
REMARK  status: ('A' for Active; 'I' for Inactive)
REMARK    1  A    between atoms: N1_1  and  C1_2 
REMARK    2  A    between atoms: C3_6  and  N4_7 
REMARK    3  A    between atoms: N4_7  and  N5_8 
REMARK    4  A    between atoms: N5_8  and  C4_9 
REMARK    5  A    between atoms: C12_19  and  C13_20 
REMARK    6  A    between atoms: C13_20  and  C14_21 
REMARK    7  A    between atoms: C14_21  and  C15_22 
ROOT
HETATM    1  C1  UNL     1      28.280   7.457  48.293  1.00  0.00     0.129 C 
HETATM    2  N2  UNL     1      27.310   8.133  48.873  1.00  0.00    -0.224 NA
HETATM    3  C2  UNL     1      26.250   7.677  49.739  1.00  0.00     0.237 C 
HETATM    4  N3  UNL     1      25.695   6.538  50.072  1.00  0.00    -0.223 NA
HETATM    5  C3  UNL     1      25.905   5.171  49.707  1.00  0.00     0.143 C 
HETATM    6  C10 UNL     1      26.877   4.521  49.089  1.00  0.00     0.052 C 
HETATM    7  C11 UNL     1      28.131   4.990  48.538  1.00  0.00     0.015 C 
HETATM    8  C12 UNL     1      28.802   6.060  48.180  1.00  0.00    -0.012 C 
ENDROOT
BRANCH   5   9
HETATM    9  N4  UNL     1      24.882   4.247  50.054  1.00  0.00    -0.284 N 
HETATM   10  H4  UNL     1      24.152   3.990  49.350  1.00  0.00     0.188 HD
BRANCH   9  11
HETATM   11  N5  UNL     1      24.982   3.770  51.372  1.00  0.00    -0.299 N 
HETATM   12  H5  UNL     1      24.823   4.531  52.073  1.00  0.00     0.187 HD
BRANCH  11  13
HETATM   13  C4  UNL     1      25.261   2.443  51.806  1.00  0.00     0.049 A 
HETATM   14  C5  UNL     1      26.516   1.901  51.583  1.00  0.00     0.034 A 
HETATM   15  C6  UNL     1      26.699   0.611  52.035  1.00  0.00     0.046 A 
HETATM   16  C7  UNL     1      25.728  -0.152  52.680  1.00  0.00     0.133 A 
HETATM   17  F1  UNL     1      26.017  -1.406  53.080  1.00  0.00    -0.205 F 
HETATM   18  C8  UNL     1      24.518   0.453  52.862  1.00  0.00     0.051 A 
HETATM   19 BR1  UNL     1      23.155  -0.558  53.744  1.00  0.00    -0.048 Br
HETATM   20  C9  UNL     1      24.239   1.744  52.443  1.00  0.00     0.053 A 
ENDBRANCH  11  13
ENDBRANCH   9  11
ENDBRANCH   5   9
BRANCH   8  21
HETATM   21  C13 UNL     1      30.099   6.246  47.591  1.00  0.00     0.047 C 
BRANCH  21  22
HETATM   22  C14 UNL     1      31.339   6.057  48.367  1.00  0.00     0.043 C 
BRANCH  22  23
HETATM   23  C15 UNL     1      32.295   5.041  47.892  1.00  0.00    -0.058 A 
HETATM   24  C16 UNL     1      33.633   4.736  47.958  1.00  0.00     0.007 A 
HETATM   25  C17 UNL     1      34.256   3.660  47.419  1.00  0.00     0.001 A 
HETATM   26  C18 UNL     1      33.542   2.733  46.719  1.00  0.00     0.000 A 
HETATM   27  C19 UNL     1      32.188   2.940  46.589  1.00  0.00     0.001 A 
HETATM   28  C20 UNL     1      31.590   4.061  47.161  1.00  0.00     0.007 A 
ENDBRANCH  22  23
ENDBRANCH  21  22
ENDBRANCH   8  21
BRANCH   1  29
HETATM   29  N1  UNL     1      28.969   8.506  47.583  1.00  0.00    -0.384 N 
HETATM   30  H1  UNL     1      29.072   8.841  46.598  1.00  0.00     0.157 HD
HETATM   31  H2  UNL     1      29.485   9.026  48.351  1.00  0.00     0.157 HD
ENDBRANCH   1  29
TORSDOF 7
ENDMDL
MODEL 9
REMARK VINA RESULT:      -8.4      4.701      7.053
REMARK  7 active torsions:
REMARK  status: ('A' for Active; 'I' for Inactive)
REMARK    1  A    between atoms: N1_1  and  C1_2 
REMARK    2  A    between atoms: C3_6  and  N4_7 
REMARK    3  A    between atoms: N4_7  and  N5_8 
REMARK    4  A    between atoms: N5_8  and  C4_9 
REMARK    5  A    between atoms: C12_19  and  C13_20 
REMARK    6  A    between atoms: C13_20  and  C14_21 
REMARK    7  A    between atoms: C14_21  and  C15_22 
ROOT
HETATM    1  C1  UNL     1      25.854   7.258  50.168  1.00  0.00     0.129 C 
HETATM    2  N2  UNL     1      26.433   8.426  50.363  1.00  0.00    -0.224 NA
HETATM    3  C2  UNL     1      27.569   9.021  49.702  1.00  0.00     0.237 C 
HETATM    4  N3  UNL     1      28.550   8.632  48.926  1.00  0.00    -0.223 NA
HETATM    5  C3  UNL     1      28.949   7.381  48.359  1.00  0.00     0.143 C 
HETATM    6  C10 UNL     1      28.360   6.207  48.208  1.00  0.00     0.052 C 
HETATM    7  C11 UNL     1      27.037   5.755  48.583  1.00  0.00     0.015 C 
HETATM    8  C12 UNL     1      25.980   6.041  49.308  1.00  0.00    -0.012 C 
ENDROOT
BRANCH   5   9
HETATM    9  N4  UNL     1      30.262   7.309  47.817  1.00  0.00    -0.284 N 
HETATM   10  H4  UNL     1      30.454   7.698  46.864  1.00  0.00     0.188 HD
BRANCH   9  11
HETATM   11  N5  UNL     1      31.189   6.690  48.674  1.00  0.00    -0.299 N 
HETATM   12  H5  UNL     1      31.046   6.977  49.671  1.00  0.00     0.187 HD
BRANCH  11  13
HETATM   13  C4  UNL     1      32.225   5.777  48.332  1.00  0.00     0.049 A 
HETATM   14  C5  UNL     1      33.546   6.133  48.549  1.00  0.00     0.034 A 
HETATM   15  C6  UNL     1      34.486   5.190  48.189  1.00  0.00     0.046 A 
HETATM   16  C7  UNL     1      34.193   3.943  47.640  1.00  0.00     0.133 A 
HETATM   17  F1  UNL     1      35.193   3.097  47.326  1.00  0.00    -0.205 F 
HETATM   18  C8  UNL     1      32.868   3.668  47.459  1.00  0.00     0.051 A 
HETATM   19 BR1  UNL     1      32.420   1.968  46.708  1.00  0.00    -0.048 Br
HETATM   20  C9  UNL     1      31.853   4.551  47.788  1.00  0.00     0.053 A 
ENDBRANCH  11  13
ENDBRANCH   9  11
ENDBRANCH   5   9
BRANCH   8  21
HETATM   21  C13 UNL     1      24.739   5.354  49.537  1.00  0.00     0.047 C 
BRANCH  21  22
HETATM   22  C14 UNL     1      24.598   3.906  49.298  1.00  0.00     0.043 C 
BRANCH  22  23
HETATM   23  C15 UNL     1      25.190   2.988  50.287  1.00  0.00    -0.058 A 
HETATM   24  C16 UNL     1      26.418   2.597  50.764  1.00  0.00     0.007 A 
HETATM   25  C17 UNL     1      26.667   1.708  51.756  1.00  0.00     0.001 A 
HETATM   26  C18 UNL     1      25.635   1.091  52.400  1.00  0.00     0.000 A 
HETATM   27  C19 UNL     1      24.358   1.409  52.002  1.00  0.00     0.001 A 
HETATM   28  C20 UNL     1      24.149   2.330  50.977  1.00  0.00     0.007 A 
ENDBRANCH  22  23
ENDBRANCH  21  22
ENDBRANCH   8  21
BRANCH   1  29
HETATM   29  N1  UNL     1      24.798   7.300  51.148  1.00  0.00    -0.384 N 
HETATM   30  H1  UNL     1      24.203   8.019  51.620  1.00  0.00     0.157 HD
HETATM   31  H2  UNL     1      24.655   6.279  51.400  1.00  0.00     0.157 HD
ENDBRANCH   1  29
TORSDOF 7
ENDMDL
