MODEL 1
REMARK VINA RESULT:      -9.9      0.000      0.000
REMARK  2 active torsions:
REMARK  status: ('A' for Active; 'I' for Inactive)
REMARK    1  A    between atoms: C3_3  and  C4_4 
REMARK    2  A    between atoms: C5_5  and  N1_6 
ROOT
HETATM    1  N1  UNL     1      25.121   3.327  50.380  1.00  0.00    -0.333 N 
HETATM    2  C6  UNL     1      24.209   4.442  50.067  1.00  0.00     0.301 C 
HETATM    3  O1  UNL     1      22.931   3.999  49.802  1.00  0.00    -0.347 OA
HETATM    4  C7  UNL     1      22.119   3.799  50.893  1.00  0.00     0.233 C 
HETATM    5  C8  UNL     1      20.662   3.924  50.608  1.00  0.00     0.064 C 
HETATM    6  N2  UNL     1      22.395   2.449  51.373  1.00  0.00    -0.285 N 
HETATM    7  C9  UNL     1      21.418   1.633  51.422  1.00  0.00    -0.052 C 
HETATM    8  C10 UNL     1      20.567   0.906  51.481  1.00  0.00     0.065 A 
HETATM    9  C11 UNL     1      19.607   0.063  51.564  1.00  0.00     0.025 A 
HETATM   10  C12 UNL     1      20.182  -0.019  52.871  1.00  0.00     0.038 A 
HETATM   11  C13 UNL     1      21.380  -0.574  53.388  1.00  0.00    -0.019 C 
HETATM   12  C14 UNL     1      22.515   0.227  53.333  1.00  0.00     0.011 C 
HETATM   13  C15 UNL     1      23.601   0.856  52.714  1.00  0.00     0.002 A 
HETATM   14  C16 UNL     1      24.781   0.288  53.145  1.00  0.00    -0.012 A 
HETATM   15  C17 UNL     1      26.012   0.739  52.654  1.00  0.00     0.043 A 
HETATM   16  C18 UNL     1      26.028   1.763  51.732  1.00  0.00     0.050 A 
HETATM   17  C19 UNL     1      24.793   2.292  51.341  1.00  0.00     0.065 A 
HETATM   18  C20 UNL     1      23.553   1.884  51.794  1.00  0.00     0.082 A 
HETATM   19  C21 UNL     1      27.118   0.006  53.241  1.00  0.00     0.252 A 
HETATM   20  O2  UNL     1      28.353   0.099  53.072  1.00  0.00    -0.268 OA
HETATM   21  N3  UNL     1      26.514  -0.922  54.117  1.00  0.00    -0.353 N 
HETATM   22  C22 UNL     1      25.097  -0.797  54.113  1.00  0.00     0.163 A 
HETATM   23  H19 UNL     1      26.882  -1.662  54.753  1.00  0.00     0.163 HD
ENDROOT
BRANCH   1  24
HETATM   24  C5  UNL     1      26.362   3.301  49.686  1.00  0.00     0.093 C 
HETATM   25  C4  UNL     1      26.769   4.514  49.302  1.00  0.00     0.017 C 
BRANCH  25  26
HETATM   26  C3  UNL     1      27.969   4.966  48.570  1.00  0.00    -0.003 C 
HETATM   27  C2  UNL     1      28.487   6.128  48.244  1.00  0.00    -0.031 C 
HETATM   28  C1  UNL     1      29.747   6.175  47.479  1.00  0.00     0.036 C 
ENDBRANCH  25  26
ENDBRANCH   1  24
TORSDOF 2
ENDMDL
MODEL 2
REMARK VINA RESULT:      -9.8      1.752      4.503
REMARK  2 active torsions:
REMARK  status: ('A' for Active; 'I' for Inactive)
REMARK    1  A    between atoms: C3_3  and  C4_4 
REMARK    2  A    between atoms: C5_5  and  N1_6 
ROOT
HETATM    1  N1  UNL     1      25.338   3.001  50.597  1.00  0.00    -0.333 N 
HETATM    2  C6  UNL     1      26.391   2.324  51.375  1.00  0.00     0.301 C 
HETATM    3  O1  UNL     1      25.932   1.910  52.606  1.00  0.00    -0.347 OA
HETATM    4  C7  UNL     1      25.293   0.694  52.639  1.00  0.00     0.233 C 
HETATM    5  C8  UNL     1      25.354   0.001  53.958  1.00  0.00     0.064 C 
HETATM    6  N2  UNL     1      23.897   0.951  52.302  1.00  0.00    -0.285 N 
HETATM    7  C9  UNL     1      23.014   0.607  53.154  1.00  0.00    -0.052 C 
HETATM    8  C10 UNL     1      22.225   0.302  53.889  1.00  0.00     0.065 A 
HETATM    9  C11 UNL     1      21.308  -0.048  54.711  1.00  0.00     0.025 A 
HETATM   10  C12 UNL     1      20.852  -0.643  53.494  1.00  0.00     0.038 A 
HETATM   11  C13 UNL     1      20.283  -0.132  52.299  1.00  0.00    -0.019 C 
HETATM   12  C14 UNL     1      21.170   0.314  51.326  1.00  0.00     0.011 C 
HETATM   13  C15 UNL     1      22.081   1.203  50.744  1.00  0.00     0.002 A 
HETATM   14  C16 UNL     1      21.527   1.771  49.616  1.00  0.00    -0.012 A 
HETATM   15  C17 UNL     1      22.243   2.709  48.864  1.00  0.00     0.043 A 
HETATM   16  C18 UNL     1      23.513   3.059  49.268  1.00  0.00     0.050 A 
HETATM   17  C19 UNL     1      24.011   2.442  50.421  1.00  0.00     0.065 A 
HETATM   18  C20 UNL     1      23.347   1.512  51.197  1.00  0.00     0.082 A 
HETATM   19  C21 UNL     1      21.475   3.175  47.724  1.00  0.00     0.252 A 
HETATM   20  O2  UNL     1      21.748   3.998  46.824  1.00  0.00    -0.268 OA
HETATM   21  N3  UNL     1      20.248   2.480  47.806  1.00  0.00    -0.353 N 
HETATM   22  C22 UNL     1      20.218   1.604  48.928  1.00  0.00     0.163 A 
HETATM   23  H19 UNL     1      19.380   2.474  47.229  1.00  0.00     0.163 HD
ENDROOT
BRANCH   1  24
HETATM   24  C5  UNL     1      25.677   4.253  50.015  1.00  0.00     0.093 C 
HETATM   25  C4  UNL     1      26.831   4.219  49.343  1.00  0.00     0.017 C 
BRANCH  25  26
HETATM   26  C3  UNL     1      27.567   5.257  48.593  1.00  0.00    -0.003 C 
HETATM   27  C2  UNL     1      28.827   5.494  48.310  1.00  0.00    -0.031 C 
HETATM   28  C1  UNL     1      29.182   6.677  47.504  1.00  0.00     0.036 C 
ENDBRANCH  25  26
ENDBRANCH   1  24
TORSDOF 2
ENDMDL
MODEL 3
REMARK VINA RESULT:      -9.8      2.443      4.891
REMARK  2 active torsions:
REMARK  status: ('A' for Active; 'I' for Inactive)
REMARK    1  A    between atoms: C3_3  and  C4_4 
REMARK    2  A    between atoms: C5_5  and  N1_6 
ROOT
HETATM    1  N1  UNL     1      25.589   0.956  52.540  1.00  0.00    -0.333 N 
HETATM    2  C6  UNL     1      26.298   2.132  52.004  1.00  0.00     0.301 C 
HETATM    3  O1  UNL     1      25.884   2.443  50.728  1.00  0.00    -0.347 OA
HETATM    4  C7  UNL     1      24.759   3.227  50.628  1.00  0.00     0.233 C 
HETATM    5  C8  UNL     1      24.678   4.032  49.377  1.00  0.00     0.064 C 
HETATM    6  N2  UNL     1      23.617   2.320  50.685  1.00  0.00    -0.285 N 
HETATM    7  C9  UNL     1      22.812   2.329  49.698  1.00  0.00    -0.052 C 
HETATM    8  C10 UNL     1      22.089   2.331  48.842  1.00  0.00     0.065 A 
HETATM    9  C11 UNL     1      21.247   2.324  47.878  1.00  0.00     0.025 A 
HETATM   10  C12 UNL     1      20.391   2.486  49.012  1.00  0.00     0.038 A 
HETATM   11  C13 UNL     1      19.964   1.625  50.054  1.00  0.00    -0.019 C 
HETATM   12  C14 UNL     1      20.803   1.513  51.157  1.00  0.00     0.011 C 
HETATM   13  C15 UNL     1      21.929   1.072  51.861  1.00  0.00     0.002 A 
HETATM   14  C16 UNL     1      21.551   0.176  52.838  1.00  0.00    -0.012 A 
HETATM   15  C17 UNL     1      22.507  -0.419  53.669  1.00  0.00     0.043 A 
HETATM   16  C18 UNL     1      23.835  -0.097  53.497  1.00  0.00     0.050 A 
HETATM   17  C19 UNL     1      24.145   0.820  52.487  1.00  0.00     0.065 A 
HETATM   18  C20 UNL     1      23.242   1.435  51.641  1.00  0.00     0.082 A 
HETATM   19  C21 UNL     1      21.892  -1.325  54.622  1.00  0.00     0.252 A 
HETATM   20  O2  UNL     1      22.386  -2.039  55.521  1.00  0.00    -0.268 OA
HETATM   21  N3  UNL     1      20.509  -1.263  54.342  1.00  0.00    -0.353 N 
HETATM   22  C22 UNL     1      20.234  -0.362  53.274  1.00  0.00     0.163 A 
HETATM   23  H19 UNL     1      19.668  -1.726  54.745  1.00  0.00     0.163 HD
ENDROOT
BRANCH   1  24
HETATM   24  C5  UNL     1      26.389  -0.066  53.120  1.00  0.00     0.093 C 
HETATM   25  C4  UNL     1      27.687   0.246  53.152  1.00  0.00     0.017 C 
BRANCH  25  26
HETATM   26  C3  UNL     1      28.866  -0.490  53.652  1.00  0.00    -0.003 C 
HETATM   27  C2  UNL     1      29.424  -1.652  53.398  1.00  0.00    -0.031 C 
HETATM   28  C1  UNL     1      30.639  -2.052  54.130  1.00  0.00     0.036 C 
ENDBRANCH  25  26
ENDBRANCH   1  24
TORSDOF 2
ENDMDL
MODEL 4
REMARK VINA RESULT:      -9.4      1.171      1.396
REMARK  2 active torsions:
REMARK  status: ('A' for Active; 'I' for Inactive)
REMARK    1  A    between atoms: C3_3  and  C4_4 
REMARK    2  A    between atoms: C5_5  and  N1_6 
ROOT
HETATM    1  N1  UNL     1      25.816   4.135  49.604  1.00  0.00    -0.333 N 
HETATM    2  C6  UNL     1      24.849   5.111  49.070  1.00  0.00     0.301 C 
HETATM    3  O1  UNL     1      23.674   4.507  48.680  1.00  0.00    -0.347 OA
HETATM    4  C7  UNL     1      22.739   4.303  49.667  1.00  0.00     0.233 C 
HETATM    5  C8  UNL     1      21.332   4.239  49.180  1.00  0.00     0.064 C 
HETATM    6  N2  UNL     1      23.080   3.034  50.302  1.00  0.00    -0.285 N 
HETATM    7  C9  UNL     1      22.194   2.119  50.297  1.00  0.00    -0.052 C 
HETATM    8  C10 UNL     1      21.421   1.307  50.309  1.00  0.00     0.065 A 
HETATM    9  C11 UNL     1      20.550   0.370  50.341  1.00  0.00     0.025 A 
HETATM   10  C12 UNL     1      20.937   0.456  51.715  1.00  0.00     0.038 A 
HETATM   11  C13 UNL     1      22.100   0.082  52.436  1.00  0.00    -0.019 C 
HETATM   12  C14 UNL     1      23.144   1.000  52.459  1.00  0.00     0.011 C 
HETATM   13  C15 UNL     1      24.237   1.698  51.935  1.00  0.00     0.002 A 
HETATM   14  C16 UNL     1      25.396   1.302  52.570  1.00  0.00    -0.012 A 
HETATM   15  C17 UNL     1      26.631   1.850  52.208  1.00  0.00     0.043 A 
HETATM   16  C18 UNL     1      26.675   2.794  51.205  1.00  0.00     0.050 A 
HETATM   17  C19 UNL     1      25.461   3.148  50.606  1.00  0.00     0.065 A 
HETATM   18  C20 UNL     1      24.217   2.638  50.925  1.00  0.00     0.082 A 
HETATM   19  C21 UNL     1      27.712   1.295  53.002  1.00  0.00     0.252 A 
HETATM   20  O2  UNL     1      28.942   1.514  52.991  1.00  0.00    -0.268 OA
HETATM   21  N3  UNL     1      27.086   0.375  53.872  1.00  0.00    -0.353 N 
HETATM   22  C22 UNL     1      25.678   0.338  53.668  1.00  0.00     0.163 A 
HETATM   23  H19 UNL     1      27.433  -0.266  54.617  1.00  0.00     0.163 HD
ENDROOT
BRANCH   1  24
HETATM   24  C5  UNL     1      27.140   4.196  49.088  1.00  0.00     0.093 C 
HETATM   25  C4  UNL     1      27.461   5.406  48.623  1.00  0.00     0.017 C 
BRANCH  25  26
HETATM   26  C3  UNL     1      28.698   5.930  48.008  1.00  0.00    -0.003 C 
HETATM   27  C2  UNL     1      29.246   7.115  47.867  1.00  0.00    -0.031 C 
HETATM   28  C1  UNL     1      30.537   7.241  47.166  1.00  0.00     0.036 C 
ENDBRANCH  25  26
ENDBRANCH   1  24
TORSDOF 2
ENDMDL
MODEL 5
REMARK VINA RESULT:      -9.1      2.662      7.565
REMARK  2 active torsions:
REMARK  status: ('A' for Active; 'I' for Inactive)
REMARK    1  A    between atoms: C3_3  and  C4_4 
REMARK    2  A    between atoms: C5_5  and  N1_6 
ROOT
HETATM    1  N1  UNL     1      20.653   0.301  52.510  1.00  0.00    -0.333 N 
HETATM    2  C6  UNL     1      20.580  -0.282  53.862  1.00  0.00     0.301 C 
HETATM    3  O1  UNL     1      21.649  -1.112  54.121  1.00  0.00    -0.347 OA
HETATM    4  C7  UNL     1      22.795  -0.504  54.576  1.00  0.00     0.233 C 
HETATM    5  C8  UNL     1      23.674  -1.382  55.398  1.00  0.00     0.064 C 
HETATM    6  N2  UNL     1      23.530  -0.069  53.393  1.00  0.00    -0.285 N 
HETATM    7  C9  UNL     1      24.712  -0.518  53.238  1.00  0.00    -0.052 C 
HETATM    8  C10 UNL     1      25.756  -0.897  53.093  1.00  0.00     0.065 A 
HETATM    9  C11 UNL     1      26.954  -1.312  52.913  1.00  0.00     0.025 A 
HETATM   10  C12 UNL     1      27.110   0.103  52.773  1.00  0.00     0.038 A 
HETATM   11  C13 UNL     1      26.750   1.040  51.771  1.00  0.00    -0.019 C 
HETATM   12  C14 UNL     1      25.459   1.552  51.830  1.00  0.00     0.011 C 
HETATM   13  C15 UNL     1      24.069   1.523  51.670  1.00  0.00     0.002 A 
HETATM   14  C16 UNL     1      23.694   2.374  50.652  1.00  0.00    -0.012 A 
HETATM   15  C17 UNL     1      22.349   2.507  50.292  1.00  0.00     0.043 A 
HETATM   16  C18 UNL     1      21.400   1.774  50.971  1.00  0.00     0.050 A 
HETATM   17  C19 UNL     1      21.852   0.932  51.992  1.00  0.00     0.065 A 
HETATM   18  C20 UNL     1      23.166   0.764  52.387  1.00  0.00     0.082 A 
HETATM   19  C21 UNL     1      22.182   3.451  49.202  1.00  0.00     0.252 A 
HETATM   20  O2  UNL     1      21.160   3.844  48.599  1.00  0.00    -0.268 OA
HETATM   21  N3  UNL     1      23.488   3.895  48.904  1.00  0.00    -0.353 N 
HETATM   22  C22 UNL     1      24.453   3.286  49.754  1.00  0.00     0.163 A 
HETATM   23  H19 UNL     1      23.884   4.562  48.208  1.00  0.00     0.163 HD
ENDROOT
BRANCH   1  24
HETATM   24  C5  UNL     1      19.480   0.216  51.712  1.00  0.00     0.093 C 
HETATM   25  C4  UNL     1      18.491  -0.454  52.310  1.00  0.00     0.017 C 
BRANCH  25  26
HETATM   26  C3  UNL     1      17.120  -0.787  51.874  1.00  0.00    -0.003 C 
HETATM   27  C2  UNL     1      16.379  -0.518  50.824  1.00  0.00    -0.031 C 
HETATM   28  C1  UNL     1      15.005  -1.049  50.746  1.00  0.00     0.036 C 
ENDBRANCH  25  26
ENDBRANCH   1  24
TORSDOF 2
ENDMDL
MODEL 6
REMARK VINA RESULT:      -8.6      3.248      4.713
REMARK  2 active torsions:
REMARK  status: ('A' for Active; 'I' for Inactive)
REMARK    1  A    between atoms: C3_3  and  C4_4 
REMARK    2  A    between atoms: C5_5  and  N1_6 
ROOT
HETATM    1  N1  UNL     1      23.377   2.333  52.649  1.00  0.00    -0.333 N 
HETATM    2  C6  UNL     1      23.600   3.757  52.341  1.00  0.00     0.301 C 
HETATM    3  O1  UNL     1      22.995   4.127  51.159  1.00  0.00    -0.347 OA
HETATM    4  C7  UNL     1      21.668   4.476  51.239  1.00  0.00     0.233 C 
HETATM    5  C8  UNL     1      21.211   5.411  50.173  1.00  0.00     0.064 C 
HETATM    6  N2  UNL     1      20.907   3.235  51.141  1.00  0.00    -0.285 N 
HETATM    7  C9  UNL     1      20.063   3.138  50.191  1.00  0.00    -0.052 C 
HETATM    8  C10 UNL     1      19.310   3.041  49.367  1.00  0.00     0.065 A 
HETATM    9  C11 UNL     1      18.438   2.914  48.438  1.00  0.00     0.025 A 
HETATM   10  C12 UNL     1      17.681   2.565  49.599  1.00  0.00     0.038 A 
HETATM   11  C13 UNL     1      17.661   1.438  50.461  1.00  0.00    -0.019 C 
HETATM   12  C14 UNL     1      18.581   1.431  51.503  1.00  0.00     0.011 C 
HETATM   13  C15 UNL     1      19.847   1.291  52.082  1.00  0.00     0.002 A 
HETATM   14  C16 UNL     1      19.880   0.160  52.872  1.00  0.00    -0.012 A 
HETATM   15  C17 UNL     1      21.049  -0.204  53.549  1.00  0.00     0.043 A 
HETATM   16  C18 UNL     1      22.171   0.585  53.416  1.00  0.00     0.050 A 
HETATM   17  C19 UNL     1      22.065   1.716  52.600  1.00  0.00     0.065 A 
HETATM   18  C20 UNL     1      20.937   2.120  51.911  1.00  0.00     0.082 A 
HETATM   19  C21 UNL     1      20.860  -1.420  54.318  1.00  0.00     0.252 A 
HETATM   20  O2  UNL     1      21.643  -2.066  55.048  1.00  0.00    -0.268 OA
HETATM   21  N3  UNL     1      19.519  -1.793  54.084  1.00  0.00    -0.353 N 
HETATM   22  C22 UNL     1      18.864  -0.869  53.220  1.00  0.00     0.163 A 
HETATM   23  H19 UNL     1      18.921  -2.583  54.405  1.00  0.00     0.163 HD
ENDROOT
BRANCH   1  24
HETATM   24  C5  UNL     1      24.522   1.566  53.000  1.00  0.00     0.093 C 
HETATM   25  C4  UNL     1      25.557   2.321  53.379  1.00  0.00     0.017 C 
BRANCH  25  26
HETATM   26  C3  UNL     1      26.922   1.973  53.821  1.00  0.00    -0.003 C 
HETATM   27  C2  UNL     1      28.139   2.335  53.484  1.00  0.00    -0.031 C 
HETATM   28  C1  UNL     1      29.294   1.743  54.182  1.00  0.00     0.036 C 
ENDBRANCH  25  26
ENDBRANCH   1  24
TORSDOF 2
ENDMDL
MODEL 7
REMARK VINA RESULT:      -8.6      2.198      5.968
REMARK  2 active torsions:
REMARK  status: ('A' for Active; 'I' for Inactive)
REMARK    1  A    between atoms: C3_3  and  C4_4 
REMARK    2  A    between atoms: C5_5  and  N1_6 
ROOT
HETATM    1  N1  UNL     1      22.292   3.043  50.782  1.00  0.00    -0.333 N 
HETATM    2  C6  UNL     1      23.015   3.592  49.621  1.00  0.00     0.301 C 
HETATM    3  O1  UNL     1      24.297   3.976  49.951  1.00  0.00    -0.347 OA
HETATM    4  C7  UNL     1      25.252   2.988  49.927  1.00  0.00     0.233 C 
HETATM    5  C8  UNL     1      26.638   3.476  49.679  1.00  0.00     0.064 C 
HETATM    6  N2  UNL     1      25.205   2.334  51.231  1.00  0.00    -0.285 N 
HETATM    7  C9  UNL     1      26.274   2.329  51.923  1.00  0.00    -0.052 C 
HETATM    8  C10 UNL     1      27.209   2.307  52.540  1.00  0.00     0.065 A 
HETATM    9  C11 UNL     1      28.269   2.263  53.257  1.00  0.00     0.025 A 
HETATM   10  C12 UNL     1      27.870   0.891  53.242  1.00  0.00     0.038 A 
HETATM   11  C13 UNL     1      26.820   0.162  53.857  1.00  0.00    -0.019 C 
HETATM   12  C14 UNL     1      25.597   0.150  53.197  1.00  0.00     0.011 C 
HETATM   13  C15 UNL     1      24.375   0.682  52.771  1.00  0.00     0.002 A 
HETATM   14  C16 UNL     1      23.334   0.040  53.408  1.00  0.00    -0.012 A 
HETATM   15  C17 UNL     1      22.008   0.407  53.157  1.00  0.00     0.043 A 
HETATM   16  C18 UNL     1      21.755   1.423  52.261  1.00  0.00     0.050 A 
HETATM   17  C19 UNL     1      22.858   2.029  51.651  1.00  0.00     0.065 A 
HETATM   18  C20 UNL     1      24.184   1.705  51.864  1.00  0.00     0.082 A 
HETATM   19  C21 UNL     1      21.079  -0.396  53.930  1.00  0.00     0.252 A 
HETATM   20  O2  UNL     1      19.830  -0.384  53.994  1.00  0.00    -0.268 OA
HETATM   21  N3  UNL     1      21.893  -1.278  54.673  1.00  0.00    -0.353 N 
HETATM   22  C22 UNL     1      23.274  -1.071  54.396  1.00  0.00     0.163 A 
HETATM   23  H19 UNL     1      21.699  -2.032  55.366  1.00  0.00     0.163 HD
ENDROOT
BRANCH   1  24
HETATM   24  C5  UNL     1      20.989   3.558  51.028  1.00  0.00     0.093 C 
HETATM   25  C4  UNL     1      20.248   3.648  49.920  1.00  0.00     0.017 C 
BRANCH  25  26
HETATM   26  C3  UNL     1      18.866   4.115  49.693  1.00  0.00    -0.003 C 
HETATM   27  C2  UNL     1      17.792   3.625  49.117  1.00  0.00    -0.031 C 
HETATM   28  C1  UNL     1      16.552   4.421  49.090  1.00  0.00     0.036 C 
ENDBRANCH  25  26
ENDBRANCH   1  24
TORSDOF 2
ENDMDL
MODEL 8
REMARK VINA RESULT:      -8.6      1.859      6.520
REMARK  2 active torsions:
REMARK  status: ('A' for Active; 'I' for Inactive)
REMARK    1  A    between atoms: C3_3  and  C4_4 
REMARK    2  A    between atoms: C5_5  and  N1_6 
ROOT
HETATM    1  N1  UNL     1      21.376   2.103  50.458  1.00  0.00    -0.333 N 
HETATM    2  C6  UNL     1      20.681   2.498  49.219  1.00  0.00     0.301 C 
HETATM    3  O1  UNL     1      21.089   3.738  48.776  1.00  0.00    -0.347 OA
HETATM    4  C7  UNL     1      22.225   3.763  48.003  1.00  0.00     0.233 C 
HETATM    5  C8  UNL     1      22.308   4.919  47.066  1.00  0.00     0.064 C 
HETATM    6  N2  UNL     1      23.353   3.818  48.928  1.00  0.00    -0.285 N 
HETATM    7  C9  UNL     1      24.149   4.807  48.823  1.00  0.00    -0.052 C 
HETATM    8  C10 UNL     1      24.864   5.666  48.738  1.00  0.00     0.065 A 
HETATM    9  C11 UNL     1      25.697   6.634  48.651  1.00  0.00     0.025 A 
HETATM   10  C12 UNL     1      26.565   5.499  48.628  1.00  0.00     0.038 A 
HETATM   11  C13 UNL     1      26.988   4.561  49.605  1.00  0.00    -0.019 C 
HETATM   12  C14 UNL     1      26.158   3.468  49.824  1.00  0.00     0.011 C 
HETATM   13  C15 UNL     1      25.031   2.805  50.323  1.00  0.00     0.002 A 
HETATM   14  C16 UNL     1      25.403   1.936  51.327  1.00  0.00    -0.012 A 
HETATM   15  C17 UNL     1      24.445   1.165  51.995  1.00  0.00     0.043 A 
HETATM   16  C18 UNL     1      23.121   1.286  51.635  1.00  0.00     0.050 A 
HETATM   17  C19 UNL     1      22.817   2.186  50.609  1.00  0.00     0.065 A 
HETATM   18  C20 UNL     1      23.722   2.969  49.918  1.00  0.00     0.082 A 
HETATM   19  C21 UNL     1      25.055   0.324  53.009  1.00  0.00     0.252 A 
HETATM   20  O2  UNL     1      24.557  -0.496  53.810  1.00  0.00    -0.268 OA
HETATM   21  N3  UNL     1      26.435   0.611  52.938  1.00  0.00    -0.353 N 
HETATM   22  C22 UNL     1      26.715   1.576  51.930  1.00  0.00     0.163 A 
HETATM   23  H19 UNL     1      27.273   0.271  53.456  1.00  0.00     0.163 HD
ENDROOT
BRANCH   1  24
HETATM   24  C5  UNL     1      20.565   1.630  51.525  1.00  0.00     0.093 C 
HETATM   25  C4  UNL     1      19.702   0.685  51.142  1.00  0.00     0.017 C 
BRANCH  25  26
HETATM   26  C3  UNL     1      18.683  -0.081  51.889  1.00  0.00    -0.003 C 
HETATM   27  C2  UNL     1      18.690  -0.890  52.923  1.00  0.00    -0.031 C 
HETATM   28  C1  UNL     1      17.424  -1.483  53.392  1.00  0.00     0.036 C 
ENDBRANCH  25  26
ENDBRANCH   1  24
TORSDOF 2
ENDMDL
MODEL 9
REMARK VINA RESULT:      -8.4      2.420      3.857
REMARK  2 active torsions:
REMARK  status: ('A' for Active; 'I' for Inactive)
REMARK    1  A    between atoms: C3_3  and  C4_4 
REMARK    2  A    between atoms: C5_5  and  N1_6 
ROOT
HETATM    1  N1  UNL     1      21.529   2.090  50.111  1.00  0.00    -0.333 N 
HETATM    2  C6  UNL     1      20.631   3.089  49.504  1.00  0.00     0.301 C 
HETATM    3  O1  UNL     1      19.420   2.539  49.145  1.00  0.00    -0.347 OA
HETATM    4  C7  UNL     1      18.470   2.463  50.135  1.00  0.00     0.233 C 
HETATM    5  C8  UNL     1      17.064   2.460  49.642  1.00  0.00     0.064 C 
HETATM    6  N2  UNL     1      18.723   1.221  50.858  1.00  0.00    -0.285 N 
HETATM    7  C9  UNL     1      17.778   0.368  50.906  1.00  0.00    -0.052 C 
HETATM    8  C10 UNL     1      16.954  -0.389  50.966  1.00  0.00     0.065 A 
HETATM    9  C11 UNL     1      16.022  -1.263  51.054  1.00  0.00     0.025 A 
HETATM   10  C12 UNL     1      16.409  -1.110  52.422  1.00  0.00     0.038 A 
HETATM   11  C13 UNL     1      17.541  -1.509  53.177  1.00  0.00    -0.019 C 
HETATM   12  C14 UNL     1      18.643  -0.662  53.147  1.00  0.00     0.011 C 
HETATM   13  C15 UNL     1      19.783  -0.075  52.586  1.00  0.00     0.002 A 
HETATM   14  C16 UNL     1      20.910  -0.502  53.256  1.00  0.00    -0.012 A 
HETATM   15  C17 UNL     1      22.180  -0.061  52.869  1.00  0.00     0.043 A 
HETATM   16  C18 UNL     1      22.290   0.807  51.806  1.00  0.00     0.050 A 
HETATM   17  C19 UNL     1      21.105   1.198  51.173  1.00  0.00     0.065 A 
HETATM   18  C20 UNL     1      19.829   0.794  51.515  1.00  0.00     0.082 A 
HETATM   19  C21 UNL     1      23.218  -0.632  53.708  1.00  0.00     0.252 A 
HETATM   20  O2  UNL     1      24.461  -0.495  53.693  1.00  0.00    -0.268 OA
HETATM   21  N3  UNL     1      22.530  -1.447  54.633  1.00  0.00    -0.353 N 
HETATM   22  C22 UNL     1      21.123  -1.406  54.419  1.00  0.00     0.163 A 
HETATM   23  H19 UNL     1      22.830  -2.058  55.423  1.00  0.00     0.163 HD
ENDROOT
BRANCH   1  24
HETATM   24  C5  UNL     1      22.856   2.029  49.603  1.00  0.00     0.093 C 
HETATM   25  C4  UNL     1      23.499   3.197  49.686  1.00  0.00     0.017 C 
BRANCH  25  26
HETATM   26  C3  UNL     1      24.864   3.601  49.293  1.00  0.00    -0.003 C 
HETATM   27  C2  UNL     1      25.649   4.623  49.545  1.00  0.00    -0.031 C 
HETATM   28  C1  UNL     1      26.994   4.674  48.945  1.00  0.00     0.036 C 
ENDBRANCH  25  26
ENDBRANCH   1  24
TORSDOF 2
ENDMDL
