MODEL 1
REMARK VINA RESULT:      -7.7      0.000      0.000
REMARK  8 active torsions:
REMARK  status: ('A' for Active; 'I' for Inactive)
REMARK    1  A    between atoms: C2_2  and  C3_3 
REMARK    2  A    between atoms: C3_3  and  C4_5 
REMARK    3  A    between atoms: C4_5  and  C5_6 
REMARK    4  A    between atoms: C5_6  and  C6_7 
REMARK    5  A    between atoms: N2_9  and  C7_10 
REMARK    6  A    between atoms: C8_12  and  O1_13 
REMARK    7  A    between atoms: C10_16  and  C11_17 
REMARK    8  A    between atoms: C14_20  and  O2_21 
ROOT
HETATM    1  C6  UNL     1      24.953   2.573  53.142  1.00  0.00     0.058 C 
HETATM    2  N1  UNL     1      25.557   1.773  53.973  1.00  0.00    -0.174 NA
HETATM    3  N2  UNL     1      26.164   0.691  53.357  1.00  0.00    -0.236 N 
HETATM    4  C10 UNL     1      25.183   0.499  52.264  1.00  0.00     0.151 C 
HETATM    5  C18 UNL     1      25.200   1.955  51.798  1.00  0.00     0.093 C 
ENDROOT
BRANCH   4   6
HETATM    6  C11 UNL     1      23.864   0.098  52.758  1.00  0.00    -0.033 A 
HETATM    7  C12 UNL     1      22.719   0.390  52.008  1.00  0.00     0.012 A 
HETATM    8  C13 UNL     1      21.456   0.037  52.407  1.00  0.00     0.037 A 
HETATM    9  C14 UNL     1      21.229  -0.632  53.576  1.00  0.00     0.068 A 
HETATM   10  C16 UNL     1      22.327  -0.942  54.347  1.00  0.00     0.037 A 
HETATM   11  C17 UNL     1      23.591  -0.575  53.927  1.00  0.00     0.012 A 
BRANCH   9  12
HETATM   12  O2  UNL     1      19.932  -0.969  53.937  1.00  0.00    -0.356 OA
HETATM   13  C15 UNL     1      18.877  -0.660  53.054  1.00  0.00     0.210 C 
ENDBRANCH   9  12
ENDBRANCH   4   6
BRANCH   3  14
HETATM   14  C7  UNL     1      27.307  -0.194  53.416  1.00  0.00     0.192 A 
HETATM   15  N3  UNL     1      27.474  -1.354  53.345  1.00  0.00    -0.198 NA
HETATM   16  C8  UNL     1      28.691  -1.907  53.429  1.00  0.00     0.171 A 
HETATM   17  C9  UNL     1      29.811  -1.092  53.606  1.00  0.00     0.111 A 
HETATM   18  S1  UNL     1      29.022   0.576  53.652  1.00  0.00    -0.058 SA
BRANCH  16  19
HETATM   19  O1  UNL     1      28.760  -3.314  53.332  1.00  0.00    -0.344 OA
HETATM   20  H5  UNL     1      28.196  -3.835  52.671  1.00  0.00     0.219 HD
ENDBRANCH  16  19
ENDBRANCH   3  14
BRANCH   1  21
HETATM   21  C5  UNL     1      24.199   3.774  53.180  1.00  0.00     0.043 C 
BRANCH  21  22
HETATM   22  C4  UNL     1      23.546   3.756  52.028  1.00  0.00    -0.001 C 
BRANCH  22  23
HETATM   23  C3  UNL     1      22.554   3.911  51.159  1.00  0.00     0.044 C 
HETATM   24 CL1  UNL     1      21.047   3.926  51.979  1.00  0.00    -0.083 Cl
BRANCH  23  25
HETATM   25  C2  UNL     1      22.881   4.028  49.781  1.00  0.00     0.014 C 
HETATM   26  C1  UNL     1      23.091   2.999  48.989  1.00  0.00     0.013 C 
ENDBRANCH  23  25
ENDBRANCH  22  23
ENDBRANCH  21  22
ENDBRANCH   1  21
TORSDOF 8
ENDMDL
MODEL 2
REMARK VINA RESULT:      -7.5      2.195      2.463
REMARK  8 active torsions:
REMARK  status: ('A' for Active; 'I' for Inactive)
REMARK    1  A    between atoms: C2_2  and  C3_3 
REMARK    2  A    between atoms: C3_3  and  C4_5 
REMARK    3  A    between atoms: C4_5  and  C5_6 
REMARK    4  A    between atoms: C5_6  and  C6_7 
REMARK    5  A    between atoms: N2_9  and  C7_10 
REMARK    6  A    between atoms: C8_12  and  O1_13 
REMARK    7  A    between atoms: C10_16  and  C11_17 
REMARK    8  A    between atoms: C14_20  and  O2_21 
ROOT
HETATM    1  C6  UNL     1      23.751   3.557  52.397  1.00  0.00     0.058 C 
HETATM    2  N1  UNL     1      24.472   3.193  53.419  1.00  0.00    -0.174 NA
HETATM    3  N2  UNL     1      25.474   2.291  53.096  1.00  0.00    -0.236 N 
HETATM    4  C10 UNL     1      24.758   1.564  52.023  1.00  0.00     0.151 C 
HETATM    5  C18 UNL     1      24.357   2.815  51.242  1.00  0.00     0.093 C 
ENDROOT
BRANCH   4   6
HETATM    6  C11 UNL     1      23.591   0.833  52.522  1.00  0.00    -0.033 A 
HETATM    7  C12 UNL     1      22.403   0.827  51.783  1.00  0.00     0.012 A 
HETATM    8  C13 UNL     1      21.277   0.157  52.188  1.00  0.00     0.037 A 
HETATM    9  C14 UNL     1      21.240  -0.556  53.352  1.00  0.00     0.068 A 
HETATM   10  C16 UNL     1      22.388  -0.579  54.113  1.00  0.00     0.037 A 
HETATM   11  C17 UNL     1      23.512   0.104  53.687  1.00  0.00     0.012 A 
BRANCH   9  12
HETATM   12  O2  UNL     1      20.077  -1.218  53.719  1.00  0.00    -0.356 OA
HETATM   13  C15 UNL     1      18.848  -0.782  53.184  1.00  0.00     0.210 C 
ENDBRANCH   9  12
ENDBRANCH   4   6
BRANCH   3  14
HETATM   14  C7  UNL     1      26.826   1.888  53.415  1.00  0.00     0.192 A 
HETATM   15  N3  UNL     1      27.738   2.377  53.969  1.00  0.00    -0.198 NA
HETATM   16  C8  UNL     1      28.905   1.738  54.126  1.00  0.00     0.171 A 
HETATM   17  C9  UNL     1      29.059   0.445  53.624  1.00  0.00     0.111 A 
HETATM   18  S1  UNL     1      27.394   0.161  52.879  1.00  0.00    -0.058 SA
BRANCH  16  19
HETATM   19  O1  UNL     1      29.926   2.436  54.807  1.00  0.00    -0.344 OA
HETATM   20  H5  UNL     1      29.916   3.445  54.902  1.00  0.00     0.219 HD
ENDBRANCH  16  19
ENDBRANCH   3  14
BRANCH   1  21
HETATM   21  C5  UNL     1      22.648   4.405  52.122  1.00  0.00     0.043 C 
BRANCH  21  22
HETATM   22  C4  UNL     1      23.177   5.349  51.358  1.00  0.00    -0.001 C 
BRANCH  22  23
HETATM   23  C3  UNL     1      23.502   6.561  50.926  1.00  0.00     0.044 C 
HETATM   24 CL1  UNL     1      22.088   7.509  50.707  1.00  0.00    -0.083 Cl
BRANCH  23  25
HETATM   25  C2  UNL     1      24.877   6.856  50.725  1.00  0.00     0.014 C 
HETATM   26  C1  UNL     1      25.631   6.254  49.830  1.00  0.00     0.013 C 
ENDBRANCH  23  25
ENDBRANCH  22  23
ENDBRANCH  21  22
ENDBRANCH   1  21
TORSDOF 8
ENDMDL
MODEL 3
REMARK VINA RESULT:      -7.4      3.777      5.552
REMARK  8 active torsions:
REMARK  status: ('A' for Active; 'I' for Inactive)
REMARK    1  A    between atoms: C2_2  and  C3_3 
REMARK    2  A    between atoms: C3_3  and  C4_5 
REMARK    3  A    between atoms: C4_5  and  C5_6 
REMARK    4  A    between atoms: C5_6  and  C6_7 
REMARK    5  A    between atoms: N2_9  and  C7_10 
REMARK    6  A    between atoms: C8_12  and  O1_13 
REMARK    7  A    between atoms: C10_16  and  C11_17 
REMARK    8  A    between atoms: C14_20  and  O2_21 
ROOT
HETATM    1  C6  UNL     1      25.742   0.859  52.807  1.00  0.00     0.058 C 
HETATM    2  N1  UNL     1      25.909   1.097  51.537  1.00  0.00    -0.174 NA
HETATM    3  N2  UNL     1      25.734   2.429  51.196  1.00  0.00    -0.236 N 
HETATM    4  C10 UNL     1      24.676   2.756  52.179  1.00  0.00     0.151 C 
HETATM    5  C18 UNL     1      25.429   2.206  53.390  1.00  0.00     0.093 C 
ENDROOT
BRANCH   4   6
HETATM    6  C11 UNL     1      23.432   2.025  51.929  1.00  0.00    -0.033 A 
HETATM    7  C12 UNL     1      22.641   1.605  53.004  1.00  0.00     0.012 A 
HETATM    8  C13 UNL     1      21.463   0.924  52.841  1.00  0.00     0.037 A 
HETATM    9  C14 UNL     1      20.976   0.607  51.605  1.00  0.00     0.068 A 
HETATM   10  C16 UNL     1      21.722   1.001  50.516  1.00  0.00     0.037 A 
HETATM   11  C17 UNL     1      22.908   1.686  50.702  1.00  0.00     0.012 A 
BRANCH   9  12
HETATM   12  O2  UNL     1      19.778  -0.083  51.491  1.00  0.00    -0.356 OA
HETATM   13  C15 UNL     1      19.010  -0.310  52.651  1.00  0.00     0.210 C 
ENDBRANCH   9  12
ENDBRANCH   4   6
BRANCH   3  14
HETATM   14  C7  UNL     1      26.199   3.476  50.313  1.00  0.00     0.192 A 
HETATM   15  N3  UNL     1      27.183   3.688  49.708  1.00  0.00    -0.198 NA
HETATM   16  C8  UNL     1      27.329   4.776  48.940  1.00  0.00     0.171 A 
HETATM   17  C9  UNL     1      26.286   5.699  48.841  1.00  0.00     0.111 A 
HETATM   18  S1  UNL     1      25.026   4.918  49.941  1.00  0.00    -0.058 SA
BRANCH  16  19
HETATM   19  O1  UNL     1      28.562   4.918  48.266  1.00  0.00    -0.344 OA
HETATM   20  H5  UNL     1      28.752   4.448  47.389  1.00  0.00     0.219 HD
ENDBRANCH  16  19
ENDBRANCH   3  14
BRANCH   1  21
HETATM   21  C5  UNL     1      25.785  -0.244  53.697  1.00  0.00     0.043 C 
BRANCH  21  22
HETATM   22  C4  UNL     1      27.048  -0.260  54.094  1.00  0.00    -0.001 C 
BRANCH  22  23
HETATM   23  C3  UNL     1      28.372  -0.193  54.030  1.00  0.00     0.044 C 
HETATM   24 CL1  UNL     1      29.002  -1.618  53.310  1.00  0.00    -0.083 Cl
BRANCH  23  25
HETATM   25  C2  UNL     1      29.011   0.971  54.538  1.00  0.00     0.014 C 
HETATM   26  C1  UNL     1      29.026   2.129  53.915  1.00  0.00     0.013 C 
ENDBRANCH  23  25
ENDBRANCH  22  23
ENDBRANCH  21  22
ENDBRANCH   1  21
TORSDOF 8
ENDMDL
MODEL 4
REMARK VINA RESULT:      -7.3      3.813      6.818
REMARK  8 active torsions:
REMARK  status: ('A' for Active; 'I' for Inactive)
REMARK    1  A    between atoms: C2_2  and  C3_3 
REMARK    2  A    between atoms: C3_3  and  C4_5 
REMARK    3  A    between atoms: C4_5  and  C5_6 
REMARK    4  A    between atoms: C5_6  and  C6_7 
REMARK    5  A    between atoms: N2_9  and  C7_10 
REMARK    6  A    between atoms: C8_12  and  O1_13 
REMARK    7  A    between atoms: C10_16  and  C11_17 
REMARK    8  A    between atoms: C14_20  and  O2_21 
ROOT
HETATM    1  C6  UNL     1      22.024   1.519  51.264  1.00  0.00     0.058 C 
HETATM    2  N1  UNL     1      21.971   2.629  51.944  1.00  0.00    -0.174 NA
HETATM    3  N2  UNL     1      22.686   3.666  51.367  1.00  0.00    -0.236 N 
HETATM    4  C10 UNL     1      23.784   2.861  50.786  1.00  0.00     0.151 C 
HETATM    5  C18 UNL     1      22.871   1.863  50.074  1.00  0.00     0.093 C 
ENDROOT
BRANCH   4   6
HETATM    6  C11 UNL     1      24.609   2.215  51.810  1.00  0.00    -0.033 A 
HETATM    7  C12 UNL     1      24.744   2.806  53.071  1.00  0.00     0.012 A 
HETATM    8  C13 UNL     1      25.493   2.252  54.077  1.00  0.00     0.037 A 
HETATM    9  C14 UNL     1      26.164   1.073  53.913  1.00  0.00     0.068 A 
HETATM   10  C16 UNL     1      26.059   0.455  52.687  1.00  0.00     0.037 A 
HETATM   11  C17 UNL     1      25.299   1.031  51.686  1.00  0.00     0.012 A 
BRANCH   9  12
HETATM   12  O2  UNL     1      26.908   0.551  54.962  1.00  0.00    -0.356 OA
HETATM   13  C15 UNL     1      28.234   0.139  54.717  1.00  0.00     0.210 C 
ENDBRANCH   9  12
ENDBRANCH   4   6
BRANCH   3  14
HETATM   14  C7  UNL     1      22.700   5.098  51.162  1.00  0.00     0.192 A 
HETATM   15  N3  UNL     1      23.460   5.967  51.373  1.00  0.00    -0.198 NA
HETATM   16  C8  UNL     1      23.195   7.242  51.055  1.00  0.00     0.171 A 
HETATM   17  C9  UNL     1      21.979   7.565  50.449  1.00  0.00     0.111 A 
HETATM   18  S1  UNL     1      21.188   5.899  50.348  1.00  0.00    -0.058 SA
BRANCH  16  19
HETATM   19  O1  UNL     1      24.189   8.195  51.363  1.00  0.00    -0.344 OA
HETATM   20  H5  UNL     1      24.504   8.881  50.686  1.00  0.00     0.219 HD
ENDBRANCH  16  19
ENDBRANCH   3  14
BRANCH   1  21
HETATM   21  C5  UNL     1      21.525   0.194  51.349  1.00  0.00     0.043 C 
BRANCH  21  22
HETATM   22  C4  UNL     1      21.972  -0.222  52.524  1.00  0.00    -0.001 C 
BRANCH  22  23
HETATM   23  C3  UNL     1      22.090  -0.328  53.842  1.00  0.00     0.044 C 
HETATM   24 CL1  UNL     1      20.741   0.396  54.616  1.00  0.00    -0.083 Cl
BRANCH  23  25
HETATM   25  C2  UNL     1      23.242  -0.977  54.363  1.00  0.00     0.014 C 
HETATM   26  C1  UNL     1      23.343  -1.407  55.602  1.00  0.00     0.013 C 
ENDBRANCH  23  25
ENDBRANCH  22  23
ENDBRANCH  21  22
ENDBRANCH   1  21
TORSDOF 8
ENDMDL
MODEL 5
REMARK VINA RESULT:      -7.2      4.090      7.566
REMARK  8 active torsions:
REMARK  status: ('A' for Active; 'I' for Inactive)
REMARK    1  A    between atoms: C2_2  and  C3_3 
REMARK    2  A    between atoms: C3_3  and  C4_5 
REMARK    3  A    between atoms: C4_5  and  C5_6 
REMARK    4  A    between atoms: C5_6  and  C6_7 
REMARK    5  A    between atoms: N2_9  and  C7_10 
REMARK    6  A    between atoms: C8_12  and  O1_13 
REMARK    7  A    between atoms: C10_16  and  C11_17 
REMARK    8  A    between atoms: C14_20  and  O2_21 
ROOT
HETATM    1  C6  UNL     1      25.318   2.161  53.028  1.00  0.00     0.058 C 
HETATM    2  N1  UNL     1      24.245   2.895  53.113  1.00  0.00    -0.174 NA
HETATM    3  N2  UNL     1      23.220   2.475  52.280  1.00  0.00    -0.236 N 
HETATM    4  C10 UNL     1      24.054   1.989  51.157  1.00  0.00     0.151 C 
HETATM    5  C18 UNL     1      24.959   1.109  52.019  1.00  0.00     0.093 C 
ENDROOT
BRANCH   4   6
HETATM    6  C11 UNL     1      24.799   3.067  50.503  1.00  0.00    -0.033 A 
HETATM    7  C12 UNL     1      26.096   2.832  50.032  1.00  0.00     0.012 A 
HETATM    8  C13 UNL     1      26.846   3.793  49.404  1.00  0.00     0.037 A 
HETATM    9  C14 UNL     1      26.372   5.057  49.195  1.00  0.00     0.068 A 
HETATM   10  C16 UNL     1      25.098   5.333  49.641  1.00  0.00     0.037 A 
HETATM   11  C17 UNL     1      24.360   4.350  50.273  1.00  0.00     0.012 A 
BRANCH   9  12
HETATM   12  O2  UNL     1      27.168   5.995  48.553  1.00  0.00    -0.356 OA
HETATM   13  C15 UNL     1      28.521   5.685  48.305  1.00  0.00     0.210 C 
ENDBRANCH   9  12
ENDBRANCH   4   6
BRANCH   3  14
HETATM   14  C7  UNL     1      21.783   2.360  52.168  1.00  0.00     0.192 A 
HETATM   15  N3  UNL     1      20.877   3.107  52.185  1.00  0.00    -0.198 NA
HETATM   16  C8  UNL     1      19.609   2.698  52.045  1.00  0.00     0.171 A 
HETATM   17  C9  UNL     1      19.336   1.340  51.869  1.00  0.00     0.111 A 
HETATM   18  S1  UNL     1      21.041   0.634  51.916  1.00  0.00    -0.058 SA
BRANCH  16  19
HETATM   19  O1  UNL     1      18.610   3.694  52.086  1.00  0.00    -0.344 OA
HETATM   20  H5  UNL     1      17.808   3.625  52.702  1.00  0.00     0.219 HD
ENDBRANCH  16  19
ENDBRANCH   3  14
BRANCH   1  21
HETATM   21  C5  UNL     1      26.614   2.103  53.599  1.00  0.00     0.043 C 
BRANCH  21  22
HETATM   22  C4  UNL     1      27.011   0.870  53.320  1.00  0.00    -0.001 C 
BRANCH  22  23
HETATM   23  C3  UNL     1      27.808  -0.187  53.224  1.00  0.00     0.044 C 
HETATM   24 CL1  UNL     1      26.910  -1.560  52.722  1.00  0.00    -0.083 Cl
BRANCH  23  25
HETATM   25  C2  UNL     1      29.184  -0.021  53.538  1.00  0.00     0.014 C 
HETATM   26  C1  UNL     1      30.024  -1.021  53.699  1.00  0.00     0.013 C 
ENDBRANCH  23  25
ENDBRANCH  22  23
ENDBRANCH  21  22
ENDBRANCH   1  21
TORSDOF 8
ENDMDL
MODEL 6
REMARK VINA RESULT:      -7.1      2.045      2.329
REMARK  8 active torsions:
REMARK  status: ('A' for Active; 'I' for Inactive)
REMARK    1  A    between atoms: C2_2  and  C3_3 
REMARK    2  A    between atoms: C3_3  and  C4_5 
REMARK    3  A    between atoms: C4_5  and  C5_6 
REMARK    4  A    between atoms: C5_6  and  C6_7 
REMARK    5  A    between atoms: N2_9  and  C7_10 
REMARK    6  A    between atoms: C8_12  and  O1_13 
REMARK    7  A    between atoms: C10_16  and  C11_17 
REMARK    8  A    between atoms: C14_20  and  O2_21 
ROOT
HETATM    1  C6  UNL     1      23.724   3.532  52.332  1.00  0.00     0.058 C 
HETATM    2  N1  UNL     1      24.439   3.184  53.363  1.00  0.00    -0.174 NA
HETATM    3  N2  UNL     1      25.438   2.273  53.062  1.00  0.00    -0.236 N 
HETATM    4  C10 UNL     1      24.724   1.528  51.999  1.00  0.00     0.151 C 
HETATM    5  C18 UNL     1      24.332   2.766  51.193  1.00  0.00     0.093 C 
ENDROOT
BRANCH   4   6
HETATM    6  C11 UNL     1      23.553   0.811  52.507  1.00  0.00    -0.033 A 
HETATM    7  C12 UNL     1      22.377   0.771  51.750  1.00  0.00     0.012 A 
HETATM    8  C13 UNL     1      21.247   0.113  52.161  1.00  0.00     0.037 A 
HETATM    9  C14 UNL     1      21.194  -0.556  53.351  1.00  0.00     0.068 A 
HETATM   10  C16 UNL     1      22.329  -0.545  54.130  1.00  0.00     0.037 A 
HETATM   11  C17 UNL     1      23.457   0.126  53.697  1.00  0.00     0.012 A 
BRANCH   9  12
HETATM   12  O2  UNL     1      20.027  -1.209  53.724  1.00  0.00    -0.356 OA
HETATM   13  C15 UNL     1      18.803  -0.789  53.165  1.00  0.00     0.210 C 
ENDBRANCH   9  12
ENDBRANCH   4   6
BRANCH   3  14
HETATM   14  C7  UNL     1      26.787   1.870  53.395  1.00  0.00     0.192 A 
HETATM   15  N3  UNL     1      27.699   2.366  53.944  1.00  0.00    -0.198 NA
HETATM   16  C8  UNL     1      28.863   1.726  54.119  1.00  0.00     0.171 A 
HETATM   17  C9  UNL     1      29.014   0.423  53.640  1.00  0.00     0.111 A 
HETATM   18  S1  UNL     1      27.351   0.132  52.892  1.00  0.00    -0.058 SA
BRANCH  16  19
HETATM   19  O1  UNL     1      29.883   2.431  54.791  1.00  0.00    -0.344 OA
HETATM   20  H5  UNL     1      30.006   3.432  54.682  1.00  0.00     0.219 HD
ENDBRANCH  16  19
ENDBRANCH   3  14
BRANCH   1  21
HETATM   21  C5  UNL     1      22.625   4.378  52.035  1.00  0.00     0.043 C 
BRANCH  21  22
HETATM   22  C4  UNL     1      22.414   4.158  50.746  1.00  0.00    -0.001 C 
BRANCH  22  23
HETATM   23  C3  UNL     1      21.774   4.094  49.586  1.00  0.00     0.044 C 
HETATM   24 CL1  UNL     1      22.877   4.316  48.290  1.00  0.00    -0.083 Cl
BRANCH  23  25
HETATM   25  C2  UNL     1      20.370   3.871  49.604  1.00  0.00     0.014 C 
HETATM   26  C1  UNL     1      19.819   2.685  49.747  1.00  0.00     0.013 C 
ENDBRANCH  23  25
ENDBRANCH  22  23
ENDBRANCH  21  22
ENDBRANCH   1  21
TORSDOF 8
ENDMDL
MODEL 7
REMARK VINA RESULT:      -7.1      3.613      6.763
REMARK  8 active torsions:
REMARK  status: ('A' for Active; 'I' for Inactive)
REMARK    1  A    between atoms: C2_2  and  C3_3 
REMARK    2  A    between atoms: C3_3  and  C4_5 
REMARK    3  A    between atoms: C4_5  and  C5_6 
REMARK    4  A    between atoms: C5_6  and  C6_7 
REMARK    5  A    between atoms: N2_9  and  C7_10 
REMARK    6  A    between atoms: C8_12  and  O1_13 
REMARK    7  A    between atoms: C10_16  and  C11_17 
REMARK    8  A    between atoms: C14_20  and  O2_21 
ROOT
HETATM    1  C6  UNL     1      26.432   1.945  52.828  1.00  0.00     0.058 C 
HETATM    2  N1  UNL     1      25.331   2.166  53.487  1.00  0.00    -0.174 NA
HETATM    3  N2  UNL     1      24.218   1.565  52.922  1.00  0.00    -0.236 N 
HETATM    4  C10 UNL     1      24.616   1.689  51.501  1.00  0.00     0.151 C 
HETATM    5  C18 UNL     1      26.003   1.074  51.684  1.00  0.00     0.093 C 
ENDROOT
BRANCH   4   6
HETATM    6  C11 UNL     1      24.689   3.084  51.059  1.00  0.00    -0.033 A 
HETATM    7  C12 UNL     1      25.610   3.456  50.074  1.00  0.00     0.012 A 
HETATM    8  C13 UNL     1      25.727   4.740  49.609  1.00  0.00     0.037 A 
HETATM    9  C14 UNL     1      24.942   5.753  50.082  1.00  0.00     0.068 A 
HETATM   10  C16 UNL     1      24.020   5.434  51.053  1.00  0.00     0.037 A 
HETATM   11  C17 UNL     1      23.920   4.132  51.509  1.00  0.00     0.012 A 
BRANCH   9  12
HETATM   12  O2  UNL     1      25.096   7.038  49.580  1.00  0.00    -0.356 OA
HETATM   13  C15 UNL     1      26.293   7.734  49.845  1.00  0.00     0.210 C 
ENDBRANCH   9  12
ENDBRANCH   4   6
BRANCH   3  14
HETATM   14  C7  UNL     1      22.958   0.923  53.229  1.00  0.00     0.192 A 
HETATM   15  N3  UNL     1      22.607   0.069  53.954  1.00  0.00    -0.198 NA
HETATM   16  C8  UNL     1      21.328  -0.322  54.031  1.00  0.00     0.171 A 
HETATM   17  C9  UNL     1      20.365   0.298  53.232  1.00  0.00     0.111 A 
HETATM   18  S1  UNL     1      21.407   1.519  52.318  1.00  0.00    -0.058 SA
BRANCH  16  19
HETATM   19  O1  UNL     1      21.033  -1.362  54.939  1.00  0.00    -0.344 OA
HETATM   20  H5  UNL     1      20.086  -1.561  55.239  1.00  0.00     0.219 HD
ENDBRANCH  16  19
ENDBRANCH   3  14
BRANCH   1  21
HETATM   21  C5  UNL     1      27.808   2.280  52.913  1.00  0.00     0.043 C 
BRANCH  21  22
HETATM   22  C4  UNL     1      28.306   1.317  53.674  1.00  0.00    -0.001 C 
BRANCH  22  23
HETATM   23  C3  UNL     1      28.396   0.151  54.302  1.00  0.00     0.044 C 
HETATM   24 CL1  UNL     1      27.106  -0.019  55.420  1.00  0.00    -0.083 Cl
BRANCH  23  25
HETATM   25  C2  UNL     1      29.479  -0.708  53.972  1.00  0.00     0.014 C 
HETATM   26  C1  UNL     1      29.345  -1.828  53.294  1.00  0.00     0.013 C 
ENDBRANCH  23  25
ENDBRANCH  22  23
ENDBRANCH  21  22
ENDBRANCH   1  21
TORSDOF 8
ENDMDL
MODEL 8
REMARK VINA RESULT:      -7.0      2.715      5.776
REMARK  8 active torsions:
REMARK  status: ('A' for Active; 'I' for Inactive)
REMARK    1  A    between atoms: C2_2  and  C3_3 
REMARK    2  A    between atoms: C3_3  and  C4_5 
REMARK    3  A    between atoms: C4_5  and  C5_6 
REMARK    4  A    between atoms: C5_6  and  C6_7 
REMARK    5  A    between atoms: N2_9  and  C7_10 
REMARK    6  A    between atoms: C8_12  and  O1_13 
REMARK    7  A    between atoms: C10_16  and  C11_17 
REMARK    8  A    between atoms: C14_20  and  O2_21 
ROOT
HETATM    1  C6  UNL     1      24.598   2.790  51.143  1.00  0.00     0.058 C 
HETATM    2  N1  UNL     1      24.094   1.589  51.164  1.00  0.00    -0.174 NA
HETATM    3  N2  UNL     1      23.451   1.280  52.352  1.00  0.00    -0.236 N 
HETATM    4  C10 UNL     1      24.324   2.051  53.266  1.00  0.00     0.151 C 
HETATM    5  C18 UNL     1      24.233   3.360  52.483  1.00  0.00     0.093 C 
ENDROOT
BRANCH   4   6
HETATM    6  C11 UNL     1      25.693   1.531  53.307  1.00  0.00    -0.033 A 
HETATM    7  C12 UNL     1      26.763   2.401  53.542  1.00  0.00     0.012 A 
HETATM    8  C13 UNL     1      28.066   1.980  53.601  1.00  0.00     0.037 A 
HETATM    9  C14 UNL     1      28.411   0.669  53.431  1.00  0.00     0.068 A 
HETATM   10  C16 UNL     1      27.389  -0.224  53.197  1.00  0.00     0.037 A 
HETATM   11  C17 UNL     1      26.082   0.221  53.141  1.00  0.00     0.012 A 
BRANCH   9  12
HETATM   12  O2  UNL     1      29.744   0.291  53.500  1.00  0.00    -0.356 OA
HETATM   13  C15 UNL     1      30.058  -1.073  53.666  1.00  0.00     0.210 C 
ENDBRANCH   9  12
ENDBRANCH   4   6
BRANCH   3  14
HETATM   14  C7  UNL     1      22.337   0.552  52.919  1.00  0.00     0.192 A 
HETATM   15  N3  UNL     1      22.211  -0.303  53.714  1.00  0.00    -0.198 NA
HETATM   16  C8  UNL     1      21.010  -0.790  54.056  1.00  0.00     0.171 A 
HETATM   17  C9  UNL     1      19.859  -0.275  53.458  1.00  0.00     0.111 A 
HETATM   18  S1  UNL     1      20.590   0.992  52.331  1.00  0.00    -0.058 SA
BRANCH  16  19
HETATM   19  O1  UNL     1      20.992  -1.819  55.022  1.00  0.00    -0.344 OA
HETATM   20  H5  UNL     1      20.530  -2.705  54.855  1.00  0.00     0.219 HD
ENDBRANCH  16  19
ENDBRANCH   3  14
BRANCH   1  21
HETATM   21  C5  UNL     1      25.328   3.621  50.256  1.00  0.00     0.043 C 
BRANCH  21  22
HETATM   22  C4  UNL     1      24.470   3.835  49.270  1.00  0.00    -0.001 C 
BRANCH  22  23
HETATM   23  C3  UNL     1      23.316   4.056  48.653  1.00  0.00     0.044 C 
HETATM   24 CL1  UNL     1      22.700   2.590  48.009  1.00  0.00    -0.083 Cl
BRANCH  23  25
HETATM   25  C2  UNL     1      22.814   5.386  48.623  1.00  0.00     0.014 C 
HETATM   26  C1  UNL     1      23.286   6.329  47.838  1.00  0.00     0.013 C 
ENDBRANCH  23  25
ENDBRANCH  22  23
ENDBRANCH  21  22
ENDBRANCH   1  21
TORSDOF 8
ENDMDL
MODEL 9
REMARK VINA RESULT:      -7.0      2.641      4.445
REMARK  8 active torsions:
REMARK  status: ('A' for Active; 'I' for Inactive)
REMARK    1  A    between atoms: C2_2  and  C3_3 
REMARK    2  A    between atoms: C3_3  and  C4_5 
REMARK    3  A    between atoms: C4_5  and  C5_6 
REMARK    4  A    between atoms: C5_6  and  C6_7 
REMARK    5  A    between atoms: N2_9  and  C7_10 
REMARK    6  A    between atoms: C8_12  and  O1_13 
REMARK    7  A    between atoms: C10_16  and  C11_17 
REMARK    8  A    between atoms: C14_20  and  O2_21 
ROOT
HETATM    1  C6  UNL     1      23.712   0.892  52.559  1.00  0.00     0.058 C 
HETATM    2  N1  UNL     1      24.636   0.166  51.998  1.00  0.00    -0.174 NA
HETATM    3  N2  UNL     1      25.878   0.289  52.601  1.00  0.00    -0.236 N 
HETATM    4  C10 UNL     1      25.777   1.714  52.993  1.00  0.00     0.151 C 
HETATM    5  C18 UNL     1      24.424   1.576  53.689  1.00  0.00     0.093 C 
ENDROOT
BRANCH   4   6
HETATM    6  C11 UNL     1      25.709   2.610  51.836  1.00  0.00    -0.033 A 
HETATM    7  C12 UNL     1      24.818   3.688  51.841  1.00  0.00     0.012 A 
HETATM    8  C13 UNL     1      24.709   4.570  50.797  1.00  0.00     0.037 A 
HETATM    9  C14 UNL     1      25.472   4.453  49.670  1.00  0.00     0.068 A 
HETATM   10  C16 UNL     1      26.365   3.405  49.621  1.00  0.00     0.037 A 
HETATM   11  C17 UNL     1      26.458   2.527  50.685  1.00  0.00     0.012 A 
BRANCH   9  12
HETATM   12  O2  UNL     1      25.326   5.370  48.639  1.00  0.00    -0.356 OA
HETATM   13  C15 UNL     1      26.067   6.569  48.685  1.00  0.00     0.210 C 
ENDBRANCH   9  12
ENDBRANCH   4   6
BRANCH   3  14
HETATM   14  C7  UNL     1      27.084  -0.433  52.941  1.00  0.00     0.192 A 
HETATM   15  N3  UNL     1      27.395  -1.564  53.006  1.00  0.00    -0.198 NA
HETATM   16  C8  UNL     1      28.631  -1.947  53.354  1.00  0.00     0.171 A 
HETATM   17  C9  UNL     1      29.596  -0.982  53.652  1.00  0.00     0.111 A 
HETATM   18  S1  UNL     1      28.624   0.568  53.407  1.00  0.00    -0.058 SA
BRANCH  16  19
HETATM   19  O1  UNL     1      28.879  -3.335  53.398  1.00  0.00    -0.344 OA
HETATM   20  H5  UNL     1      28.440  -3.938  54.085  1.00  0.00     0.219 HD
ENDBRANCH  16  19
ENDBRANCH   3  14
BRANCH   1  21
HETATM   21  C5  UNL     1      22.331   1.168  52.396  1.00  0.00     0.043 C 
BRANCH  21  22
HETATM   22  C4  UNL     1      22.184   1.204  51.080  1.00  0.00    -0.001 C 
BRANCH  22  23
HETATM   23  C3  UNL     1      21.719   1.567  49.891  1.00  0.00     0.044 C 
HETATM   24 CL1  UNL     1      20.098   1.036  49.704  1.00  0.00    -0.083 Cl
BRANCH  23  25
HETATM   25  C2  UNL     1      22.584   2.285  49.021  1.00  0.00     0.014 C 
HETATM   26  C1  UNL     1      22.574   2.160  47.712  1.00  0.00     0.013 C 
ENDBRANCH  23  25
ENDBRANCH  22  23
ENDBRANCH  21  22
ENDBRANCH   1  21
TORSDOF 8
ENDMDL
