MODEL 1
REMARK VINA RESULT:      -7.7      0.000      0.000
REMARK  4 active torsions:
REMARK  status: ('A' for Active; 'I' for Inactive)
REMARK    1  A    between atoms: O1_1  and  C1_2 
REMARK    2  A    between atoms: N3_8  and  C19_23 
REMARK    3  A    between atoms: C8_12  and  C10_14 
REMARK    4  A    between atoms: C12_16  and  C17_21 
ROOT
HETATM    1  C1  UNL     1      19.576   3.187  51.602  1.00  0.00     0.050 C 
HETATM    2  C2  UNL     1      19.551   3.412  50.215  1.00  0.00     0.066 C 
HETATM    3  C3  UNL     1      20.858   3.344  49.455  1.00  0.00     0.088 A 
HETATM    4  N1  UNL     1      20.420   2.568  48.466  1.00  0.00    -0.238 NA
HETATM    5  C4  UNL     1      21.404   2.230  47.506  1.00  0.00     0.255 A 
HETATM    6  N2  UNL     1      22.598   2.652  47.648  1.00  0.00    -0.165 NA
HETATM    7  N3  UNL     1      23.189   3.449  48.629  1.00  0.00    -0.261 N 
HETATM    8  C5  UNL     1      22.268   3.867  49.639  1.00  0.00     0.082 A 
HETATM    9  C6  UNL     1      22.375   4.734  50.707  1.00  0.00     0.034 C 
HETATM   10  C7  UNL     1      22.187   4.664  52.201  1.00  0.00     0.011 C 
HETATM   11  C8  UNL     1      21.802   3.418  52.449  1.00  0.00    -0.042 C 
HETATM   12  C9  UNL     1      20.583   2.608  52.668  1.00  0.00     0.103 C 
ENDROOT
BRANCH   1  13
HETATM   13  O1  UNL     1      18.375   3.598  52.124  1.00  0.00    -0.365 OA
HETATM   14  H1  UNL     1      17.619   2.930  52.208  1.00  0.00     0.217 HD
ENDBRANCH   1  13
BRANCH  11  15
HETATM   15  C10 UNL     1      22.968   2.544  52.436  1.00  0.00    -0.033 C 
HETATM   16  C11 UNL     1      22.845   1.215  52.164  1.00  0.00    -0.006 C 
HETATM   17  C12 UNL     1      22.969   0.297  53.405  1.00  0.00     0.037 C 
HETATM   18  C13 UNL     1      24.398  -0.010  53.372  1.00  0.00    -0.018 C 
HETATM   19  C14 UNL     1      25.343   0.972  53.399  1.00  0.00    -0.003 C 
HETATM   20  C15 UNL     1      25.234   2.461  53.304  1.00  0.00     0.001 C 
HETATM   21  C16 UNL     1      24.216   3.194  52.793  1.00  0.00     0.011 C 
BRANCH  17  22
HETATM   22  C17 UNL     1      21.887  -0.621  53.389  1.00  0.00     0.024 A 
HETATM   23  C18 UNL     1      21.173  -1.615  54.133  1.00  0.00     0.035 A 
HETATM   24  C19 UNL     1      21.170  -0.376  54.800  1.00  0.00     0.116 A 
ENDBRANCH  17  22
ENDBRANCH  11  15
TORSDOF 4
ENDMDL
MODEL 2
REMARK VINA RESULT:      -7.4      3.598      6.046
REMARK  4 active torsions:
REMARK  status: ('A' for Active; 'I' for Inactive)
REMARK    1  A    between atoms: O1_1  and  C1_2 
REMARK    2  A    between atoms: N3_8  and  C19_23 
REMARK    3  A    between atoms: C8_12  and  C10_14 
REMARK    4  A    between atoms: C12_16  and  C17_21 
ROOT
HETATM    1  C1  UNL     1      26.318   2.938  50.874  1.00  0.00     0.050 C 
HETATM    2  C2  UNL     1      27.082   2.044  51.643  1.00  0.00     0.066 C 
HETATM    3  C3  UNL     1      26.353   1.028  52.495  1.00  0.00     0.088 A 
HETATM    4  N1  UNL     1      27.072  -0.028  52.124  1.00  0.00    -0.238 NA
HETATM    5  C4  UNL     1      26.663  -1.251  52.709  1.00  0.00     0.255 A 
HETATM    6  N2  UNL     1      25.668  -1.270  53.505  1.00  0.00    -0.165 NA
HETATM    7  N3  UNL     1      24.829  -0.254  53.965  1.00  0.00    -0.261 N 
HETATM    8  C5  UNL     1      25.175   1.033  53.448  1.00  0.00     0.082 A 
HETATM    9  C6  UNL     1      24.713   2.305  53.712  1.00  0.00     0.034 C 
HETATM   10  C7  UNL     1      24.103   3.437  52.924  1.00  0.00     0.011 C 
HETATM   11  C8  UNL     1      24.062   3.010  51.668  1.00  0.00    -0.042 C 
HETATM   12  C9  UNL     1      24.822   3.077  50.399  1.00  0.00     0.103 C 
ENDROOT
BRANCH   1  13
HETATM   13  O1  UNL     1      27.145   3.944  50.440  1.00  0.00    -0.365 OA
HETATM   14  H1  UNL     1      27.787   4.372  51.094  1.00  0.00     0.217 HD
ENDBRANCH   1  13
BRANCH  11  15
HETATM   15  C10 UNL     1      22.919   2.121  51.500  1.00  0.00    -0.033 C 
HETATM   16  C11 UNL     1      22.736   1.424  50.345  1.00  0.00    -0.006 C 
HETATM   17  C12 UNL     1      21.617   1.987  49.434  1.00  0.00     0.037 C 
HETATM   18  C13 UNL     1      20.476   1.192  49.885  1.00  0.00    -0.018 C 
HETATM   19  C14 UNL     1      20.080   1.183  51.189  1.00  0.00    -0.003 C 
HETATM   20  C15 UNL     1      20.703   1.756  52.423  1.00  0.00     0.001 C 
HETATM   21  C16 UNL     1      21.997   2.105  52.621  1.00  0.00     0.011 C 
BRANCH  17  22
HETATM   22  C17 UNL     1      22.130   2.092  48.114  1.00  0.00     0.024 A 
HETATM   23  C18 UNL     1      22.008   2.758  46.851  1.00  0.00     0.035 A 
HETATM   24  C19 UNL     1      22.261   3.673  47.891  1.00  0.00     0.116 A 
ENDBRANCH  17  22
ENDBRANCH  11  15
TORSDOF 4
ENDMDL
MODEL 3
REMARK VINA RESULT:      -7.4      3.296      5.074
REMARK  4 active torsions:
REMARK  status: ('A' for Active; 'I' for Inactive)
REMARK    1  A    between atoms: O1_1  and  C1_2 
REMARK    2  A    between atoms: N3_8  and  C19_23 
REMARK    3  A    between atoms: C8_12  and  C10_14 
REMARK    4  A    between atoms: C12_16  and  C17_21 
ROOT
HETATM    1  C1  UNL     1      26.498   4.441  49.372  1.00  0.00     0.050 C 
HETATM    2  C2  UNL     1      26.040   5.765  49.271  1.00  0.00     0.066 C 
HETATM    3  C3  UNL     1      24.617   6.065  49.689  1.00  0.00     0.088 A 
HETATM    4  N1  UNL     1      24.898   7.131  50.435  1.00  0.00    -0.238 NA
HETATM    5  C4  UNL     1      23.774   7.719  51.063  1.00  0.00     0.255 A 
HETATM    6  N2  UNL     1      22.618   7.208  50.900  1.00  0.00    -0.165 NA
HETATM    7  N3  UNL     1      22.189   6.101  50.167  1.00  0.00    -0.261 N 
HETATM    8  C5  UNL     1      23.251   5.446  49.471  1.00  0.00     0.082 A 
HETATM    9  C6  UNL     1      23.279   4.413  48.558  1.00  0.00     0.034 C 
HETATM   10  C7  UNL     1      23.929   3.057  48.452  1.00  0.00     0.011 C 
HETATM   11  C8  UNL     1      24.653   2.928  49.558  1.00  0.00    -0.042 C 
HETATM   12  C9  UNL     1      26.035   3.100  50.060  1.00  0.00     0.103 C 
ENDROOT
BRANCH   1  13
HETATM   13  O1  UNL     1      27.670   4.338  48.665  1.00  0.00    -0.365 OA
HETATM   14  H1  UNL     1      27.647   4.412  47.656  1.00  0.00     0.217 HD
ENDBRANCH   1  13
BRANCH  11  15
HETATM   15  C10 UNL     1      23.781   2.554  50.662  1.00  0.00    -0.033 C 
HETATM   16  C11 UNL     1      24.169   2.734  51.955  1.00  0.00    -0.006 C 
HETATM   17  C12 UNL     1      24.581   1.431  52.683  1.00  0.00     0.037 C 
HETATM   18  C13 UNL     1      23.312   1.054  53.303  1.00  0.00    -0.018 C 
HETATM   19  C14 UNL     1      22.183   0.860  52.566  1.00  0.00    -0.003 C 
HETATM   20  C15 UNL     1      21.884   1.108  51.120  1.00  0.00     0.001 C 
HETATM   21  C16 UNL     1      22.531   1.933  50.263  1.00  0.00     0.011 C 
BRANCH  17  22
HETATM   22  C17 UNL     1      25.826   1.656  53.328  1.00  0.00     0.024 A 
HETATM   23  C18 UNL     1      26.931   1.046  54.005  1.00  0.00     0.035 A 
HETATM   24  C19 UNL     1      26.777   0.528  52.705  1.00  0.00     0.116 A 
ENDBRANCH  17  22
ENDBRANCH  11  15
TORSDOF 4
ENDMDL
MODEL 4
REMARK VINA RESULT:      -7.1      2.005      3.462
REMARK  4 active torsions:
REMARK  status: ('A' for Active; 'I' for Inactive)
REMARK    1  A    between atoms: O1_1  and  C1_2 
REMARK    2  A    between atoms: N3_8  and  C19_23 
REMARK    3  A    between atoms: C8_12  and  C10_14 
REMARK    4  A    between atoms: C12_16  and  C17_21 
ROOT
HETATM    1  C1  UNL     1      23.519   5.701  51.597  1.00  0.00     0.050 C 
HETATM    2  C2  UNL     1      23.115   5.629  50.253  1.00  0.00     0.066 C 
HETATM    3  C3  UNL     1      22.779   4.271  49.678  1.00  0.00     0.088 A 
HETATM    4  N1  UNL     1      21.631   4.625  49.105  1.00  0.00    -0.238 NA
HETATM    5  C4  UNL     1      20.952   3.571  48.450  1.00  0.00     0.255 A 
HETATM    6  N2  UNL     1      21.445   2.396  48.462  1.00  0.00    -0.165 NA
HETATM    7  N3  UNL     1      22.616   1.888  49.027  1.00  0.00    -0.261 N 
HETATM    8  C5  UNL     1      23.392   2.885  49.695  1.00  0.00     0.082 A 
HETATM    9  C6  UNL     1      24.641   2.867  50.279  1.00  0.00     0.034 C 
HETATM   10  C7  UNL     1      25.223   3.160  51.639  1.00  0.00     0.011 C 
HETATM   11  C8  UNL     1      24.194   3.545  52.385  1.00  0.00    -0.042 C 
HETATM   12  C9  UNL     1      23.508   4.766  52.865  1.00  0.00     0.103 C 
ENDROOT
BRANCH   1  13
HETATM   13  O1  UNL     1      24.063   6.943  51.814  1.00  0.00    -0.365 OA
HETATM   14  H1  UNL     1      24.896   7.213  51.307  1.00  0.00     0.217 HD
ENDBRANCH   1  13
BRANCH  11  15
HETATM   15  C10 UNL     1      23.454   2.370  52.825  1.00  0.00    -0.033 C 
HETATM   16  C11 UNL     1      24.044   1.420  53.603  1.00  0.00    -0.006 C 
HETATM   17  C12 UNL     1      24.407   0.117  52.849  1.00  0.00     0.037 C 
HETATM   18  C13 UNL     1      23.207  -0.681  53.096  1.00  0.00    -0.018 C 
HETATM   19  C14 UNL     1      21.969  -0.243  52.735  1.00  0.00    -0.003 C 
HETATM   20  C15 UNL     1      21.492   1.077  52.213  1.00  0.00     0.001 C 
HETATM   21  C16 UNL     1      22.097   2.284  52.317  1.00  0.00     0.011 C 
BRANCH  17  22
HETATM   22  C17 UNL     1      25.750  -0.220  53.165  1.00  0.00     0.024 A 
HETATM   23  C18 UNL     1      26.897  -0.984  52.775  1.00  0.00     0.035 A 
HETATM   24  C19 UNL     1      26.507  -0.090  51.760  1.00  0.00     0.116 A 
ENDBRANCH  17  22
ENDBRANCH  11  15
TORSDOF 4
ENDMDL
MODEL 5
REMARK VINA RESULT:      -7.0      2.450      4.143
REMARK  4 active torsions:
REMARK  status: ('A' for Active; 'I' for Inactive)
REMARK    1  A    between atoms: O1_1  and  C1_2 
REMARK    2  A    between atoms: N3_8  and  C19_23 
REMARK    3  A    between atoms: C8_12  and  C10_14 
REMARK    4  A    between atoms: C12_16  and  C17_21 
ROOT
HETATM    1  C1  UNL     1      23.135   6.738  50.642  1.00  0.00     0.050 C 
HETATM    2  C2  UNL     1      24.510   6.450  50.686  1.00  0.00     0.066 C 
HETATM    3  C3  UNL     1      24.938   4.999  50.658  1.00  0.00     0.088 A 
HETATM    4  N1  UNL     1      25.875   5.133  49.724  1.00  0.00    -0.238 NA
HETATM    5  C4  UNL     1      26.529   3.928  49.371  1.00  0.00     0.255 A 
HETATM    6  N2  UNL     1      26.186   2.835  49.929  1.00  0.00    -0.165 NA
HETATM    7  N3  UNL     1      25.225   2.552  50.900  1.00  0.00    -0.261 N 
HETATM    8  C5  UNL     1      24.521   3.713  51.344  1.00  0.00     0.082 A 
HETATM    9  C6  UNL     1      23.595   3.924  52.345  1.00  0.00     0.034 C 
HETATM   10  C7  UNL     1      22.188   4.456  52.445  1.00  0.00     0.011 C 
HETATM   11  C8  UNL     1      21.852   4.799  51.207  1.00  0.00    -0.042 C 
HETATM   12  C9  UNL     1      21.797   5.974  50.309  1.00  0.00     0.103 C 
ENDROOT
BRANCH   1  13
HETATM   13  O1  UNL     1      22.963   8.055  50.988  1.00  0.00    -0.365 OA
HETATM   14  H1  UNL     1      23.603   8.749  50.624  1.00  0.00     0.217 HD
ENDBRANCH   1  13
BRANCH  11  15
HETATM   15  C10 UNL     1      21.475   3.604  50.464  1.00  0.00    -0.033 C 
HETATM   16  C11 UNL     1      20.774   2.599  51.060  1.00  0.00    -0.006 C 
HETATM   17  C12 UNL     1      21.620   1.346  51.392  1.00  0.00     0.037 C 
HETATM   18  C13 UNL     1      21.400   0.545  50.188  1.00  0.00    -0.018 C 
HETATM   19  C14 UNL     1      21.704   1.018  48.947  1.00  0.00    -0.003 C 
HETATM   20  C15 UNL     1      22.127   2.374  48.474  1.00  0.00     0.001 C 
HETATM   21  C16 UNL     1      21.957   3.565  49.095  1.00  0.00     0.011 C 
BRANCH  17  22
HETATM   22  C17 UNL     1      21.357   0.975  52.737  1.00  0.00     0.024 A 
HETATM   23  C18 UNL     1      21.578  -0.009  53.754  1.00  0.00     0.035 A 
HETATM   24  C19 UNL     1      22.793   0.527  53.287  1.00  0.00     0.116 A 
ENDBRANCH  17  22
ENDBRANCH  11  15
TORSDOF 4
ENDMDL
MODEL 6
REMARK VINA RESULT:      -7.0     11.431     13.519
REMARK  4 active torsions:
REMARK  status: ('A' for Active; 'I' for Inactive)
REMARK    1  A    between atoms: O1_1  and  C1_2 
REMARK    2  A    between atoms: N3_8  and  C19_23 
REMARK    3  A    between atoms: C8_12  and  C10_14 
REMARK    4  A    between atoms: C12_16  and  C17_21 
ROOT
HETATM    1  C1  UNL     1      34.776   4.025  48.087  1.00  0.00     0.050 C 
HETATM    2  C2  UNL     1      34.573   3.633  46.753  1.00  0.00     0.066 C 
HETATM    3  C3  UNL     1      33.940   4.626  45.803  1.00  0.00     0.088 A 
HETATM    4  N1  UNL     1      34.813   4.467  44.811  1.00  0.00    -0.238 NA
HETATM    5  C4  UNL     1      34.574   5.288  43.683  1.00  0.00     0.255 A 
HETATM    6  N2  UNL     1      33.596   6.105  43.690  1.00  0.00    -0.165 NA
HETATM    7  N3  UNL     1      32.625   6.379  44.653  1.00  0.00    -0.261 N 
HETATM    8  C5  UNL     1      32.763   5.580  45.830  1.00  0.00     0.082 A 
HETATM    9  C6  UNL     1      31.985   5.428  46.959  1.00  0.00     0.034 C 
HETATM   10  C7  UNL     1      32.168   5.583  48.447  1.00  0.00     0.011 C 
HETATM   11  C8  UNL     1      33.437   5.938  48.611  1.00  0.00    -0.042 C 
HETATM   12  C9  UNL     1      34.766   5.365  48.919  1.00  0.00     0.103 C 
ENDROOT
BRANCH   1  13
HETATM   13  O1  UNL     1      35.059   2.903  48.825  1.00  0.00    -0.365 OA
HETATM   14  H1  UNL     1      34.451   2.651  49.593  1.00  0.00     0.217 HD
ENDBRANCH   1  13
BRANCH  11  15
HETATM   15  C10 UNL     1      33.578   7.360  48.326  1.00  0.00    -0.033 C 
HETATM   16  C11 UNL     1      32.622   8.250  48.710  1.00  0.00    -0.006 C 
HETATM   17  C12 UNL     1      31.729   8.762  47.553  1.00  0.00     0.037 C 
HETATM   18  C13 UNL     1      32.452   9.975  47.170  1.00  0.00    -0.018 C 
HETATM   19  C14 UNL     1      33.761   9.940  46.793  1.00  0.00    -0.003 C 
HETATM   20  C15 UNL     1      34.776   8.840  46.819  1.00  0.00     0.001 C 
HETATM   21  C16 UNL     1      34.764   7.710  47.565  1.00  0.00     0.011 C 
BRANCH  17  22
HETATM   22  C17 UNL     1      30.372   8.656  47.957  1.00  0.00     0.024 A 
HETATM   23  C18 UNL     1      29.009   8.889  47.583  1.00  0.00     0.035 A 
HETATM   24  C19 UNL     1      29.650   8.029  46.672  1.00  0.00     0.116 A 
ENDBRANCH  17  22
ENDBRANCH  11  15
TORSDOF 4
ENDMDL
MODEL 7
REMARK VINA RESULT:      -7.0      3.156      6.263
REMARK  4 active torsions:
REMARK  status: ('A' for Active; 'I' for Inactive)
REMARK    1  A    between atoms: O1_1  and  C1_2 
REMARK    2  A    between atoms: N3_8  and  C19_23 
REMARK    3  A    between atoms: C8_12  and  C10_14 
REMARK    4  A    between atoms: C12_16  and  C17_21 
ROOT
HETATM    1  C1  UNL     1      26.204   2.834  51.367  1.00  0.00     0.050 C 
HETATM    2  C2  UNL     1      25.438   2.387  52.458  1.00  0.00     0.066 C 
HETATM    3  C3  UNL     1      23.940   2.589  52.410  1.00  0.00     0.088 A 
HETATM    4  N1  UNL     1      23.607   1.354  52.778  1.00  0.00    -0.238 NA
HETATM    5  C4  UNL     1      22.213   1.113  52.829  1.00  0.00     0.255 A 
HETATM    6  N2  UNL     1      21.398   2.041  52.517  1.00  0.00    -0.165 NA
HETATM    7  N3  UNL     1      21.607   3.358  52.107  1.00  0.00    -0.261 N 
HETATM    8  C5  UNL     1      22.990   3.712  52.046  1.00  0.00     0.082 A 
HETATM    9  C6  UNL     1      23.645   4.903  51.812  1.00  0.00     0.034 C 
HETATM   10  C7  UNL     1      24.664   5.422  50.830  1.00  0.00     0.011 C 
HETATM   11  C8  UNL     1      24.954   4.390  50.047  1.00  0.00    -0.042 C 
HETATM   12  C9  UNL     1      25.951   3.307  49.885  1.00  0.00     0.103 C 
ENDROOT
BRANCH   1  13
HETATM   13  O1  UNL     1      27.524   2.841  51.746  1.00  0.00    -0.365 OA
HETATM   14  H1  UNL     1      28.202   3.315  51.164  1.00  0.00     0.217 HD
ENDBRANCH   1  13
BRANCH  11  15
HETATM   15  C10 UNL     1      23.902   4.231  49.052  1.00  0.00    -0.033 C 
HETATM   16  C11 UNL     1      23.393   5.308  48.391  1.00  0.00    -0.006 C 
HETATM   17  C12 UNL     1      21.987   5.743  48.873  1.00  0.00     0.037 C 
HETATM   18  C13 UNL     1      21.140   4.996  47.943  1.00  0.00    -0.018 C 
HETATM   19  C14 UNL     1      21.217   3.640  47.835  1.00  0.00    -0.003 C 
HETATM   20  C15 UNL     1      22.175   2.647  48.416  1.00  0.00     0.001 C 
HETATM   21  C16 UNL     1      23.424   2.870  48.889  1.00  0.00     0.011 C 
BRANCH  17  22
HETATM   22  C17 UNL     1      22.005   7.146  49.089  1.00  0.00     0.024 A 
HETATM   23  C18 UNL     1      21.254   8.279  49.539  1.00  0.00     0.035 A 
HETATM   24  C19 UNL     1      21.365   7.305  50.549  1.00  0.00     0.116 A 
ENDBRANCH  17  22
ENDBRANCH  11  15
TORSDOF 4
ENDMDL
MODEL 8
REMARK VINA RESULT:      -6.8      2.497      5.544
REMARK  4 active torsions:
REMARK  status: ('A' for Active; 'I' for Inactive)
REMARK    1  A    between atoms: O1_1  and  C1_2 
REMARK    2  A    between atoms: N3_8  and  C19_23 
REMARK    3  A    between atoms: C8_12  and  C10_14 
REMARK    4  A    between atoms: C12_16  and  C17_21 
ROOT
HETATM    1  C1  UNL     1      23.003   1.040  52.676  1.00  0.00     0.050 C 
HETATM    2  C2  UNL     1      21.690   1.330  53.084  1.00  0.00     0.066 C 
HETATM    3  C3  UNL     1      20.947   2.437  52.368  1.00  0.00     0.088 A 
HETATM    4  N1  UNL     1      19.816   1.762  52.173  1.00  0.00    -0.238 NA
HETATM    5  C4  UNL     1      18.819   2.479  51.469  1.00  0.00     0.255 A 
HETATM    6  N2  UNL     1      19.057   3.665  51.067  1.00  0.00    -0.165 NA
HETATM    7  N3  UNL     1      20.185   4.476  51.189  1.00  0.00    -0.261 N 
HETATM    8  C5  UNL     1      21.248   3.850  51.911  1.00  0.00     0.082 A 
HETATM    9  C6  UNL     1      22.470   4.303  52.363  1.00  0.00     0.034 C 
HETATM   10  C7  UNL     1      23.917   3.918  52.188  1.00  0.00     0.011 C 
HETATM   11  C8  UNL     1      23.904   2.851  51.398  1.00  0.00    -0.042 C 
HETATM   12  C9  UNL     1      23.941   1.372  51.454  1.00  0.00     0.103 C 
ENDROOT
BRANCH   1  13
HETATM   13  O1  UNL     1      23.583   0.247  53.635  1.00  0.00    -0.365 OA
HETATM   14  H1  UNL     1      23.518  -0.759  53.550  1.00  0.00     0.217 HD
ENDBRANCH   1  13
BRANCH  11  15
HETATM   15  C10 UNL     1      23.728   3.278  50.016  1.00  0.00    -0.033 C 
HETATM   16  C11 UNL     1      24.385   4.368  49.530  1.00  0.00    -0.006 C 
HETATM   17  C12 UNL     1      23.494   5.623  49.358  1.00  0.00     0.037 C 
HETATM   18  C13 UNL     1      23.081   5.471  47.964  1.00  0.00    -0.018 C 
HETATM   19  C14 UNL     1      22.434   4.355  47.525  1.00  0.00    -0.003 C 
HETATM   20  C15 UNL     1      22.144   3.046  48.190  1.00  0.00     0.001 C 
HETATM   21  C16 UNL     1      22.770   2.495  49.258  1.00  0.00     0.011 C 
BRANCH  17  22
HETATM   22  C17 UNL     1      24.164   6.728  49.946  1.00  0.00     0.024 A 
HETATM   23  C18 UNL     1      24.126   8.140  50.181  1.00  0.00     0.035 A 
HETATM   24  C19 UNL     1      22.995   7.501  50.722  1.00  0.00     0.116 A 
ENDBRANCH  17  22
ENDBRANCH  11  15
TORSDOF 4
ENDMDL
MODEL 9
REMARK VINA RESULT:      -6.8      2.468      3.911
REMARK  4 active torsions:
REMARK  status: ('A' for Active; 'I' for Inactive)
REMARK    1  A    between atoms: O1_1  and  C1_2 
REMARK    2  A    between atoms: N3_8  and  C19_23 
REMARK    3  A    between atoms: C8_12  and  C10_14 
REMARK    4  A    between atoms: C12_16  and  C17_21 
ROOT
HETATM    1  C1  UNL     1      20.654   3.558  47.396  1.00  0.00     0.050 C 
HETATM    2  C2  UNL     1      19.407   3.341  48.007  1.00  0.00     0.066 C 
HETATM    3  C3  UNL     1      19.367   3.172  49.510  1.00  0.00     0.088 A 
HETATM    4  N1  UNL     1      18.361   4.014  49.732  1.00  0.00    -0.238 NA
HETATM    5  C4  UNL     1      18.015   4.168  51.096  1.00  0.00     0.255 A 
HETATM    6  N2  UNL     1      18.668   3.536  51.990  1.00  0.00    -0.165 NA
HETATM    7  N3  UNL     1      19.738   2.644  51.900  1.00  0.00    -0.261 N 
HETATM    8  C5  UNL     1      20.150   2.401  50.553  1.00  0.00     0.082 A 
HETATM    9  C6  UNL     1      21.060   1.528  49.993  1.00  0.00     0.034 C 
HETATM   10  C7  UNL     1      22.287   1.631  49.122  1.00  0.00     0.011 C 
HETATM   11  C8  UNL     1      22.431   2.926  48.869  1.00  0.00    -0.042 C 
HETATM   12  C9  UNL     1      22.116   3.944  47.842  1.00  0.00     0.103 C 
ENDROOT
BRANCH   1  13
HETATM   13  O1  UNL     1      20.506   3.372  46.044  1.00  0.00    -0.365 OA
HETATM   14  H1  UNL     1      21.323   3.401  45.449  1.00  0.00     0.217 HD
ENDBRANCH   1  13
BRANCH  11  15
HETATM   15  C10 UNL     1      23.048   3.574  50.018  1.00  0.00    -0.033 C 
HETATM   16  C11 UNL     1      24.048   2.964  50.714  1.00  0.00    -0.006 C 
HETATM   17  C12 UNL     1      23.610   2.389  52.084  1.00  0.00     0.037 C 
HETATM   18  C13 UNL     1      23.926   3.515  52.962  1.00  0.00    -0.018 C 
HETATM   19  C14 UNL     1      23.391   4.752  52.764  1.00  0.00    -0.003 C 
HETATM   20  C15 UNL     1      22.573   5.315  51.644  1.00  0.00     0.001 C 
HETATM   21  C16 UNL     1      22.470   4.857  50.373  1.00  0.00     0.011 C 
BRANCH  17  22
HETATM   22  C17 UNL     1      24.088   1.056  52.180  1.00  0.00     0.024 A 
HETATM   23  C18 UNL     1      24.246  -0.081  53.036  1.00  0.00     0.035 A 
HETATM   24  C19 UNL     1      22.892   0.284  52.914  1.00  0.00     0.116 A 
ENDBRANCH  17  22
ENDBRANCH  11  15
TORSDOF 4
ENDMDL
