MODEL 1
REMARK VINA RESULT:      -8.0      0.000      0.000
REMARK  5 active torsions:
REMARK  status: ('A' for Active; 'I' for Inactive)
REMARK    1  A    between atoms: C1_2  and  C2_3 
REMARK    2  A    between atoms: C1_2  and  C9_11 
REMARK    3  A    between atoms: C2_3  and  C3_4 
REMARK    4  A    between atoms: C3_4  and  N1_5 
REMARK    5  A    between atoms: C12_14  and  C13_15 
ROOT
HETATM    1  C9  UNL     1      24.590   3.110  52.178  1.00  0.00     0.010 A 
HETATM    2  C10 UNL     1      25.346   2.545  51.155  1.00  0.00     0.016 A 
HETATM    3  C11 UNL     1      26.360   1.598  51.335  1.00  0.00     0.013 A 
HETATM    4  C12 UNL     1      26.631   1.195  52.623  1.00  0.00    -0.026 A 
HETATM    5  C19 UNL     1      25.930   1.705  53.692  1.00  0.00     0.013 A 
HETATM    6  C20 UNL     1      24.953   2.628  53.430  1.00  0.00     0.016 A 
ENDROOT
BRANCH   1   7
HETATM    7  C1  UNL     1      23.541   4.111  51.878  1.00  0.00     0.161 C 
HETATM    8  O1  UNL     1      24.041   5.094  51.275  1.00  0.00    -0.292 OA
BRANCH   7   9
HETATM    9  C2  UNL     1      22.247   3.628  52.385  1.00  0.00     0.103 C 
BRANCH   9  10
HETATM   10  C3  UNL     1      21.719   2.360  51.827  1.00  0.00     0.124 C 
BRANCH  10  11
HETATM   11  N1  UNL     1      21.670   1.212  52.630  1.00  0.00    -0.412 N 
HETATM   12  C4  UNL     1      20.520   0.878  53.351  1.00  0.00     0.117 C 
HETATM   13  C5  UNL     1      21.014   0.207  54.655  1.00  0.00     0.019 C 
HETATM   14  C6  UNL     1      21.577  -1.108  54.218  1.00  0.00     0.003 C 
HETATM   15  C7  UNL     1      22.769  -0.887  53.327  1.00  0.00     0.019 C 
HETATM   16  C8  UNL     1      22.563   0.158  52.282  1.00  0.00     0.117 C 
ENDBRANCH  10  11
ENDBRANCH   9  10
ENDBRANCH   7   9
ENDBRANCH   1   7
BRANCH   4  17
HETATM   17  C13 UNL     1      27.668   0.221  52.937  1.00  0.00    -0.026 A 
HETATM   18  C14 UNL     1      27.255  -1.091  52.706  1.00  0.00     0.012 A 
HETATM   19  C15 UNL     1      28.084  -2.162  52.939  1.00  0.00     0.001 A 
HETATM   20  C16 UNL     1      29.358  -1.859  53.419  1.00  0.00     0.000 A 
HETATM   21  C17 UNL     1      29.777  -0.556  53.652  1.00  0.00     0.001 A 
HETATM   22  C18 UNL     1      28.928   0.503  53.412  1.00  0.00     0.012 A 
ENDBRANCH   4  17
TORSDOF 5
ENDMDL
MODEL 2
REMARK VINA RESULT:      -8.0      3.391      6.089
REMARK  5 active torsions:
REMARK  status: ('A' for Active; 'I' for Inactive)
REMARK    1  A    between atoms: C1_2  and  C2_3 
REMARK    2  A    between atoms: C1_2  and  C9_11 
REMARK    3  A    between atoms: C2_3  and  C3_4 
REMARK    4  A    between atoms: C3_4  and  N1_5 
REMARK    5  A    between atoms: C12_14  and  C13_15 
ROOT
HETATM    1  C9  UNL     1      24.398   2.395  50.896  1.00  0.00     0.010 A 
HETATM    2  C10 UNL     1      23.861   3.357  50.045  1.00  0.00     0.016 A 
HETATM    3  C11 UNL     1      24.605   4.310  49.343  1.00  0.00     0.013 A 
HETATM    4  C12 UNL     1      25.972   4.296  49.506  1.00  0.00    -0.026 A 
HETATM    5  C19 UNL     1      26.582   3.379  50.329  1.00  0.00     0.013 A 
HETATM    6  C20 UNL     1      25.782   2.478  50.981  1.00  0.00     0.016 A 
ENDROOT
BRANCH   1   7
HETATM    7  C1  UNL     1      23.517   1.432  51.598  1.00  0.00     0.161 C 
HETATM    8  O1  UNL     1      22.575   1.081  50.845  1.00  0.00    -0.292 OA
BRANCH   7   9
HETATM    9  C2  UNL     1      24.036   1.197  52.955  1.00  0.00     0.103 C 
BRANCH   9  10
HETATM   10  C3  UNL     1      24.617  -0.133  53.250  1.00  0.00     0.124 C 
BRANCH  10  11
HETATM   11  N1  UNL     1      26.005  -0.271  53.395  1.00  0.00    -0.412 N 
HETATM   12  C4  UNL     1      26.799  -0.761  52.354  1.00  0.00     0.117 C 
HETATM   13  C5  UNL     1      27.942  -1.557  53.027  1.00  0.00     0.019 C 
HETATM   14  C6  UNL     1      28.791  -0.520  53.689  1.00  0.00     0.003 C 
HETATM   15  C7  UNL     1      28.008   0.175  54.769  1.00  0.00     0.019 C 
HETATM   16  C8  UNL     1      26.627   0.568  54.363  1.00  0.00     0.117 C 
ENDBRANCH  10  11
ENDBRANCH   9  10
ENDBRANCH   7   9
ENDBRANCH   1   7
BRANCH   4  17
HETATM   17  C13 UNL     1      26.850   5.244  48.834  1.00  0.00    -0.026 A 
HETATM   18  C14 UNL     1      26.188   6.415  48.464  1.00  0.00     0.012 A 
HETATM   19  C15 UNL     1      26.836   7.439  47.816  1.00  0.00     0.001 A 
HETATM   20  C16 UNL     1      28.190   7.239  47.552  1.00  0.00     0.000 A 
HETATM   21  C17 UNL     1      28.858   6.077  47.917  1.00  0.00     0.001 A 
HETATM   22  C18 UNL     1      28.187   5.062  48.565  1.00  0.00     0.012 A 
ENDBRANCH   4  17
TORSDOF 5
ENDMDL
MODEL 3
REMARK VINA RESULT:      -7.7      2.378      4.573
REMARK  5 active torsions:
REMARK  status: ('A' for Active; 'I' for Inactive)
REMARK    1  A    between atoms: C1_2  and  C2_3 
REMARK    2  A    between atoms: C1_2  and  C9_11 
REMARK    3  A    between atoms: C2_3  and  C3_4 
REMARK    4  A    between atoms: C3_4  and  N1_5 
REMARK    5  A    between atoms: C12_14  and  C13_15 
ROOT
HETATM    1  C9  UNL     1      23.789   1.970  52.427  1.00  0.00     0.010 A 
HETATM    2  C10 UNL     1      25.075   2.342  52.047  1.00  0.00     0.016 A 
HETATM    3  C11 UNL     1      26.212   1.536  52.167  1.00  0.00     0.013 A 
HETATM    4  C12 UNL     1      26.046   0.279  52.703  1.00  0.00    -0.026 A 
HETATM    5  C19 UNL     1      24.808  -0.166  53.106  1.00  0.00     0.013 A 
HETATM    6  C20 UNL     1      23.745   0.685  52.954  1.00  0.00     0.016 A 
ENDROOT
BRANCH   1   7
HETATM    7  C1  UNL     1      22.652   2.905  52.261  1.00  0.00     0.161 C 
HETATM    8  O1  UNL     1      21.591   2.263  52.055  1.00  0.00    -0.292 OA
BRANCH   7   9
HETATM    9  C2  UNL     1      23.135   4.288  52.391  1.00  0.00     0.103 C 
BRANCH   9  10
HETATM   10  C3  UNL     1      23.018   5.173  51.209  1.00  0.00     0.124 C 
BRANCH  10  11
HETATM   11  N1  UNL     1      24.156   5.476  50.448  1.00  0.00    -0.412 N 
HETATM   12  C4  UNL     1      24.523   4.697  49.347  1.00  0.00     0.117 C 
HETATM   13  C5  UNL     1      26.069   4.711  49.311  1.00  0.00     0.019 C 
HETATM   14  C6  UNL     1      26.429   6.107  48.916  1.00  0.00     0.003 C 
HETATM   15  C7  UNL     1      25.979   7.075  49.977  1.00  0.00     0.019 C 
HETATM   16  C8  UNL     1      24.594   6.832  50.475  1.00  0.00     0.117 C 
ENDBRANCH  10  11
ENDBRANCH   9  10
ENDBRANCH   7   9
ENDBRANCH   1   7
BRANCH   4  17
HETATM   17  C13 UNL     1      27.155  -0.647  52.887  1.00  0.00    -0.026 A 
HETATM   18  C14 UNL     1      28.316  -0.009  53.324  1.00  0.00     0.012 A 
HETATM   19  C15 UNL     1      29.479  -0.702  53.557  1.00  0.00     0.001 A 
HETATM   20  C16 UNL     1      29.429  -2.078  53.333  1.00  0.00     0.000 A 
HETATM   21  C17 UNL     1      28.278  -2.721  52.898  1.00  0.00     0.001 A 
HETATM   22  C18 UNL     1      27.123  -2.004  52.669  1.00  0.00     0.012 A 
ENDBRANCH   4  17
TORSDOF 5
ENDMDL
MODEL 4
REMARK VINA RESULT:      -7.6      2.702      7.296
REMARK  5 active torsions:
REMARK  status: ('A' for Active; 'I' for Inactive)
REMARK    1  A    between atoms: C1_2  and  C2_3 
REMARK    2  A    between atoms: C1_2  and  C9_11 
REMARK    3  A    between atoms: C2_3  and  C3_4 
REMARK    4  A    between atoms: C3_4  and  N1_5 
REMARK    5  A    between atoms: C12_14  and  C13_15 
ROOT
HETATM    1  C9  UNL     1      23.606  -0.745  54.178  1.00  0.00     0.010 A 
HETATM    2  C10 UNL     1      22.566  -1.180  54.995  1.00  0.00     0.016 A 
HETATM    3  C11 UNL     1      21.213  -1.177  54.641  1.00  0.00     0.013 A 
HETATM    4  C12 UNL     1      20.885  -0.708  53.389  1.00  0.00    -0.026 A 
HETATM    5  C19 UNL     1      21.852  -0.259  52.520  1.00  0.00     0.013 A 
HETATM    6  C20 UNL     1      23.154  -0.295  52.944  1.00  0.00     0.016 A 
ENDROOT
BRANCH   1   7
HETATM    7  C1  UNL     1      25.008  -0.786  54.654  1.00  0.00     0.161 C 
HETATM    8  O1  UNL     1      25.047  -1.178  55.847  1.00  0.00    -0.292 OA
BRANCH   7   9
HETATM    9  C2  UNL     1      25.903  -0.353  53.570  1.00  0.00     0.103 C 
BRANCH   9  10
HETATM   10  C3  UNL     1      26.388   1.047  53.596  1.00  0.00     0.124 C 
BRANCH  10  11
HETATM   11  N1  UNL     1      25.937   1.959  52.631  1.00  0.00    -0.412 N 
HETATM   12  C4  UNL     1      24.886   2.841  52.900  1.00  0.00     0.117 C 
HETATM   13  C5  UNL     1      24.125   3.018  51.565  1.00  0.00     0.019 C 
HETATM   14  C6  UNL     1      25.056   3.801  50.696  1.00  0.00     0.003 C 
HETATM   15  C7  UNL     1      26.301   3.000  50.421  1.00  0.00     0.019 C 
HETATM   16  C8  UNL     1      26.875   2.335  51.626  1.00  0.00     0.117 C 
ENDBRANCH  10  11
ENDBRANCH   9  10
ENDBRANCH   7   9
ENDBRANCH   1   7
BRANCH   4  17
HETATM   17  C13 UNL     1      19.510  -0.648  52.910  1.00  0.00    -0.026 A 
HETATM   18  C14 UNL     1      19.370   0.178  51.795  1.00  0.00     0.012 A 
HETATM   19  C15 UNL     1      18.152   0.373  51.188  1.00  0.00     0.001 A 
HETATM   20  C16 UNL     1      17.070  -0.302  51.751  1.00  0.00     0.000 A 
HETATM   21  C17 UNL     1      17.201  -1.126  52.861  1.00  0.00     0.001 A 
HETATM   22  C18 UNL     1      18.432  -1.306  53.454  1.00  0.00     0.012 A 
ENDBRANCH   4  17
TORSDOF 5
ENDMDL
MODEL 5
REMARK VINA RESULT:      -7.6      3.900      6.113
REMARK  5 active torsions:
REMARK  status: ('A' for Active; 'I' for Inactive)
REMARK    1  A    between atoms: C1_2  and  C2_3 
REMARK    2  A    between atoms: C1_2  and  C9_11 
REMARK    3  A    between atoms: C2_3  and  C3_4 
REMARK    4  A    between atoms: C3_4  and  N1_5 
REMARK    5  A    between atoms: C12_14  and  C13_15 
ROOT
HETATM    1  C9  UNL     1      24.517   3.645  50.033  1.00  0.00     0.010 A 
HETATM    2  C10 UNL     1      25.819   3.169  49.903  1.00  0.00     0.016 A 
HETATM    3  C11 UNL     1      26.883   3.887  49.347  1.00  0.00     0.013 A 
HETATM    4  C12 UNL     1      26.623   5.160  48.894  1.00  0.00    -0.026 A 
HETATM    5  C19 UNL     1      25.363   5.705  48.984  1.00  0.00     0.013 A 
HETATM    6  C20 UNL     1      24.376   4.936  49.541  1.00  0.00     0.016 A 
ENDROOT
BRANCH   1   7
HETATM    7  C1  UNL     1      23.460   2.798  50.633  1.00  0.00     0.161 C 
HETATM    8  O1  UNL     1      22.931   2.077  49.750  1.00  0.00    -0.292 OA
BRANCH   7   9
HETATM    9  C2  UNL     1      23.373   3.077  52.075  1.00  0.00     0.103 C 
BRANCH   9  10
HETATM   10  C3  UNL     1      23.794   2.009  53.011  1.00  0.00     0.124 C 
BRANCH  10  11
HETATM   11  N1  UNL     1      25.122   1.558  53.002  1.00  0.00    -0.412 N 
HETATM   12  C4  UNL     1      26.086   2.120  53.843  1.00  0.00     0.117 C 
HETATM   13  C5  UNL     1      27.417   2.078  53.056  1.00  0.00     0.019 C 
HETATM   14  C6  UNL     1      27.777   0.628  52.992  1.00  0.00     0.003 C 
HETATM   15  C7  UNL     1      26.742  -0.125  52.200  1.00  0.00     0.019 C 
HETATM   16  C8  UNL     1      25.334   0.223  52.550  1.00  0.00     0.117 C 
ENDBRANCH  10  11
ENDBRANCH   9  10
ENDBRANCH   7   9
ENDBRANCH   1   7
BRANCH   4  17
HETATM   17  C13 UNL     1      27.647   6.001  48.289  1.00  0.00    -0.026 A 
HETATM   18  C14 UNL     1      28.914   5.418  48.340  1.00  0.00     0.012 A 
HETATM   19  C15 UNL     1      30.021   6.047  47.824  1.00  0.00     0.001 A 
HETATM   20  C16 UNL     1      29.804   7.298  47.248  1.00  0.00     0.000 A 
HETATM   21  C17 UNL     1      28.547   7.886  47.193  1.00  0.00     0.001 A 
HETATM   22  C18 UNL     1      27.450   7.236  47.718  1.00  0.00     0.012 A 
ENDBRANCH   4  17
TORSDOF 5
ENDMDL
MODEL 6
REMARK VINA RESULT:      -7.6      2.383      3.782
REMARK  5 active torsions:
REMARK  status: ('A' for Active; 'I' for Inactive)
REMARK    1  A    between atoms: C1_2  and  C2_3 
REMARK    2  A    between atoms: C1_2  and  C9_11 
REMARK    3  A    between atoms: C2_3  and  C3_4 
REMARK    4  A    between atoms: C3_4  and  N1_5 
REMARK    5  A    between atoms: C12_14  and  C13_15 
ROOT
HETATM    1  C9  UNL     1      22.757   0.758  52.827  1.00  0.00     0.010 A 
HETATM    2  C10 UNL     1      23.185  -0.201  53.740  1.00  0.00     0.016 A 
HETATM    3  C11 UNL     1      24.519  -0.564  53.956  1.00  0.00     0.013 A 
HETATM    4  C12 UNL     1      25.480   0.076  53.207  1.00  0.00    -0.026 A 
HETATM    5  C19 UNL     1      25.141   1.036  52.281  1.00  0.00     0.013 A 
HETATM    6  C20 UNL     1      23.813   1.334  52.131  1.00  0.00     0.016 A 
ENDROOT
BRANCH   1   7
HETATM    7  C1  UNL     1      21.315   1.064  52.673  1.00  0.00     0.161 C 
HETATM    8  O1  UNL     1      20.654  -0.001  52.596  1.00  0.00    -0.292 OA
BRANCH   7   9
HETATM    9  C2  UNL     1      21.126   2.523  52.662  1.00  0.00     0.103 C 
BRANCH   9  10
HETATM   10  C3  UNL     1      20.645   3.146  51.406  1.00  0.00     0.124 C 
BRANCH  10  11
HETATM   11  N1  UNL     1      21.228   2.786  50.182  1.00  0.00    -0.412 N 
HETATM   12  C4  UNL     1      20.548   1.982  49.263  1.00  0.00     0.117 C 
HETATM   13  C5  UNL     1      21.629   1.124  48.564  1.00  0.00     0.019 C 
HETATM   14  C6  UNL     1      22.397   2.091  47.720  1.00  0.00     0.003 C 
HETATM   15  C7  UNL     1      23.093   3.099  48.594  1.00  0.00     0.019 C 
HETATM   16  C8  UNL     1      22.237   3.657  49.680  1.00  0.00     0.117 C 
ENDBRANCH  10  11
ENDBRANCH   9  10
ENDBRANCH   7   9
ENDBRANCH   1   7
BRANCH   4  17
HETATM   17  C13 UNL     1      26.900  -0.223  53.335  1.00  0.00    -0.026 A 
HETATM   18  C14 UNL     1      27.619   0.835  53.894  1.00  0.00     0.012 A 
HETATM   19  C15 UNL     1      28.975   0.758  54.102  1.00  0.00     0.001 A 
HETATM   20  C16 UNL     1      29.588  -0.435  53.722  1.00  0.00     0.000 A 
HETATM   21  C17 UNL     1      28.881  -1.492  53.165  1.00  0.00     0.001 A 
HETATM   22  C18 UNL     1      27.521  -1.393  52.965  1.00  0.00     0.012 A 
ENDBRANCH   4  17
TORSDOF 5
ENDMDL
MODEL 7
REMARK VINA RESULT:      -7.5      1.316      1.867
REMARK  5 active torsions:
REMARK  status: ('A' for Active; 'I' for Inactive)
REMARK    1  A    between atoms: C1_2  and  C2_3 
REMARK    2  A    between atoms: C1_2  and  C9_11 
REMARK    3  A    between atoms: C2_3  and  C3_4 
REMARK    4  A    between atoms: C3_4  and  N1_5 
REMARK    5  A    between atoms: C12_14  and  C13_15 
ROOT
HETATM    1  C9  UNL     1      24.569   3.150  51.876  1.00  0.00     0.010 A 
HETATM    2  C10 UNL     1      24.407   2.343  52.999  1.00  0.00     0.016 A 
HETATM    3  C11 UNL     1      25.251   1.287  53.356  1.00  0.00     0.013 A 
HETATM    4  C12 UNL     1      26.324   1.026  52.534  1.00  0.00    -0.026 A 
HETATM    5  C19 UNL     1      26.556   1.776  51.404  1.00  0.00     0.013 A 
HETATM    6  C20 UNL     1      25.682   2.793  51.126  1.00  0.00     0.016 A 
ENDROOT
BRANCH   1   7
HETATM    7  C1  UNL     1      23.611   4.243  51.586  1.00  0.00     0.161 C 
HETATM    8  O1  UNL     1      23.365   4.891  52.635  1.00  0.00    -0.292 OA
BRANCH   7   9
HETATM    9  C2  UNL     1      23.257   4.214  50.159  1.00  0.00     0.103 C 
BRANCH   9  10
HETATM   10  C3  UNL     1      22.106   3.374  49.751  1.00  0.00     0.124 C 
BRANCH  10  11
HETATM   11  N1  UNL     1      21.542   2.473  50.665  1.00  0.00    -0.412 N 
HETATM   12  C4  UNL     1      20.386   2.793  51.382  1.00  0.00     0.117 C 
HETATM   13  C5  UNL     1      20.535   2.108  52.761  1.00  0.00     0.019 C 
HETATM   14  C6  UNL     1      20.406   0.646  52.477  1.00  0.00     0.003 C 
HETATM   15  C7  UNL     1      21.543   0.188  51.604  1.00  0.00     0.019 C 
HETATM   16  C8  UNL     1      21.829   1.093  50.453  1.00  0.00     0.117 C 
ENDBRANCH  10  11
ENDBRANCH   9  10
ENDBRANCH   7   9
ENDBRANCH   1   7
BRANCH   4  17
HETATM   17  C13 UNL     1      27.268  -0.052  52.797  1.00  0.00    -0.026 A 
HETATM   18  C14 UNL     1      26.762  -1.302  52.441  1.00  0.00     0.012 A 
HETATM   19  C15 UNL     1      27.493  -2.454  52.608  1.00  0.00     0.001 A 
HETATM   20  C16 UNL     1      28.767  -2.298  53.153  1.00  0.00     0.000 A 
HETATM   21  C17 UNL     1      29.279  -1.058  53.511  1.00  0.00     0.001 A 
HETATM   22  C18 UNL     1      28.526   0.084  53.335  1.00  0.00     0.012 A 
ENDBRANCH   4  17
TORSDOF 5
ENDMDL
MODEL 8
REMARK VINA RESULT:      -7.4      2.032      2.555
REMARK  5 active torsions:
REMARK  status: ('A' for Active; 'I' for Inactive)
REMARK    1  A    between atoms: C1_2  and  C2_3 
REMARK    2  A    between atoms: C1_2  and  C9_11 
REMARK    3  A    between atoms: C2_3  and  C3_4 
REMARK    4  A    between atoms: C3_4  and  N1_5 
REMARK    5  A    between atoms: C12_14  and  C13_15 
ROOT
HETATM    1  C9  UNL     1      23.577   1.293  52.016  1.00  0.00     0.010 A 
HETATM    2  C10 UNL     1      24.725   1.840  51.450  1.00  0.00     0.016 A 
HETATM    3  C11 UNL     1      26.031   1.410  51.708  1.00  0.00     0.013 A 
HETATM    4  C12 UNL     1      26.192   0.365  52.590  1.00  0.00    -0.026 A 
HETATM    5  C19 UNL     1      25.110  -0.231  53.194  1.00  0.00     0.013 A 
HETATM    6  C20 UNL     1      23.865   0.250  52.887  1.00  0.00     0.016 A 
ENDROOT
BRANCH   1   7
HETATM    7  C1  UNL     1      22.239   1.829  51.677  1.00  0.00     0.161 C 
HETATM    8  O1  UNL     1      22.105   2.986  52.148  1.00  0.00    -0.292 OA
BRANCH   7   9
HETATM    9  C2  UNL     1      21.497   0.828  50.895  1.00  0.00     0.103 C 
BRANCH   9  10
HETATM   10  C3  UNL     1      20.021   0.951  50.840  1.00  0.00     0.124 C 
BRANCH  10  11
HETATM   11  N1  UNL     1      19.224   0.173  51.691  1.00  0.00    -0.412 N 
HETATM   12  C4  UNL     1      19.567  -0.021  53.032  1.00  0.00     0.117 C 
HETATM   13  C5  UNL     1      19.097  -1.451  53.390  1.00  0.00     0.019 C 
HETATM   14  C6  UNL     1      17.603  -1.371  53.395  1.00  0.00     0.003 C 
HETATM   15  C7  UNL     1      17.101  -1.047  52.014  1.00  0.00     0.019 C 
HETATM   16  C8  UNL     1      17.850   0.050  51.335  1.00  0.00     0.117 C 
ENDBRANCH  10  11
ENDBRANCH   9  10
ENDBRANCH   7   9
ENDBRANCH   1   7
BRANCH   4  17
HETATM   17  C13 UNL     1      27.502  -0.165  52.944  1.00  0.00    -0.026 A 
HETATM   18  C14 UNL     1      27.561  -1.555  52.839  1.00  0.00     0.012 A 
HETATM   19  C15 UNL     1      28.707  -2.255  53.129  1.00  0.00     0.001 A 
HETATM   20  C16 UNL     1      29.805  -1.495  53.533  1.00  0.00     0.000 A 
HETATM   21  C17 UNL     1      29.755  -0.112  53.641  1.00  0.00     0.001 A 
HETATM   22  C18 UNL     1      28.593   0.569  53.346  1.00  0.00     0.012 A 
ENDBRANCH   4  17
TORSDOF 5
ENDMDL
MODEL 9
REMARK VINA RESULT:      -7.4      3.851      5.602
REMARK  5 active torsions:
REMARK  status: ('A' for Active; 'I' for Inactive)
REMARK    1  A    between atoms: C1_2  and  C2_3 
REMARK    2  A    between atoms: C1_2  and  C9_11 
REMARK    3  A    between atoms: C2_3  and  C3_4 
REMARK    4  A    between atoms: C3_4  and  N1_5 
REMARK    5  A    between atoms: C12_14  and  C13_15 
ROOT
HETATM    1  C9  UNL     1      24.487   3.632  49.995  1.00  0.00     0.010 A 
HETATM    2  C10 UNL     1      25.783   3.130  49.915  1.00  0.00     0.016 A 
HETATM    3  C11 UNL     1      26.878   3.820  49.384  1.00  0.00     0.013 A 
HETATM    4  C12 UNL     1      26.657   5.092  48.906  1.00  0.00    -0.026 A 
HETATM    5  C19 UNL     1      25.405   5.661  48.947  1.00  0.00     0.013 A 
HETATM    6  C20 UNL     1      24.386   4.919  49.483  1.00  0.00     0.016 A 
ENDROOT
BRANCH   1   7
HETATM    7  C1  UNL     1      23.395   2.813  50.572  1.00  0.00     0.161 C 
HETATM    8  O1  UNL     1      22.599   2.457  49.668  1.00  0.00    -0.292 OA
BRANCH   7   9
HETATM    9  C2  UNL     1      23.600   2.683  52.023  1.00  0.00     0.103 C 
BRANCH   9  10
HETATM   10  C3  UNL     1      24.011   1.358  52.545  1.00  0.00     0.124 C 
BRANCH  10  11
HETATM   11  N1  UNL     1      23.083   0.558  53.226  1.00  0.00    -0.412 N 
HETATM   12  C4  UNL     1      21.733   0.539  52.861  1.00  0.00     0.117 C 
HETATM   13  C5  UNL     1      20.939   0.336  54.173  1.00  0.00     0.019 C 
HETATM   14  C6  UNL     1      21.234  -1.070  54.585  1.00  0.00     0.003 C 
HETATM   15  C7  UNL     1      22.699  -1.219  54.898  1.00  0.00     0.019 C 
HETATM   16  C8  UNL     1      23.604  -0.588  53.894  1.00  0.00     0.117 C 
ENDBRANCH  10  11
ENDBRANCH   9  10
ENDBRANCH   7   9
ENDBRANCH   1   7
BRANCH   4  17
HETATM   17  C13 UNL     1      27.716   5.904  48.323  1.00  0.00    -0.026 A 
HETATM   18  C14 UNL     1      27.244   7.121  47.830  1.00  0.00     0.012 A 
HETATM   19  C15 UNL     1      28.082   8.036  47.239  1.00  0.00     0.001 A 
HETATM   20  C16 UNL     1      29.427   7.677  47.162  1.00  0.00     0.000 A 
HETATM   21  C17 UNL     1      29.905   6.468  47.649  1.00  0.00     0.001 A 
HETATM   22  C18 UNL     1      29.046   5.565  48.238  1.00  0.00     0.012 A 
ENDBRANCH   4  17
TORSDOF 5
ENDMDL
