MODEL 1
REMARK VINA RESULT:     -10.1      0.000      0.000
REMARK  5 active torsions:
REMARK  status: ('A' for Active; 'I' for Inactive)
REMARK    1  A    between atoms: C5_5  and  C6_6 
REMARK    2  A    between atoms: C8_8  and  C9_9 
REMARK    3  A    between atoms: N1_16  and  C15_17 
REMARK    4  A    between atoms: C15_17  and  S1_18 
REMARK    5  A    between atoms: C16_20  and  O1_21 
ROOT
HETATM    1  C6  UNL     1      25.339   3.094  50.839  1.00  0.00     0.106 C 
HETATM    2  C7  UNL     1      26.297   1.925  50.735  1.00  0.00     0.051 C 
HETATM    3  C8  UNL     1      25.895   1.105  51.931  1.00  0.00     0.110 C 
HETATM    4  N1  UNL     1      25.307   2.025  52.834  1.00  0.00    -0.233 NA
HETATM    5  N3  UNL     1      25.392   3.306  52.280  1.00  0.00    -0.249 NA
HETATM    6  H18 UNL     1      24.695   3.968  52.638  1.00  0.00     0.141 HD
ENDROOT
BRANCH   4   7
HETATM    7  C15 UNL     1      23.923   1.718  53.001  1.00  0.00     0.188 C 
BRANCH   7   8
HETATM    8  S1  UNL     1      23.835  -0.121  53.464  1.00  0.00    -0.101 SA
HETATM    9  N2  UNL     1      21.504   0.308  53.370  1.00  0.00    -0.152 NA
HETATM   10  C16 UNL     1      21.681  -1.680  53.872  1.00  0.00     0.256 A 
HETATM   11  C17 UNL     1      22.518  -1.110  53.722  1.00  0.00     0.043 A 
HETATM   12  C18 UNL     1      22.990  -0.768  53.634  1.00  0.00     0.043 A 
BRANCH  10  13
HETATM   13  O1  UNL     1      20.756  -1.247  55.002  1.00  0.00    -0.374 OA
HETATM   14  H17 UNL     1      19.883  -1.579  54.671  1.00  0.00     0.212 HD
ENDBRANCH  10  13
ENDBRANCH   7   8
ENDBRANCH   4   7
BRANCH   3  15
HETATM   15  C9  UNL     1      27.045   0.362  52.510  1.00  0.00    -0.039 A 
HETATM   16  C10 UNL     1      28.023   1.183  53.051  1.00  0.00     0.012 A 
HETATM   17  C11 UNL     1      29.158   0.609  53.626  1.00  0.00     0.043 A 
HETATM   18  C12 UNL     1      29.298  -0.765  53.652  1.00  0.00     0.116 A 
HETATM   19  F1  UNL     1      30.412  -1.271  54.218  1.00  0.00    -0.206 F 
HETATM   20  C13 UNL     1      28.293  -1.537  53.098  1.00  0.00     0.043 A 
HETATM   21  C14 UNL     1      27.155  -1.015  52.519  1.00  0.00     0.012 A 
ENDBRANCH   3  15
BRANCH   1  22
HETATM   22  C5  UNL     1      25.823   4.263  50.066  1.00  0.00    -0.039 A 
HETATM   23  C4  UNL     1      26.985   4.036  49.321  1.00  0.00     0.009 A 
HETATM   24  C3  UNL     1      27.571   5.035  48.543  1.00  0.00     0.007 A 
HETATM   25  C2  UNL     1      27.014   6.295  48.486  1.00  0.00    -0.062 A 
HETATM   26  C1  UNL     1      27.649   7.338  47.659  1.00  0.00     0.048 C 
HETATM   27  C20 UNL     1      25.879   6.487  49.227  1.00  0.00     0.007 A 
HETATM   28  C19 UNL     1      25.276   5.507  50.009  1.00  0.00     0.009 A 
ENDBRANCH   1  22
TORSDOF 5
ENDMDL
MODEL 2
REMARK VINA RESULT:      -9.6      3.495      5.800
REMARK  5 active torsions:
REMARK  status: ('A' for Active; 'I' for Inactive)
REMARK    1  A    between atoms: C5_5  and  C6_6 
REMARK    2  A    between atoms: C8_8  and  C9_9 
REMARK    3  A    between atoms: N1_16  and  C15_17 
REMARK    4  A    between atoms: C15_17  and  S1_18 
REMARK    5  A    between atoms: C16_20  and  O1_21 
ROOT
HETATM    1  C6  UNL     1      25.226   1.844  52.564  1.00  0.00     0.106 C 
HETATM    2  C7  UNL     1      23.795   1.893  53.060  1.00  0.00     0.051 C 
HETATM    3  C8  UNL     1      23.663   0.547  53.718  1.00  0.00     0.110 C 
HETATM    4  N1  UNL     1      24.626  -0.276  53.083  1.00  0.00    -0.233 NA
HETATM    5  N3  UNL     1      25.254   0.470  52.080  1.00  0.00    -0.249 NA
HETATM    6  H18 UNL     1      26.186   0.128  51.822  1.00  0.00     0.141 HD
ENDROOT
BRANCH   4   7
HETATM    7  C15 UNL     1      25.628  -0.661  54.025  1.00  0.00     0.188 C 
BRANCH   7   8
HETATM    8  S1  UNL     1      27.116  -1.261  53.009  1.00  0.00    -0.101 SA
HETATM    9  N2  UNL     1      28.316  -0.217  54.768  1.00  0.00    -0.152 NA
HETATM   10  C16 UNL     1      29.745  -0.968  53.491  1.00  0.00     0.256 A 
HETATM   11  C17 UNL     1      28.751  -1.094  53.283  1.00  0.00     0.043 A 
HETATM   12  C18 UNL     1      28.174  -1.158  53.177  1.00  0.00     0.043 A 
BRANCH  10  13
HETATM   13  O1  UNL     1      30.247   0.468  53.567  1.00  0.00    -0.374 OA
HETATM   14  H17 UNL     1      30.569   0.508  54.503  1.00  0.00     0.212 HD
ENDBRANCH  10  13
ENDBRANCH   7   8
ENDBRANCH   4   7
BRANCH   3  15
HETATM   15  C9  UNL     1      22.278   0.014  53.628  1.00  0.00    -0.039 A 
HETATM   16  C10 UNL     1      21.462   0.729  52.764  1.00  0.00     0.012 A 
HETATM   17  C11 UNL     1      20.136   0.333  52.589  1.00  0.00     0.043 A 
HETATM   18  C12 UNL     1      19.647  -0.762  53.275  1.00  0.00     0.116 A 
HETATM   19  F1  UNL     1      18.359  -1.106  53.073  1.00  0.00    -0.206 F 
HETATM   20  C13 UNL     1      20.504  -1.440  54.124  1.00  0.00     0.043 A 
HETATM   21  C14 UNL     1      21.821  -1.085  54.329  1.00  0.00     0.012 A 
ENDBRANCH   3  15
BRANCH   1  22
HETATM   22  C5  UNL     1      25.462   2.837  51.489  1.00  0.00    -0.039 A 
HETATM   23  C4  UNL     1      24.488   3.837  51.386  1.00  0.00     0.009 A 
HETATM   24  C3  UNL     1      24.562   4.845  50.424  1.00  0.00     0.007 A 
HETATM   25  C2  UNL     1      25.613   4.884  49.531  1.00  0.00    -0.062 A 
HETATM   26  C1  UNL     1      25.673   5.957  48.521  1.00  0.00     0.048 C 
HETATM   27  C20 UNL     1      26.549   3.893  49.656  1.00  0.00     0.007 A 
HETATM   28  C19 UNL     1      26.497   2.879  50.608  1.00  0.00     0.009 A 
ENDBRANCH   1  22
TORSDOF 5
ENDMDL
MODEL 3
REMARK VINA RESULT:      -9.4      3.008      3.830
REMARK  5 active torsions:
REMARK  status: ('A' for Active; 'I' for Inactive)
REMARK    1  A    between atoms: C5_5  and  C6_6 
REMARK    2  A    between atoms: C8_8  and  C9_9 
REMARK    3  A    between atoms: N1_16  and  C15_17 
REMARK    4  A    between atoms: C15_17  and  S1_18 
REMARK    5  A    between atoms: C16_20  and  O1_21 
ROOT
HETATM    1  C6  UNL     1      25.619   4.067  49.694  1.00  0.00     0.106 C 
HETATM    2  C7  UNL     1      26.457   2.835  49.971  1.00  0.00     0.051 C 
HETATM    3  C8  UNL     1      25.645   2.160  51.043  1.00  0.00     0.110 C 
HETATM    4  N1  UNL     1      24.898   3.197  51.655  1.00  0.00    -0.233 NA
HETATM    5  N3  UNL     1      25.258   4.411  51.063  1.00  0.00    -0.249 NA
HETATM    6  H18 UNL     1      24.547   5.146  51.143  1.00  0.00     0.141 HD
ENDROOT
BRANCH   4   7
HETATM    7  C15 UNL     1      23.506   2.995  51.413  1.00  0.00     0.188 C 
BRANCH   7   8
HETATM    8  S1  UNL     1      22.612   4.510  52.129  1.00  0.00    -0.101 SA
HETATM    9  N2  UNL     1      22.325   5.013  49.829  1.00  0.00    -0.152 NA
HETATM   10  C16 UNL     1      21.419   6.553  50.851  1.00  0.00     0.256 A 
HETATM   11  C17 UNL     1      21.866   5.788  51.363  1.00  0.00     0.043 A 
HETATM   12  C18 UNL     1      22.128   5.340  51.643  1.00  0.00     0.043 A 
BRANCH  10  13
HETATM   13  O1  UNL     1      22.321   7.386  49.949  1.00  0.00    -0.374 OA
HETATM   14  H17 UNL     1      21.653   7.824  49.364  1.00  0.00     0.212 HD
ENDBRANCH  10  13
ENDBRANCH   7   8
ENDBRANCH   4   7
BRANCH   3  15
HETATM   15  C9  UNL     1      26.499   1.404  51.997  1.00  0.00    -0.039 A 
HETATM   16  C10 UNL     1      27.497   2.172  52.580  1.00  0.00     0.012 A 
HETATM   17  C11 UNL     1      28.369   1.581  53.495  1.00  0.00     0.043 A 
HETATM   18  C12 UNL     1      28.234   0.243  53.811  1.00  0.00     0.116 A 
HETATM   19  F1  UNL     1      29.102  -0.282  54.700  1.00  0.00    -0.206 F 
HETATM   20  C13 UNL     1      27.222  -0.476  53.201  1.00  0.00     0.043 A 
HETATM   21  C14 UNL     1      26.337   0.064  52.291  1.00  0.00     0.012 A 
ENDBRANCH   3  15
BRANCH   1  22
HETATM   22  C5  UNL     1      26.414   5.125  49.025  1.00  0.00    -0.039 A 
HETATM   23  C4  UNL     1      27.744   4.783  48.759  1.00  0.00     0.009 A 
HETATM   24  C3  UNL     1      28.625   5.668  48.138  1.00  0.00     0.007 A 
HETATM   25  C2  UNL     1      28.204   6.927  47.763  1.00  0.00    -0.062 A 
HETATM   26  C1  UNL     1      29.150   7.849  47.108  1.00  0.00     0.048 C 
HETATM   27  C20 UNL     1      26.897   7.233  48.036  1.00  0.00     0.007 A 
HETATM   28  C19 UNL     1      26.001   6.366  48.654  1.00  0.00     0.009 A 
ENDBRANCH   1  22
TORSDOF 5
ENDMDL
MODEL 4
REMARK VINA RESULT:      -9.4      1.529      2.083
REMARK  5 active torsions:
REMARK  status: ('A' for Active; 'I' for Inactive)
REMARK    1  A    between atoms: C5_5  and  C6_6 
REMARK    2  A    between atoms: C8_8  and  C9_9 
REMARK    3  A    between atoms: N1_16  and  C15_17 
REMARK    4  A    between atoms: C15_17  and  S1_18 
REMARK    5  A    between atoms: C16_20  and  O1_21 
ROOT
HETATM    1  C6  UNL     1      25.869   4.159  49.585  1.00  0.00     0.106 C 
HETATM    2  C7  UNL     1      26.645   2.885  49.851  1.00  0.00     0.051 C 
HETATM    3  C8  UNL     1      25.818   2.255  50.938  1.00  0.00     0.110 C 
HETATM    4  N1  UNL     1      25.137   3.331  51.561  1.00  0.00    -0.233 NA
HETATM    5  N3  UNL     1      25.550   4.524  50.960  1.00  0.00    -0.249 NA
HETATM    6  H18 UNL     1      24.881   5.295  51.050  1.00  0.00     0.141 HD
ENDROOT
BRANCH   4   7
HETATM    7  C15 UNL     1      23.732   3.202  51.343  1.00  0.00     0.188 C 
BRANCH   7   8
HETATM    8  S1  UNL     1      23.091   2.006  52.672  1.00  0.00    -0.101 SA
HETATM    9  N2  UNL     1      22.082   0.978  50.788  1.00  0.00    -0.152 NA
HETATM   10  C16 UNL     1      21.522  -0.162  52.407  1.00  0.00     0.256 A 
HETATM   11  C17 UNL     1      22.120   0.659  52.537  1.00  0.00     0.043 A 
HETATM   12  C18 UNL     1      22.464   1.134  52.595  1.00  0.00     0.043 A 
BRANCH  10  13
HETATM   13  O1  UNL     1      20.138   0.091  51.824  1.00  0.00    -0.374 OA
HETATM   14  H17 UNL     1      19.573   0.017  52.634  1.00  0.00     0.212 HD
ENDBRANCH  10  13
ENDBRANCH   7   8
ENDBRANCH   4   7
BRANCH   3  15
HETATM   15  C9  UNL     1      26.646   1.456  51.879  1.00  0.00    -0.039 A 
HETATM   16  C10 UNL     1      27.571   2.212  52.585  1.00  0.00     0.012 A 
HETATM   17  C11 UNL     1      28.413   1.581  53.502  1.00  0.00     0.043 A 
HETATM   18  C12 UNL     1      28.321   0.217  53.698  1.00  0.00     0.116 A 
HETATM   19  F1  UNL     1      29.157  -0.346  54.594  1.00  0.00    -0.206 F 
HETATM   20  C13 UNL     1      27.382  -0.489  52.968  1.00  0.00     0.043 A 
HETATM   21  C14 UNL     1      26.529   0.091  52.051  1.00  0.00     0.012 A 
ENDBRANCH   3  15
BRANCH   1  22
HETATM   22  C5  UNL     1      26.706   5.173  48.900  1.00  0.00    -0.039 A 
HETATM   23  C4  UNL     1      26.028   6.334  48.515  1.00  0.00     0.009 A 
HETATM   24  C3  UNL     1      26.671   7.382  47.856  1.00  0.00     0.007 A 
HETATM   25  C2  UNL     1      28.016   7.302  47.560  1.00  0.00    -0.062 A 
HETATM   26  C1  UNL     1      28.678   8.420  46.863  1.00  0.00     0.048 C 
HETATM   27  C20 UNL     1      28.652   6.153  47.949  1.00  0.00     0.007 A 
HETATM   28  C19 UNL     1      28.032   5.096  48.607  1.00  0.00     0.009 A 
ENDBRANCH   1  22
TORSDOF 5
ENDMDL
MODEL 5
REMARK VINA RESULT:      -9.3      3.723      6.281
REMARK  5 active torsions:
REMARK  status: ('A' for Active; 'I' for Inactive)
REMARK    1  A    between atoms: C5_5  and  C6_6 
REMARK    2  A    between atoms: C8_8  and  C9_9 
REMARK    3  A    between atoms: N1_16  and  C15_17 
REMARK    4  A    between atoms: C15_17  and  S1_18 
REMARK    5  A    between atoms: C16_20  and  O1_21 
ROOT
HETATM    1  C6  UNL     1      24.589   0.928  53.345  1.00  0.00     0.106 C 
HETATM    2  C7  UNL     1      24.461   1.838  52.140  1.00  0.00     0.051 C 
HETATM    3  C8  UNL     1      22.981   1.776  51.877  1.00  0.00     0.110 C 
HETATM    4  N1  UNL     1      22.555   0.542  52.429  1.00  0.00    -0.233 NA
HETATM    5  N3  UNL     1      23.675  -0.129  52.931  1.00  0.00    -0.249 NA
HETATM    6  H18 UNL     1      23.461  -0.816  53.662  1.00  0.00     0.141 HD
ENDROOT
BRANCH   4   7
HETATM    7  C15 UNL     1      21.671   0.784  53.524  1.00  0.00     0.188 C 
BRANCH   7   8
HETATM    8  S1  UNL     1      20.956  -0.904  54.017  1.00  0.00    -0.101 SA
HETATM    9  N2  UNL     1      19.084  -0.093  52.808  1.00  0.00    -0.152 NA
HETATM   10  C16 UNL     1      18.546  -1.966  53.470  1.00  0.00     0.256 A 
HETATM   11  C17 UNL     1      19.470  -1.586  53.693  1.00  0.00     0.043 A 
HETATM   12  C18 UNL     1      19.998  -1.354  53.814  1.00  0.00     0.043 A 
BRANCH  10  13
HETATM   13  O1  UNL     1      17.346  -1.191  53.999  1.00  0.00    -0.374 OA
HETATM   14  H17 UNL     1      16.926  -0.890  53.154  1.00  0.00     0.212 HD
ENDBRANCH  10  13
ENDBRANCH   7   8
ENDBRANCH   4   7
BRANCH   3  15
HETATM   15  C9  UNL     1      22.665   1.918  50.432  1.00  0.00    -0.039 A 
HETATM   16  C10 UNL     1      23.375   2.930  49.803  1.00  0.00     0.012 A 
HETATM   17  C11 UNL     1      23.169   3.169  48.444  1.00  0.00     0.043 A 
HETATM   18  C12 UNL     1      22.264   2.400  47.738  1.00  0.00     0.116 A 
HETATM   19  F1  UNL     1      22.100   2.669  46.427  1.00  0.00    -0.206 F 
HETATM   20  C13 UNL     1      21.583   1.404  48.413  1.00  0.00     0.043 A 
HETATM   21  C14 UNL     1      21.752   1.131  49.755  1.00  0.00     0.012 A 
ENDBRANCH   3  15
BRANCH   1  22
HETATM   22  C5  UNL     1      25.982   0.448  53.518  1.00  0.00    -0.039 A 
HETATM   23  C4  UNL     1      26.321  -0.666  52.743  1.00  0.00     0.009 A 
HETATM   24  C3  UNL     1      27.591  -1.242  52.793  1.00  0.00     0.007 A 
HETATM   25  C2  UNL     1      28.563  -0.722  53.621  1.00  0.00    -0.062 A 
HETATM   26  C1  UNL     1      29.899  -1.345  53.661  1.00  0.00     0.048 C 
HETATM   27  C20 UNL     1      28.201   0.368  54.368  1.00  0.00     0.007 A 
HETATM   28  C19 UNL     1      26.942   0.959  54.334  1.00  0.00     0.009 A 
ENDBRANCH   1  22
TORSDOF 5
ENDMDL
MODEL 6
REMARK VINA RESULT:      -9.2      3.141      6.787
REMARK  5 active torsions:
REMARK  status: ('A' for Active; 'I' for Inactive)
REMARK    1  A    between atoms: C5_5  and  C6_6 
REMARK    2  A    between atoms: C8_8  and  C9_9 
REMARK    3  A    between atoms: N1_16  and  C15_17 
REMARK    4  A    between atoms: C15_17  and  S1_18 
REMARK    5  A    between atoms: C16_20  and  O1_21 
ROOT
HETATM    1  C6  UNL     1      23.101   1.731  52.615  1.00  0.00     0.106 C 
HETATM    2  C7  UNL     1      24.246   1.320  53.519  1.00  0.00     0.051 C 
HETATM    3  C8  UNL     1      25.426   1.882  52.775  1.00  0.00     0.110 C 
HETATM    4  N1  UNL     1      25.011   1.969  51.424  1.00  0.00    -0.233 NA
HETATM    5  N3  UNL     1      23.716   1.450  51.325  1.00  0.00    -0.249 NA
HETATM    6  H18 UNL     1      23.185   1.793  50.517  1.00  0.00     0.141 HD
ENDROOT
BRANCH   4   7
HETATM    7  C15 UNL     1      24.959   3.338  51.022  1.00  0.00     0.188 C 
BRANCH   7   8
HETATM    8  S1  UNL     1      26.286   3.553  49.680  1.00  0.00    -0.101 SA
HETATM    9  N2  UNL     1      25.796   5.847  50.032  1.00  0.00    -0.152 NA
HETATM   10  C16 UNL     1      27.249   5.807  48.575  1.00  0.00     0.256 A 
HETATM   11  C17 UNL     1      26.900   4.933  48.979  1.00  0.00     0.043 A 
HETATM   12  C18 UNL     1      26.689   4.439  49.220  1.00  0.00     0.043 A 
BRANCH  10  13
HETATM   13  O1  UNL     1      26.230   6.675  47.848  1.00  0.00    -0.374 OA
HETATM   14  H17 UNL     1      26.825   7.298  47.359  1.00  0.00     0.212 HD
ENDBRANCH  10  13
ENDBRANCH   7   8
ENDBRANCH   4   7
BRANCH   3  15
HETATM   15  C9  UNL     1      26.650   1.059  52.967  1.00  0.00    -0.039 A 
HETATM   16  C10 UNL     1      27.764   1.796  53.340  1.00  0.00     0.012 A 
HETATM   17  C11 UNL     1      28.979   1.143  53.551  1.00  0.00     0.043 A 
HETATM   18  C12 UNL     1      29.062  -0.226  53.386  1.00  0.00     0.116 A 
HETATM   19  F1  UNL     1      30.258  -0.811  53.601  1.00  0.00    -0.206 F 
HETATM   20  C13 UNL     1      27.922  -0.913  53.013  1.00  0.00     0.043 A 
HETATM   21  C14 UNL     1      26.700  -0.310  52.793  1.00  0.00     0.012 A 
ENDBRANCH   3  15
BRANCH   1  22
HETATM   22  C5  UNL     1      21.890   0.913  52.866  1.00  0.00    -0.039 A 
HETATM   23  C4  UNL     1      20.918   0.978  51.862  1.00  0.00     0.009 A 
HETATM   24  C3  UNL     1      19.718   0.270  51.948  1.00  0.00     0.007 A 
HETATM   25  C2  UNL     1      19.452  -0.525  53.043  1.00  0.00    -0.062 A 
HETATM   26  C1  UNL     1      18.178  -1.265  53.116  1.00  0.00     0.048 C 
HETATM   27  C20 UNL     1      20.422  -0.567  54.009  1.00  0.00     0.007 A 
HETATM   28  C19 UNL     1      21.625   0.129  53.945  1.00  0.00     0.009 A 
ENDBRANCH   1  22
TORSDOF 5
ENDMDL
MODEL 7
REMARK VINA RESULT:      -9.0      2.651      3.718
REMARK  5 active torsions:
REMARK  status: ('A' for Active; 'I' for Inactive)
REMARK    1  A    between atoms: C5_5  and  C6_6 
REMARK    2  A    between atoms: C8_8  and  C9_9 
REMARK    3  A    between atoms: N1_16  and  C15_17 
REMARK    4  A    between atoms: C15_17  and  S1_18 
REMARK    5  A    between atoms: C16_20  and  O1_21 
ROOT
HETATM    1  C6  UNL     1      25.871   5.139  49.092  1.00  0.00     0.106 C 
HETATM    2  C7  UNL     1      26.100   3.659  49.326  1.00  0.00     0.051 C 
HETATM    3  C8  UNL     1      25.000   3.340  50.300  1.00  0.00     0.110 C 
HETATM    4  N1  UNL     1      24.701   4.566  50.944  1.00  0.00    -0.233 NA
HETATM    5  N3  UNL     1      25.577   5.544  50.461  1.00  0.00    -0.249 NA
HETATM    6  H18 UNL     1      25.230   6.504  50.555  1.00  0.00     0.141 HD
ENDROOT
BRANCH   4   7
HETATM    7  C15 UNL     1      23.374   4.974  50.612  1.00  0.00     0.188 C 
BRANCH   7   8
HETATM    8  S1  UNL     1      22.301   4.590  52.131  1.00  0.00    -0.101 SA
HETATM    9  N2  UNL     1      21.243   3.121  50.598  1.00  0.00    -0.152 NA
HETATM   10  C16 UNL     1      20.233   2.888  52.376  1.00  0.00     0.256 A 
HETATM   11  C17 UNL     1      21.017   3.543  52.311  1.00  0.00     0.043 A 
HETATM   12  C18 UNL     1      21.470   3.916  52.257  1.00  0.00     0.043 A 
BRANCH  10  13
HETATM   13  O1  UNL     1      19.037   3.167  51.476  1.00  0.00    -0.374 OA
HETATM   14  H17 UNL     1      18.310   2.724  51.982  1.00  0.00     0.212 HD
ENDBRANCH  10  13
ENDBRANCH   7   8
ENDBRANCH   4   7
BRANCH   3  15
HETATM   15  C9  UNL     1      25.386   2.256  51.242  1.00  0.00    -0.039 A 
HETATM   16  C10 UNL     1      24.304   1.592  51.801  1.00  0.00     0.012 A 
HETATM   17  C11 UNL     1      24.530   0.553  52.704  1.00  0.00     0.043 A 
HETATM   18  C12 UNL     1      25.822   0.195  53.034  1.00  0.00     0.116 A 
HETATM   19  F1  UNL     1      25.989  -0.815  53.912  1.00  0.00    -0.206 F 
HETATM   20  C13 UNL     1      26.865   0.890  52.448  1.00  0.00     0.043 A 
HETATM   21  C14 UNL     1      26.691   1.923  51.551  1.00  0.00     0.012 A 
ENDBRANCH   3  15
BRANCH   1  22
HETATM   22  C5  UNL     1      27.082   5.796  48.545  1.00  0.00    -0.039 A 
HETATM   23  C4  UNL     1      28.241   5.013  48.576  1.00  0.00     0.009 A 
HETATM   24  C3  UNL     1      29.466   5.486  48.102  1.00  0.00     0.007 A 
HETATM   25  C2  UNL     1      29.570   6.760  47.582  1.00  0.00    -0.062 A 
HETATM   26  C1  UNL     1      30.872   7.242  47.087  1.00  0.00     0.048 C 
HETATM   27  C20 UNL     1      28.419   7.502  47.566  1.00  0.00     0.007 A 
HETATM   28  C19 UNL     1      27.187   7.051  48.032  1.00  0.00     0.009 A 
ENDBRANCH   1  22
TORSDOF 5
ENDMDL
MODEL 8
REMARK VINA RESULT:      -8.9      4.143      6.788
REMARK  5 active torsions:
REMARK  status: ('A' for Active; 'I' for Inactive)
REMARK    1  A    between atoms: C5_5  and  C6_6 
REMARK    2  A    between atoms: C8_8  and  C9_9 
REMARK    3  A    between atoms: N1_16  and  C15_17 
REMARK    4  A    between atoms: C15_17  and  S1_18 
REMARK    5  A    between atoms: C16_20  and  O1_21 
ROOT
HETATM    1  C6  UNL     1      25.629   2.054  52.206  1.00  0.00     0.106 C 
HETATM    2  C7  UNL     1      24.539   1.057  51.870  1.00  0.00     0.051 C 
HETATM    3  C8  UNL     1      23.315   1.931  51.917  1.00  0.00     0.110 C 
HETATM    4  N1  UNL     1      23.656   3.008  52.773  1.00  0.00    -0.233 NA
HETATM    5  N3  UNL     1      24.948   2.792  53.262  1.00  0.00    -0.249 NA
HETATM    6  H18 UNL     1      25.431   3.644  53.566  1.00  0.00     0.141 HD
ENDROOT
BRANCH   4   7
HETATM    7  C15 UNL     1      23.674   4.226  52.029  1.00  0.00     0.188 C 
BRANCH   7   8
HETATM    8  S1  UNL     1      21.888   4.871  52.015  1.00  0.00    -0.101 SA
HETATM    9  N2  UNL     1      22.093   4.412  49.697  1.00  0.00    -0.152 NA
HETATM   10  C16 UNL     1      20.187   5.147  49.950  1.00  0.00     0.256 A 
HETATM   11  C17 UNL     1      20.814   5.053  50.754  1.00  0.00     0.043 A 
HETATM   12  C18 UNL     1      21.187   4.993  51.207  1.00  0.00     0.043 A 
BRANCH  10  13
HETATM   13  O1  UNL     1      20.642   6.086  48.840  1.00  0.00    -0.374 OA
HETATM   14  H17 UNL     1      20.898   6.888  49.361  1.00  0.00     0.212 HD
ENDBRANCH  10  13
ENDBRANCH   7   8
ENDBRANCH   4   7
BRANCH   3  15
HETATM   15  C9  UNL     1      22.111   1.181  52.362  1.00  0.00    -0.039 A 
HETATM   16  C10 UNL     1      21.116   1.102  51.399  1.00  0.00     0.012 A 
HETATM   17  C11 UNL     1      19.931   0.425  51.691  1.00  0.00     0.043 A 
HETATM   18  C12 UNL     1      19.758  -0.159  52.930  1.00  0.00     0.116 A 
HETATM   19  F1  UNL     1      18.596  -0.802  53.165  1.00  0.00    -0.206 F 
HETATM   20  C13 UNL     1      20.782  -0.051  53.854  1.00  0.00     0.043 A 
HETATM   21  C14 UNL     1      21.969   0.608  53.612  1.00  0.00     0.012 A 
ENDBRANCH   3  15
BRANCH   1  22
HETATM   22  C5  UNL     1      26.859   1.375  52.680  1.00  0.00    -0.039 A 
HETATM   23  C4  UNL     1      26.838  -0.020  52.575  1.00  0.00     0.009 A 
HETATM   24  C3  UNL     1      27.916  -0.809  52.980  1.00  0.00     0.007 A 
HETATM   25  C2  UNL     1      29.050  -0.226  53.507  1.00  0.00    -0.062 A 
HETATM   26  C1  UNL     1      30.178  -1.076  53.931  1.00  0.00     0.048 C 
HETATM   27  C20 UNL     1      29.040   1.140  53.598  1.00  0.00     0.007 A 
HETATM   28  C19 UNL     1      27.978   1.946  53.199  1.00  0.00     0.009 A 
ENDBRANCH   1  22
TORSDOF 5
ENDMDL
MODEL 9
REMARK VINA RESULT:      -8.9      2.392      2.754
REMARK  5 active torsions:
REMARK  status: ('A' for Active; 'I' for Inactive)
REMARK    1  A    between atoms: C5_5  and  C6_6 
REMARK    2  A    between atoms: C8_8  and  C9_9 
REMARK    3  A    between atoms: N1_16  and  C15_17 
REMARK    4  A    between atoms: C15_17  and  S1_18 
REMARK    5  A    between atoms: C16_20  and  O1_21 
ROOT
HETATM    1  C6  UNL     1      24.539   3.989  49.722  1.00  0.00     0.106 C 
HETATM    2  C7  UNL     1      25.140   2.703  50.251  1.00  0.00     0.051 C 
HETATM    3  C8  UNL     1      24.049   2.221  51.167  1.00  0.00     0.110 C 
HETATM    4  N1  UNL     1      23.329   3.384  51.537  1.00  0.00    -0.233 NA
HETATM    5  N3  UNL     1      23.953   4.493  50.957  1.00  0.00    -0.249 NA
HETATM    6  H18 UNL     1      23.339   5.306  50.836  1.00  0.00     0.141 HD
ENDROOT
BRANCH   4   7
HETATM    7  C15 UNL     1      22.001   3.315  51.017  1.00  0.00     0.188 C 
BRANCH   7   8
HETATM    8  S1  UNL     1      20.925   2.576  52.396  1.00  0.00    -0.101 SA
HETATM    9  N2  UNL     1      20.911   0.711  50.931  1.00  0.00    -0.152 NA
HETATM   10  C16 UNL     1      19.775   0.150  52.553  1.00  0.00     0.256 A 
HETATM   11  C17 UNL     1      20.201   1.080  52.519  1.00  0.00     0.043 A 
HETATM   12  C18 UNL     1      20.453   1.612  52.485  1.00  0.00     0.043 A 
BRANCH  10  13
HETATM   13  O1  UNL     1      18.772  -0.179  51.455  1.00  0.00    -0.374 OA
HETATM   14  H17 UNL     1      18.120   0.559  51.566  1.00  0.00     0.212 HD
ENDBRANCH  10  13
ENDBRANCH   7   8
ENDBRANCH   4   7
BRANCH   3  15
HETATM   15  C9  UNL     1      24.588   1.465  52.328  1.00  0.00    -0.039 A 
HETATM   16  C10 UNL     1      25.711   2.046  52.898  1.00  0.00     0.012 A 
HETATM   17  C11 UNL     1      26.316   1.435  53.997  1.00  0.00     0.043 A 
HETATM   18  C12 UNL     1      25.796   0.261  54.505  1.00  0.00     0.116 A 
HETATM   19  F1  UNL     1      26.416  -0.292  55.568  1.00  0.00    -0.206 F 
HETATM   20  C13 UNL     1      24.675  -0.277  53.900  1.00  0.00     0.043 A 
HETATM   21  C14 UNL     1      24.043   0.291  52.812  1.00  0.00     0.012 A 
ENDBRANCH   3  15
BRANCH   1  22
HETATM   22  C5  UNL     1      25.580   4.889  49.170  1.00  0.00    -0.039 A 
HETATM   23  C4  UNL     1      26.859   4.328  49.088  1.00  0.00     0.009 A 
HETATM   24  C3  UNL     1      27.950   5.044  48.594  1.00  0.00     0.007 A 
HETATM   25  C2  UNL     1      27.797   6.347  48.168  1.00  0.00    -0.062 A 
HETATM   26  C1  UNL     1      28.962   7.088  47.650  1.00  0.00     0.048 C 
HETATM   27  C20 UNL     1      26.534   6.868  48.261  1.00  0.00     0.007 A 
HETATM   28  C19 UNL     1      25.432   6.173  48.748  1.00  0.00     0.009 A 
ENDBRANCH   1  22
TORSDOF 5
ENDMDL
