MODEL 1
REMARK VINA RESULT:      -8.3      0.000      0.000
REMARK  7 active torsions:
REMARK  status: ('A' for Active; 'I' for Inactive)
REMARK    1  A    between atoms: O1_2  and  C2_3 
REMARK    2  A    between atoms: C4_5  and  N1_6 
REMARK       I    between atoms: N1_6  and  C5_7 
REMARK    3  A    between atoms: C5_7  and  C6_9 
REMARK    4  A    between atoms: C6_9  and  C7_10 
REMARK    5  A    between atoms: C7_10  and  C8_11 
REMARK    6  A    between atoms: C8_11  and  N2_12 
REMARK    7  A    between atoms: C15_22  and  N6_23 
ROOT
HETATM    1  C2  UNL     1      26.563   1.829  51.716  1.00  0.00     0.162 C 
HETATM    2  C3  UNL     1      25.966   3.013  51.093  1.00  0.00     0.031 C 
HETATM    3  C4  UNL     1      25.643   4.086  50.397  1.00  0.00     0.011 C 
HETATM    4  C9  UNL     1      24.474   4.960  50.383  1.00  0.00     0.057 C 
HETATM    5  C10 UNL     1      23.708   4.941  49.084  1.00  0.00     0.007 C 
HETATM    6  C11 UNL     1      23.255   3.553  48.709  1.00  0.00     0.020 C 
HETATM    7  C12 UNL     1      22.431   2.845  49.695  1.00  0.00     0.123 C 
HETATM    8  N3  UNL     1      21.145   3.417  50.030  1.00  0.00    -0.379 N 
HETATM    9  C13 UNL     1      20.738   4.632  50.711  1.00  0.00     0.150 C 
HETATM   10  C14 UNL     1      19.905   2.726  49.694  1.00  0.00     0.227 C 
HETATM   11  N4  UNL     1      20.136   1.982  50.717  1.00  0.00    -0.161 NA
HETATM   12  N5  UNL     1      19.257   0.971  51.048  1.00  0.00    -0.217 N 
HETATM   13  C15 UNL     1      18.216   0.208  50.753  1.00  0.00     0.123 A 
HETATM   14  C16 UNL     1      17.930  -0.699  51.753  1.00  0.00     0.052 A 
HETATM   15  C17 UNL     1      18.876  -0.463  52.726  1.00  0.00     0.035 A 
HETATM   16  C18 UNL     1      19.682   0.581  52.254  1.00  0.00     0.057 A 
HETATM   17  C19 UNL     1      20.745   0.956  53.172  1.00  0.00     0.012 C 
HETATM   18  C20 UNL     1      22.016   1.089  53.405  1.00  0.00     0.047 C 
HETATM   19  C21 UNL     1      23.393   0.991  52.994  1.00  0.00     0.297 C 
HETATM   20  N7  UNL     1      24.652   1.058  53.041  1.00  0.00    -0.438 NA
HETATM   21  C22 UNL     1      25.580   0.715  52.016  1.00  0.00     0.139 C 
ENDROOT
BRANCH   3  22
HETATM   22  N1  UNL     1      26.870   4.043  49.695  1.00  0.00    -0.327 N 
HETATM   23  C5  UNL     1      27.408   5.130  48.937  1.00  0.00     0.253 C 
HETATM   24  O2  UNL     1      27.298   6.335  48.515  1.00  0.00    -0.268 OA
HETATM   25  H6  UNL     1      27.581   3.243  49.627  1.00  0.00     0.169 HD
BRANCH  23  26
HETATM   26  C6  UNL     1      28.670   5.058  48.218  1.00  0.00     0.131 C 
BRANCH  26  27
HETATM   27  C7  UNL     1      29.456   6.128  48.231  1.00  0.00    -0.106 C 
BRANCH  27  28
HETATM   28  C8  UNL     1      30.421   7.025  48.385  1.00  0.00     0.137 C 
BRANCH  28  29
HETATM   29  N2  UNL     1      30.058   7.997  49.316  1.00  0.00    -0.402 N 
HETATM   30  H9  UNL     1      29.747   8.987  49.221  1.00  0.00     0.156 HD
HETATM   31  H10 UNL     1      30.029   7.892  50.369  1.00  0.00     0.156 HD
ENDBRANCH  28  29
ENDBRANCH  27  28
ENDBRANCH  26  27
ENDBRANCH  23  26
ENDBRANCH   3  22
BRANCH   1  32
HETATM   32  O1  UNL     1      27.336   2.215  52.793  1.00  0.00    -0.385 OA
HETATM   33  C1  UNL     1      28.252   1.272  53.206  1.00  0.00     0.202 C 
ENDBRANCH   1  32
BRANCH  13  34
HETATM   34  N6  UNL     1      17.614   0.489  49.468  1.00  0.00    -0.384 N 
HETATM   35  H23 UNL     1      16.665   0.640  49.049  1.00  0.00     0.157 HD
HETATM   36  H24 UNL     1      18.239   0.588  48.637  1.00  0.00     0.157 HD
ENDBRANCH  13  34
TORSDOF 7
ENDMDL
MODEL 2
REMARK VINA RESULT:      -7.9      2.829      7.971
REMARK  7 active torsions:
REMARK  status: ('A' for Active; 'I' for Inactive)
REMARK    1  A    between atoms: O1_2  and  C2_3 
REMARK    2  A    between atoms: C4_5  and  N1_6 
REMARK       I    between atoms: N1_6  and  C5_7 
REMARK    3  A    between atoms: C5_7  and  C6_9 
REMARK    4  A    between atoms: C6_9  and  C7_10 
REMARK    5  A    between atoms: C7_10  and  C8_11 
REMARK    6  A    between atoms: C8_11  and  N2_12 
REMARK    7  A    between atoms: C15_22  and  N6_23 
ROOT
HETATM    1  C2  UNL     1      25.390   1.213  52.440  1.00  0.00     0.162 C 
HETATM    2  C3  UNL     1      24.138   1.301  51.686  1.00  0.00     0.031 C 
HETATM    3  C4  UNL     1      22.908   1.264  51.208  1.00  0.00     0.011 C 
HETATM    4  C9  UNL     1      22.302   1.714  49.958  1.00  0.00     0.057 C 
HETATM    5  C10 UNL     1      21.283   2.812  50.130  1.00  0.00     0.007 C 
HETATM    6  C11 UNL     1      21.854   4.018  50.830  1.00  0.00     0.020 C 
HETATM    7  C12 UNL     1      23.036   4.633  50.214  1.00  0.00     0.123 C 
HETATM    8  N3  UNL     1      22.887   5.192  48.888  1.00  0.00    -0.379 N 
HETATM    9  C13 UNL     1      22.630   4.616  47.582  1.00  0.00     0.150 C 
HETATM   10  C14 UNL     1      23.020   6.627  48.659  1.00  0.00     0.227 C 
HETATM   11  N4  UNL     1      24.290   6.438  48.723  1.00  0.00    -0.161 NA
HETATM   12  N5  UNL     1      25.155   7.504  48.576  1.00  0.00    -0.217 N 
HETATM   13  C15 UNL     1      25.373   8.807  48.496  1.00  0.00     0.123 A 
HETATM   14  C16 UNL     1      26.710   9.106  48.334  1.00  0.00     0.052 A 
HETATM   15  C17 UNL     1      27.347   7.885  48.316  1.00  0.00     0.035 A 
HETATM   16  C18 UNL     1      26.350   6.913  48.468  1.00  0.00     0.057 A 
HETATM   17  C19 UNL     1      26.860   5.552  48.473  1.00  0.00     0.012 C 
HETATM   18  C20 UNL     1      27.001   4.421  49.096  1.00  0.00     0.047 C 
HETATM   19  C21 UNL     1      26.795   3.577  50.244  1.00  0.00     0.297 C 
HETATM   20  N7  UNL     1      26.834   2.560  50.991  1.00  0.00    -0.438 NA
HETATM   21  C22 UNL     1      26.292   2.423  52.302  1.00  0.00     0.139 C 
ENDROOT
BRANCH   3  22
HETATM   22  N1  UNL     1      22.436   0.619  52.374  1.00  0.00    -0.327 N 
HETATM   23  C5  UNL     1      21.273   1.015  53.106  1.00  0.00     0.253 C 
HETATM   24  O2  UNL     1      20.276   1.810  53.236  1.00  0.00    -0.268 OA
HETATM   25  H6  UNL     1      22.831  -0.244  52.875  1.00  0.00     0.169 HD
BRANCH  23  26
HETATM   26  C6  UNL     1      20.812   0.338  54.306  1.00  0.00     0.131 C 
BRANCH  26  27
HETATM   27  C7  UNL     1      21.553  -0.654  54.786  1.00  0.00    -0.106 C 
BRANCH  27  28
HETATM   28  C8  UNL     1      22.232  -1.770  55.017  1.00  0.00     0.137 C 
BRANCH  28  29
HETATM   29  N2  UNL     1      23.377  -1.514  55.769  1.00  0.00    -0.402 N 
HETATM   30  H9  UNL     1      24.172  -0.851  55.644  1.00  0.00     0.156 HD
HETATM   31  H10 UNL     1      23.664  -1.982  56.674  1.00  0.00     0.156 HD
ENDBRANCH  28  29
ENDBRANCH  27  28
ENDBRANCH  26  27
ENDBRANCH  23  26
ENDBRANCH   3  22
BRANCH   1  32
HETATM   32  O1  UNL     1      26.006   0.006  52.172  1.00  0.00    -0.385 OA
HETATM   33  C1  UNL     1      25.882  -0.932  53.174  1.00  0.00     0.202 C 
ENDBRANCH   1  32
BRANCH  13  34
HETATM   34  N6  UNL     1      24.180   9.620  48.593  1.00  0.00    -0.384 N 
HETATM   35  H23 UNL     1      23.572  10.056  49.327  1.00  0.00     0.157 HD
HETATM   36  H24 UNL     1      23.706   9.914  47.710  1.00  0.00     0.157 HD
ENDBRANCH  13  34
TORSDOF 7
ENDMDL
MODEL 3
REMARK VINA RESULT:      -7.7      3.489      5.677
REMARK  7 active torsions:
REMARK  status: ('A' for Active; 'I' for Inactive)
REMARK    1  A    between atoms: O1_2  and  C2_3 
REMARK    2  A    between atoms: C4_5  and  N1_6 
REMARK       I    between atoms: N1_6  and  C5_7 
REMARK    3  A    between atoms: C5_7  and  C6_9 
REMARK    4  A    between atoms: C6_9  and  C7_10 
REMARK    5  A    between atoms: C7_10  and  C8_11 
REMARK    6  A    between atoms: C8_11  and  N2_12 
REMARK    7  A    between atoms: C15_22  and  N6_23 
ROOT
HETATM    1  C2  UNL     1      22.226  -0.168  53.274  1.00  0.00     0.162 C 
HETATM    2  C3  UNL     1      23.124   0.971  53.067  1.00  0.00     0.031 C 
HETATM    3  C4  UNL     1      24.117   1.825  52.905  1.00  0.00     0.011 C 
HETATM    4  C9  UNL     1      24.176   3.265  52.668  1.00  0.00     0.057 C 
HETATM    5  C10 UNL     1      24.772   3.644  51.336  1.00  0.00     0.007 C 
HETATM    6  C11 UNL     1      24.037   3.014  50.182  1.00  0.00     0.020 C 
HETATM    7  C12 UNL     1      22.598   3.288  50.094  1.00  0.00     0.123 C 
HETATM    8  N3  UNL     1      22.187   4.661  49.897  1.00  0.00    -0.379 N 
HETATM    9  C13 UNL     1      22.262   5.855  50.718  1.00  0.00     0.150 C 
HETATM   10  C14 UNL     1      21.521   5.077  48.667  1.00  0.00     0.227 C 
HETATM   11  N4  UNL     1      20.456   4.552  49.161  1.00  0.00    -0.161 NA
HETATM   12  N5  UNL     1      19.277   4.580  48.444  1.00  0.00    -0.217 N 
HETATM   13  C15 UNL     1      18.619   4.807  47.318  1.00  0.00     0.123 A 
HETATM   14  C16 UNL     1      17.269   4.554  47.440  1.00  0.00     0.052 A 
HETATM   15  C17 UNL     1      17.101   4.140  48.743  1.00  0.00     0.035 A 
HETATM   16  C18 UNL     1      18.370   4.169  49.336  1.00  0.00     0.057 A 
HETATM   17  C19 UNL     1      18.369   3.754  50.729  1.00  0.00     0.012 C 
HETATM   18  C20 UNL     1      18.791   2.933  51.643  1.00  0.00     0.047 C 
HETATM   19  C21 UNL     1      19.571   1.795  52.057  1.00  0.00     0.297 C 
HETATM   20  N7  UNL     1      20.079   0.914  52.805  1.00  0.00    -0.438 NA
HETATM   21  C22 UNL     1      20.968  -0.136  52.431  1.00  0.00     0.139 C 
ENDROOT
BRANCH   3  22
HETATM   22  N1  UNL     1      25.074   0.796  53.059  1.00  0.00    -0.327 N 
HETATM   23  C5  UNL     1      26.293   0.926  53.796  1.00  0.00     0.253 C 
HETATM   24  O2  UNL     1      27.072   1.651  54.510  1.00  0.00    -0.268 OA
HETATM   25  H6  UNL     1      25.048  -0.212  52.691  1.00  0.00     0.169 HD
BRANCH  23  26
HETATM   26  C6  UNL     1      27.265  -0.146  53.934  1.00  0.00     0.131 C 
BRANCH  26  27
HETATM   27  C7  UNL     1      27.163  -1.188  53.118  1.00  0.00    -0.106 C 
BRANCH  27  28
HETATM   28  C8  UNL     1      27.217  -2.362  52.501  1.00  0.00     0.137 C 
BRANCH  28  29
HETATM   29  N2  UNL     1      28.264  -3.139  52.994  1.00  0.00    -0.402 N 
HETATM   30  H9  UNL     1      28.373  -3.714  53.856  1.00  0.00     0.156 HD
HETATM   31  H10 UNL     1      29.208  -3.296  52.543  1.00  0.00     0.156 HD
ENDBRANCH  28  29
ENDBRANCH  27  28
ENDBRANCH  26  27
ENDBRANCH  23  26
ENDBRANCH   3  22
BRANCH   1  32
HETATM   32  O1  UNL     1      22.006  -0.341  54.626  1.00  0.00    -0.385 OA
HETATM   33  C1  UNL     1      22.805  -1.296  55.217  1.00  0.00     0.202 C 
ENDBRANCH   1  32
BRANCH  13  34
HETATM   34  N6  UNL     1      19.447   5.265  46.224  1.00  0.00    -0.384 N 
HETATM   35  H23 UNL     1      20.434   5.568  46.046  1.00  0.00     0.157 HD
HETATM   36  H24 UNL     1      19.015   5.354  45.277  1.00  0.00     0.157 HD
ENDBRANCH  13  34
TORSDOF 7
ENDMDL
MODEL 4
REMARK VINA RESULT:      -7.7      2.934      8.563
REMARK  7 active torsions:
REMARK  status: ('A' for Active; 'I' for Inactive)
REMARK    1  A    between atoms: O1_2  and  C2_3 
REMARK    2  A    between atoms: C4_5  and  N1_6 
REMARK       I    between atoms: N1_6  and  C5_7 
REMARK    3  A    between atoms: C5_7  and  C6_9 
REMARK    4  A    between atoms: C6_9  and  C7_10 
REMARK    5  A    between atoms: C7_10  and  C8_11 
REMARK    6  A    between atoms: C8_11  and  N2_12 
REMARK    7  A    between atoms: C15_22  and  N6_23 
ROOT
HETATM    1  C2  UNL     1      23.662   0.642  53.196  1.00  0.00     0.162 C 
HETATM    2  C3  UNL     1      22.667   0.612  52.122  1.00  0.00     0.031 C 
HETATM    3  C4  UNL     1      21.614   0.505  51.335  1.00  0.00     0.011 C 
HETATM    4  C9  UNL     1      21.393   0.746  49.912  1.00  0.00     0.057 C 
HETATM    5  C10 UNL     1      20.424   1.864  49.621  1.00  0.00     0.007 C 
HETATM    6  C11 UNL     1      20.846   3.165  50.253  1.00  0.00     0.020 C 
HETATM    7  C12 UNL     1      22.180   3.662  49.899  1.00  0.00     0.123 C 
HETATM    8  N3  UNL     1      22.426   3.996  48.513  1.00  0.00    -0.379 N 
HETATM    9  C13 UNL     1      22.503   3.213  47.294  1.00  0.00     0.150 C 
HETATM   10  C14 UNL     1      22.691   5.372  48.107  1.00  0.00     0.227 C 
HETATM   11  N4  UNL     1      23.884   5.188  48.548  1.00  0.00    -0.161 NA
HETATM   12  N5  UNL     1      24.811   6.209  48.480  1.00  0.00    -0.217 N 
HETATM   13  C15 UNL     1      25.109   7.480  48.259  1.00  0.00     0.123 A 
HETATM   14  C16 UNL     1      26.453   7.739  48.428  1.00  0.00     0.052 A 
HETATM   15  C17 UNL     1      27.008   6.527  48.778  1.00  0.00     0.035 A 
HETATM   16  C18 UNL     1      25.957   5.601  48.800  1.00  0.00     0.057 A 
HETATM   17  C19 UNL     1      26.376   4.256  49.159  1.00  0.00     0.012 C 
HETATM   18  C20 UNL     1      26.284   3.242  49.966  1.00  0.00     0.047 C 
HETATM   19  C21 UNL     1      25.730   2.600  51.131  1.00  0.00     0.297 C 
HETATM   20  N7  UNL     1      25.513   1.721  52.010  1.00  0.00    -0.438 NA
HETATM   21  C22 UNL     1      24.629   1.806  53.124  1.00  0.00     0.139 C 
ENDROOT
BRANCH   3  22
HETATM   22  N1  UNL     1      20.810   0.064  52.412  1.00  0.00    -0.327 N 
HETATM   23  C5  UNL     1      19.431  -0.298  52.300  1.00  0.00     0.253 C 
HETATM   24  O2  UNL     1      18.390  -0.443  51.566  1.00  0.00    -0.268 OA
HETATM   25  H6  UNL     1      21.081  -0.088  53.439  1.00  0.00     0.169 HD
BRANCH  23  26
HETATM   26  C6  UNL     1      18.625  -0.742  53.424  1.00  0.00     0.131 C 
BRANCH  26  27
HETATM   27  C7  UNL     1      18.133  -1.975  53.390  1.00  0.00    -0.106 C 
BRANCH  27  28
HETATM   28  C8  UNL     1      17.537  -3.140  53.613  1.00  0.00     0.137 C 
BRANCH  28  29
HETATM   29  N2  UNL     1      16.209  -3.110  53.195  1.00  0.00    -0.402 N 
HETATM   30  H9  UNL     1      15.761  -2.920  52.273  1.00  0.00     0.156 HD
HETATM   31  H10 UNL     1      15.350  -3.293  53.786  1.00  0.00     0.156 HD
ENDBRANCH  28  29
ENDBRANCH  27  28
ENDBRANCH  26  27
ENDBRANCH  23  26
ENDBRANCH   3  22
BRANCH   1  32
HETATM   32  O1  UNL     1      24.264  -0.597  53.302  1.00  0.00    -0.385 OA
HETATM   33  C1  UNL     1      25.105  -0.732  54.385  1.00  0.00     0.202 C 
ENDBRANCH   1  32
BRANCH  13  34
HETATM   34  N6  UNL     1      23.978   8.305  47.895  1.00  0.00    -0.384 N 
HETATM   35  H23 UNL     1      23.238   8.888  48.353  1.00  0.00     0.157 HD
HETATM   36  H24 UNL     1      23.749   8.415  46.882  1.00  0.00     0.157 HD
ENDBRANCH  13  34
TORSDOF 7
ENDMDL
MODEL 5
REMARK VINA RESULT:      -7.6      3.940      9.114
REMARK  7 active torsions:
REMARK  status: ('A' for Active; 'I' for Inactive)
REMARK    1  A    between atoms: O1_2  and  C2_3 
REMARK    2  A    between atoms: C4_5  and  N1_6 
REMARK       I    between atoms: N1_6  and  C5_7 
REMARK    3  A    between atoms: C5_7  and  C6_9 
REMARK    4  A    between atoms: C6_9  and  C7_10 
REMARK    5  A    between atoms: C7_10  and  C8_11 
REMARK    6  A    between atoms: C8_11  and  N2_12 
REMARK    7  A    between atoms: C15_22  and  N6_23 
ROOT
HETATM    1  C2  UNL     1      21.075   2.730  51.492  1.00  0.00     0.162 C 
HETATM    2  C3  UNL     1      20.818   1.662  52.461  1.00  0.00     0.031 C 
HETATM    3  C4  UNL     1      20.385   0.651  53.190  1.00  0.00     0.011 C 
HETATM    4  C9  UNL     1      20.869   0.009  54.408  1.00  0.00     0.057 C 
HETATM    5  C10 UNL     1      21.292  -1.426  54.221  1.00  0.00     0.007 C 
HETATM    6  C11 UNL     1      22.355  -1.574  53.163  1.00  0.00     0.020 C 
HETATM    7  C12 UNL     1      23.583  -0.795  53.356  1.00  0.00     0.123 C 
HETATM    8  N3  UNL     1      24.387  -1.086  54.523  1.00  0.00    -0.379 N 
HETATM    9  C13 UNL     1      24.176  -0.919  55.949  1.00  0.00     0.150 C 
HETATM   10  C14 UNL     1      25.726  -1.650  54.392  1.00  0.00     0.227 C 
HETATM   11  N4  UNL     1      26.111  -0.459  54.098  1.00  0.00    -0.161 NA
HETATM   12  N5  UNL     1      27.440  -0.214  53.813  1.00  0.00    -0.217 N 
HETATM   13  C15 UNL     1      28.661  -0.652  53.551  1.00  0.00     0.123 A 
HETATM   14  C16 UNL     1      29.556   0.378  53.349  1.00  0.00     0.052 A 
HETATM   15  C17 UNL     1      28.813   1.528  53.500  1.00  0.00     0.035 A 
HETATM   16  C18 UNL     1      27.504   1.121  53.788  1.00  0.00     0.057 A 
HETATM   17  C19 UNL     1      26.580   2.228  53.977  1.00  0.00     0.012 C 
HETATM   18  C20 UNL     1      25.501   2.849  53.606  1.00  0.00     0.047 C 
HETATM   19  C21 UNL     1      24.352   2.984  52.748  1.00  0.00     0.297 C 
HETATM   20  N7  UNL     1      23.288   3.451  52.256  1.00  0.00    -0.438 NA
HETATM   21  C22 UNL     1      22.538   2.937  51.159  1.00  0.00     0.139 C 
ENDROOT
BRANCH   3  22
HETATM   22  N1  UNL     1      19.281   0.457  52.327  1.00  0.00    -0.327 N 
HETATM   23  C5  UNL     1      18.218  -0.470  52.566  1.00  0.00     0.253 C 
HETATM   24  O2  UNL     1      17.690  -1.365  53.316  1.00  0.00    -0.268 OA
HETATM   25  H6  UNL     1      19.047   0.956  51.407  1.00  0.00     0.169 HD
BRANCH  23  26
HETATM   26  C6  UNL     1      17.097  -0.655  51.660  1.00  0.00     0.131 C 
BRANCH  26  27
HETATM   27  C7  UNL     1      17.019   0.134  50.596  1.00  0.00    -0.106 C 
BRANCH  27  28
HETATM   28  C8  UNL     1      17.033   1.125  49.713  1.00  0.00     0.137 C 
BRANCH  28  29
HETATM   29  N2  UNL     1      18.320   1.343  49.225  1.00  0.00    -0.402 N 
HETATM   30  H9  UNL     1      18.881   2.208  49.069  1.00  0.00     0.156 HD
HETATM   31  H10 UNL     1      19.013   0.610  48.903  1.00  0.00     0.156 HD
ENDBRANCH  28  29
ENDBRANCH  27  28
ENDBRANCH  26  27
ENDBRANCH  23  26
ENDBRANCH   3  22
BRANCH   1  32
HETATM   32  O1  UNL     1      20.409   3.876  51.882  1.00  0.00    -0.385 OA
HETATM   33  C1  UNL     1      20.149   4.761  50.859  1.00  0.00     0.202 C 
ENDBRANCH   1  32
BRANCH  13  34
HETATM   34  N6  UNL     1      28.788  -2.093  53.536  1.00  0.00    -0.384 N 
HETATM   35  H23 UNL     1      29.007  -2.880  54.192  1.00  0.00     0.157 HD
HETATM   36  H24 UNL     1      28.631  -2.596  52.634  1.00  0.00     0.157 HD
ENDBRANCH  13  34
TORSDOF 7
ENDMDL
MODEL 6
REMARK VINA RESULT:      -7.6      3.564      4.654
REMARK  7 active torsions:
REMARK  status: ('A' for Active; 'I' for Inactive)
REMARK    1  A    between atoms: O1_2  and  C2_3 
REMARK    2  A    between atoms: C4_5  and  N1_6 
REMARK       I    between atoms: N1_6  and  C5_7 
REMARK    3  A    between atoms: C5_7  and  C6_9 
REMARK    4  A    between atoms: C6_9  and  C7_10 
REMARK    5  A    between atoms: C7_10  and  C8_11 
REMARK    6  A    between atoms: C8_11  and  N2_12 
REMARK    7  A    between atoms: C15_22  and  N6_23 
ROOT
HETATM    1  C2  UNL     1      23.496  -0.881  53.587  1.00  0.00     0.162 C 
HETATM    2  C3  UNL     1      23.416   0.465  53.017  1.00  0.00     0.031 C 
HETATM    3  C4  UNL     1      23.592   1.648  52.459  1.00  0.00     0.011 C 
HETATM    4  C9  UNL     1      22.701   2.770  52.178  1.00  0.00     0.057 C 
HETATM    5  C10 UNL     1      22.522   3.060  50.710  1.00  0.00     0.007 C 
HETATM    6  C11 UNL     1      22.016   1.862  49.948  1.00  0.00     0.020 C 
HETATM    7  C12 UNL     1      20.757   1.273  50.417  1.00  0.00     0.123 C 
HETATM    8  N3  UNL     1      19.568   2.095  50.358  1.00  0.00    -0.379 N 
HETATM    9  C13 UNL     1      19.148   3.298  51.052  1.00  0.00     0.150 C 
HETATM   10  C14 UNL     1      18.461   1.752  49.471  1.00  0.00     0.227 C 
HETATM   11  N4  UNL     1      18.131   0.876  50.354  1.00  0.00    -0.161 NA
HETATM   12  N5  UNL     1      17.028   0.072  50.150  1.00  0.00    -0.217 N 
HETATM   13  C15 UNL     1      16.071  -0.391  49.361  1.00  0.00     0.123 A 
HETATM   14  C16 UNL     1      15.256  -1.300  50.003  1.00  0.00     0.052 A 
HETATM   15  C17 UNL     1      15.765  -1.391  51.281  1.00  0.00     0.035 A 
HETATM   16  C18 UNL     1      16.864  -0.524  51.334  1.00  0.00     0.057 A 
HETATM   17  C19 UNL     1      17.523  -0.502  52.630  1.00  0.00     0.012 C 
HETATM   18  C20 UNL     1      18.600  -0.696  53.331  1.00  0.00     0.047 C 
HETATM   19  C21 UNL     1      19.986  -1.073  53.441  1.00  0.00     0.297 C 
HETATM   20  N7  UNL     1      21.113  -1.309  53.957  1.00  0.00    -0.438 NA
HETATM   21  C22 UNL     1      22.294  -1.757  53.298  1.00  0.00     0.139 C 
ENDROOT
BRANCH   3  22
HETATM   22  N1  UNL     1      24.968   1.389  52.259  1.00  0.00    -0.327 N 
HETATM   23  C5  UNL     1      26.009   1.804  53.147  1.00  0.00     0.253 C 
HETATM   24  O2  UNL     1      26.359   2.400  54.226  1.00  0.00    -0.268 OA
HETATM   25  H6  UNL     1      25.444   0.848  51.464  1.00  0.00     0.169 HD
BRANCH  23  26
HETATM   26  C6  UNL     1      27.418   1.530  52.914  1.00  0.00     0.131 C 
BRANCH  26  27
HETATM   27  C7  UNL     1      27.991   0.568  53.628  1.00  0.00    -0.106 C 
BRANCH  27  28
HETATM   28  C8  UNL     1      28.799  -0.231  54.313  1.00  0.00     0.137 C 
BRANCH  28  29
HETATM   29  N2  UNL     1      28.935  -1.466  53.683  1.00  0.00    -0.402 N 
HETATM   30  H9  UNL     1      28.458  -1.898  52.863  1.00  0.00     0.156 HD
HETATM   31  H10 UNL     1      29.601  -2.246  53.944  1.00  0.00     0.156 HD
ENDBRANCH  28  29
ENDBRANCH  27  28
ENDBRANCH  26  27
ENDBRANCH  23  26
ENDBRANCH   3  22
BRANCH   1  32
HETATM   32  O1  UNL     1      23.834  -0.796  54.923  1.00  0.00    -0.385 OA
HETATM   33  C1  UNL     1      25.175  -0.981  55.185  1.00  0.00     0.202 C 
ENDBRANCH   1  32
BRANCH  13  34
HETATM   34  N6  UNL     1      16.088   0.149  48.019  1.00  0.00    -0.384 N 
HETATM   35  H23 UNL     1      16.746   0.248  47.209  1.00  0.00     0.157 HD
HETATM   36  H24 UNL     1      15.221   0.602  47.654  1.00  0.00     0.157 HD
ENDBRANCH  13  34
TORSDOF 7
ENDMDL
MODEL 7
REMARK VINA RESULT:      -7.4      3.174      7.208
REMARK  7 active torsions:
REMARK  status: ('A' for Active; 'I' for Inactive)
REMARK    1  A    between atoms: O1_2  and  C2_3 
REMARK    2  A    between atoms: C4_5  and  N1_6 
REMARK       I    between atoms: N1_6  and  C5_7 
REMARK    3  A    between atoms: C5_7  and  C6_9 
REMARK    4  A    between atoms: C6_9  and  C7_10 
REMARK    5  A    between atoms: C7_10  and  C8_11 
REMARK    6  A    between atoms: C8_11  and  N2_12 
REMARK    7  A    between atoms: C15_22  and  N6_23 
ROOT
HETATM    1  C2  UNL     1      24.611   1.687  52.218  1.00  0.00     0.162 C 
HETATM    2  C3  UNL     1      23.326   1.215  51.698  1.00  0.00     0.031 C 
HETATM    3  C4  UNL     1      22.174   0.631  51.426  1.00  0.00     0.011 C 
HETATM    4  C9  UNL     1      21.183   0.807  50.369  1.00  0.00     0.057 C 
HETATM    5  C10 UNL     1      19.841   1.288  50.859  1.00  0.00     0.007 C 
HETATM    6  C11 UNL     1      19.942   2.584  51.621  1.00  0.00     0.020 C 
HETATM    7  C12 UNL     1      20.562   3.711  50.914  1.00  0.00     0.123 C 
HETATM    8  N3  UNL     1      19.903   4.202  49.724  1.00  0.00    -0.379 N 
HETATM    9  C13 UNL     1      19.663   3.638  48.408  1.00  0.00     0.150 C 
HETATM   10  C14 UNL     1      19.325   5.542  49.683  1.00  0.00     0.227 C 
HETATM   11  N4  UNL     1      20.526   5.967  49.512  1.00  0.00    -0.161 NA
HETATM   12  N5  UNL     1      20.767   7.320  49.379  1.00  0.00    -0.217 N 
HETATM   13  C15 UNL     1      20.353   8.575  49.450  1.00  0.00     0.123 A 
HETATM   14  C16 UNL     1      21.346   9.474  49.117  1.00  0.00     0.052 A 
HETATM   15  C17 UNL     1      22.444   8.696  48.822  1.00  0.00     0.035 A 
HETATM   16  C18 UNL     1      22.047   7.364  48.995  1.00  0.00     0.057 A 
HETATM   17  C19 UNL     1      23.103   6.403  48.722  1.00  0.00     0.012 C 
HETATM   18  C20 UNL     1      23.865   5.440  49.147  1.00  0.00     0.047 C 
HETATM   19  C21 UNL     1      24.307   4.541  50.182  1.00  0.00     0.297 C 
HETATM   20  N7  UNL     1      24.955   3.625  50.760  1.00  0.00    -0.438 NA
HETATM   21  C22 UNL     1      24.821   3.184  52.108  1.00  0.00     0.139 C 
ENDROOT
BRANCH   3  22
HETATM   22  N1  UNL     1      22.300  -0.218  52.550  1.00  0.00    -0.327 N 
HETATM   23  C5  UNL     1      21.557  -0.073  53.764  1.00  0.00     0.253 C 
HETATM   24  O2  UNL     1      20.678   0.566  54.442  1.00  0.00    -0.268 OA
HETATM   25  H6  UNL     1      22.922  -1.083  52.676  1.00  0.00     0.169 HD
BRANCH  23  26
HETATM   26  C6  UNL     1      21.710  -0.956  54.907  1.00  0.00     0.131 C 
BRANCH  26  27
HETATM   27  C7  UNL     1      22.941  -1.276  55.288  1.00  0.00    -0.106 C 
BRANCH  27  28
HETATM   28  C8  UNL     1      24.185  -1.321  55.748  1.00  0.00     0.137 C 
BRANCH  28  29
HETATM   29  N2  UNL     1      25.099  -0.990  54.750  1.00  0.00    -0.402 N 
HETATM   30  H9  UNL     1      25.722  -1.564  54.142  1.00  0.00     0.156 HD
HETATM   31  H10 UNL     1      25.342  -0.020  54.403  1.00  0.00     0.156 HD
ENDBRANCH  28  29
ENDBRANCH  27  28
ENDBRANCH  26  27
ENDBRANCH  23  26
ENDBRANCH   3  22
BRANCH   1  32
HETATM   32  O1  UNL     1      25.632   0.925  51.684  1.00  0.00    -0.385 OA
HETATM   33  C1  UNL     1      26.837   1.044  52.342  1.00  0.00     0.202 C 
ENDBRANCH   1  32
BRANCH  13  34
HETATM   34  N6  UNL     1      18.973   8.728  49.855  1.00  0.00    -0.384 N 
HETATM   35  H23 UNL     1      18.416   8.970  50.710  1.00  0.00     0.157 HD
HETATM   36  H24 UNL     1      18.226   8.567  49.144  1.00  0.00     0.157 HD
ENDBRANCH  13  34
TORSDOF 7
ENDMDL
MODEL 8
REMARK VINA RESULT:      -7.3      3.259      5.608
REMARK  7 active torsions:
REMARK  status: ('A' for Active; 'I' for Inactive)
REMARK    1  A    between atoms: O1_2  and  C2_3 
REMARK    2  A    between atoms: C4_5  and  N1_6 
REMARK       I    between atoms: N1_6  and  C5_7 
REMARK    3  A    between atoms: C5_7  and  C6_9 
REMARK    4  A    between atoms: C6_9  and  C7_10 
REMARK    5  A    between atoms: C7_10  and  C8_11 
REMARK    6  A    between atoms: C8_11  and  N2_12 
REMARK    7  A    between atoms: C15_22  and  N6_23 
ROOT
HETATM    1  C2  UNL     1      22.214  -0.174  52.914  1.00  0.00     0.162 C 
HETATM    2  C3  UNL     1      23.077   1.008  52.860  1.00  0.00     0.031 C 
HETATM    3  C4  UNL     1      24.032   1.917  52.907  1.00  0.00     0.011 C 
HETATM    4  C9  UNL     1      24.091   3.332  52.549  1.00  0.00     0.057 C 
HETATM    5  C10 UNL     1      25.038   3.640  51.417  1.00  0.00     0.007 C 
HETATM    6  C11 UNL     1      24.712   2.858  50.171  1.00  0.00     0.020 C 
HETATM    7  C12 UNL     1      23.353   3.013  49.638  1.00  0.00     0.123 C 
HETATM    8  N3  UNL     1      22.955   4.329  49.188  1.00  0.00    -0.379 N 
HETATM    9  C13 UNL     1      22.726   5.591  49.865  1.00  0.00     0.150 C 
HETATM   10  C14 UNL     1      22.667   4.587  47.780  1.00  0.00     0.227 C 
HETATM   11  N4  UNL     1      21.530   4.027  47.994  1.00  0.00    -0.161 NA
HETATM   12  N5  UNL     1      20.618   3.903  46.964  1.00  0.00    -0.217 N 
HETATM   13  C15 UNL     1      20.316   3.982  45.678  1.00  0.00     0.123 A 
HETATM   14  C16 UNL     1      19.005   3.638  45.425  1.00  0.00     0.052 A 
HETATM   15  C17 UNL     1      18.475   3.326  46.659  1.00  0.00     0.035 A 
HETATM   16  C18 UNL     1      19.507   3.502  47.590  1.00  0.00     0.057 A 
HETATM   17  C19 UNL     1      19.111   3.210  48.958  1.00  0.00     0.012 C 
HETATM   18  C20 UNL     1      19.279   2.504  50.036  1.00  0.00     0.047 C 
HETATM   19  C21 UNL     1      19.953   1.469  50.776  1.00  0.00     0.297 C 
HETATM   20  N7  UNL     1      20.256   0.697  51.727  1.00  0.00    -0.438 NA
HETATM   21  C22 UNL     1      21.263  -0.311  51.742  1.00  0.00     0.139 C 
ENDROOT
BRANCH   3  22
HETATM   22  N1  UNL     1      24.947   0.981  53.442  1.00  0.00    -0.327 N 
HETATM   23  C5  UNL     1      26.004   0.366  52.700  1.00  0.00     0.253 C 
HETATM   24  O2  UNL     1      26.633   0.231  51.592  1.00  0.00    -0.268 OA
HETATM   25  H6  UNL     1      25.020   0.605  54.444  1.00  0.00     0.169 HD
BRANCH  23  26
HETATM   26  C6  UNL     1      26.928  -0.599  53.272  1.00  0.00     0.131 C 
BRANCH  26  27
HETATM   27  C7  UNL     1      28.044  -0.141  53.825  1.00  0.00    -0.106 C 
BRANCH  27  28
HETATM   28  C8  UNL     1      28.983   0.412  54.582  1.00  0.00     0.137 C 
BRANCH  28  29
HETATM   29  N2  UNL     1      29.424   1.615  54.034  1.00  0.00    -0.402 N 
HETATM   30  H9  UNL     1      30.059   1.839  53.238  1.00  0.00     0.156 HD
HETATM   31  H10 UNL     1      29.171   2.592  54.353  1.00  0.00     0.156 HD
ENDBRANCH  28  29
ENDBRANCH  27  28
ENDBRANCH  26  27
ENDBRANCH  23  26
ENDBRANCH   3  22
BRANCH   1  32
HETATM   32  O1  UNL     1      21.608  -0.246  54.153  1.00  0.00    -0.385 OA
HETATM   33  C1  UNL     1      21.339  -1.528  54.583  1.00  0.00     0.202 C 
ENDBRANCH   1  32
BRANCH  13  34
HETATM   34  N6  UNL     1      21.411   4.406  44.832  1.00  0.00    -0.384 N 
HETATM   35  H23 UNL     1      21.737   4.302  43.842  1.00  0.00     0.157 HD
HETATM   36  H24 UNL     1      22.157   5.005  45.249  1.00  0.00     0.157 HD
ENDBRANCH  13  34
TORSDOF 7
ENDMDL
MODEL 9
REMARK VINA RESULT:      -7.3      2.628      9.457
REMARK  7 active torsions:
REMARK  status: ('A' for Active; 'I' for Inactive)
REMARK    1  A    between atoms: O1_2  and  C2_3 
REMARK    2  A    between atoms: C4_5  and  N1_6 
REMARK       I    between atoms: N1_6  and  C5_7 
REMARK    3  A    between atoms: C5_7  and  C6_9 
REMARK    4  A    between atoms: C6_9  and  C7_10 
REMARK    5  A    between atoms: C7_10  and  C8_11 
REMARK    6  A    between atoms: C8_11  and  N2_12 
REMARK    7  A    between atoms: C15_22  and  N6_23 
ROOT
HETATM    1  C2  UNL     1      24.229   3.530  50.411  1.00  0.00     0.162 C 
HETATM    2  C3  UNL     1      23.649   4.791  49.945  1.00  0.00     0.031 C 
HETATM    3  C4  UNL     1      22.938   5.872  49.685  1.00  0.00     0.011 C 
HETATM    4  C9  UNL     1      23.130   7.011  48.791  1.00  0.00     0.057 C 
HETATM    5  C10 UNL     1      23.286   8.331  49.503  1.00  0.00     0.007 C 
HETATM    6  C11 UNL     1      24.426   8.317  50.489  1.00  0.00     0.020 C 
HETATM    7  C12 UNL     1      25.747   7.966  49.956  1.00  0.00     0.123 C 
HETATM    8  N3  UNL     1      26.324   8.842  48.960  1.00  0.00    -0.379 N 
HETATM    9  C13 UNL     1      25.971   9.170  47.592  1.00  0.00     0.150 C 
HETATM   10  C14 UNL     1      27.534   9.607  49.242  1.00  0.00     0.227 C 
HETATM   11  N4  UNL     1      28.177   8.513  49.034  1.00  0.00    -0.161 NA
HETATM   12  N5  UNL     1      29.554   8.490  49.145  1.00  0.00    -0.217 N 
HETATM   13  C15 UNL     1      30.689   9.068  49.503  1.00  0.00     0.123 A 
HETATM   14  C16 UNL     1      31.786   8.269  49.251  1.00  0.00     0.052 A 
HETATM   15  C17 UNL     1      31.267   7.119  48.697  1.00  0.00     0.035 A 
HETATM   16  C18 UNL     1      29.878   7.293  48.646  1.00  0.00     0.057 A 
HETATM   17  C19 UNL     1      29.170   6.156  48.083  1.00  0.00     0.012 C 
HETATM   18  C20 UNL     1      28.288   5.213  48.229  1.00  0.00     0.047 C 
HETATM   19  C21 UNL     1      27.306   4.512  49.016  1.00  0.00     0.297 C 
HETATM   20  N7  UNL     1      26.424   3.667  49.333  1.00  0.00    -0.438 NA
HETATM   21  C22 UNL     1      25.735   3.554  50.575  1.00  0.00     0.139 C 
ENDROOT
BRANCH   3  22
HETATM   22  N1  UNL     1      21.936   5.477  50.602  1.00  0.00    -0.327 N 
HETATM   23  C5  UNL     1      20.800   4.676  50.265  1.00  0.00     0.253 C 
HETATM   24  O2  UNL     1      20.136   4.029  49.380  1.00  0.00    -0.268 OA
HETATM   25  H6  UNL     1      21.866   5.677  51.653  1.00  0.00     0.169 HD
BRANCH  23  26
HETATM   26  C6  UNL     1      19.780   4.288  51.226  1.00  0.00     0.131 C 
BRANCH  26  27
HETATM   27  C7  UNL     1      19.943   3.145  51.881  1.00  0.00    -0.106 C 
BRANCH  27  28
HETATM   28  C8  UNL     1      20.216   2.171  52.739  1.00  0.00     0.137 C 
BRANCH  28  29
HETATM   29  N2  UNL     1      19.645   0.968  52.330  1.00  0.00    -0.402 N 
HETATM   30  H9  UNL     1      18.660   0.675  52.158  1.00  0.00     0.156 HD
HETATM   31  H10 UNL     1      20.152   0.067  52.100  1.00  0.00     0.156 HD
ENDBRANCH  28  29
ENDBRANCH  27  28
ENDBRANCH  26  27
ENDBRANCH  23  26
ENDBRANCH   3  22
BRANCH   1  32
HETATM   32  O1  UNL     1      23.755   2.490  49.636  1.00  0.00    -0.385 OA
HETATM   33  C1  UNL     1      22.853   1.667  50.275  1.00  0.00     0.202 C 
ENDBRANCH   1  32
BRANCH  13  34
HETATM   34  N6  UNL     1      30.535  10.389  50.071  1.00  0.00    -0.384 N 
HETATM   35  H23 UNL     1      29.855  10.929  50.658  1.00  0.00     0.157 HD
HETATM   36  H24 UNL     1      31.285  11.095  49.897  1.00  0.00     0.157 HD
ENDBRANCH  13  34
TORSDOF 7
ENDMDL
