MODEL 1
REMARK VINA RESULT:      -7.1      0.000      0.000
REMARK  3 active torsions:
REMARK  status: ('A' for Active; 'I' for Inactive)
REMARK    1  A    between atoms: C4_4  and  C5_5 
REMARK    2  A    between atoms: C5_5  and  C6_6 
REMARK    3  A    between atoms: C7_8  and  N1_9 
ROOT
HETATM    1  C1  UNL     1      26.095  -1.174  51.915  1.00  0.00     0.045 C 
HETATM    2  C2  UNL     1      25.670  -0.316  53.070  1.00  0.00    -0.057 C 
HETATM    3  C3  UNL     1      24.584  -0.119  53.830  1.00  0.00    -0.009 C 
HETATM    4  C4  UNL     1      23.650   0.168  52.980  1.00  0.00     0.004 C 
HETATM    5  C7  UNL     1      23.214   0.952  51.849  1.00  0.00     0.041 C 
HETATM    6  C8  UNL     1      23.398   1.895  50.957  1.00  0.00     0.099 C 
HETATM    7  C9  UNL     1      24.753   2.576  51.139  1.00  0.00     0.308 A 
HETATM    8  O1  UNL     1      25.869   3.104  51.348  1.00  0.00    -0.125 OA
HETATM    9  N2  UNL     1      25.310   2.311  52.467  1.00  0.00     0.106 N 
HETATM   10  C10 UNL     1      25.871   2.051  53.790  1.00  0.00     0.299 C 
HETATM   11  C11 UNL     1      26.532   0.685  53.739  1.00  0.00     0.034 A 
HETATM   12  C12 UNL     1      27.715   0.793  52.902  1.00  0.00     0.009 A 
HETATM   13  C13 UNL     1      29.012   0.662  53.041  1.00  0.00     0.113 A 
HETATM   14  N3  UNL     1      29.371   0.318  54.380  1.00  0.00    -0.277 NA
HETATM   15  C14 UNL     1      28.384   0.191  55.221  1.00  0.00     0.090 A 
HETATM   16  C15 UNL     1      26.913   0.320  55.134  1.00  0.00     0.067 A 
HETATM   17  H9  UNL     1      24.435   2.074  52.954  1.00  0.00     0.328 HD
ENDROOT
BRANCH   4  18
HETATM   18  C5  UNL     1      22.657  -0.793  53.399  1.00  0.00     0.044 C 
BRANCH  18  19
HETATM   19  C6  UNL     1      21.949  -1.159  54.425  1.00  0.00     0.189 C 
HETATM   20  F1  UNL     1      20.860  -1.896  54.736  1.00  0.00    -0.219 F 
ENDBRANCH  18  19
ENDBRANCH   4  18
BRANCH   5  21
HETATM   21  N1  UNL     1      21.974   0.703  51.251  1.00  0.00    -0.398 N 
HETATM   22  H6  UNL     1      21.152   0.024  51.259  1.00  0.00     0.156 HD
HETATM   23  H7  UNL     1      21.622   1.376  50.509  1.00  0.00     0.156 HD
ENDBRANCH   5  21
TORSDOF 3
ENDMDL
MODEL 2
REMARK VINA RESULT:      -7.0      2.777      3.959
REMARK  3 active torsions:
REMARK  status: ('A' for Active; 'I' for Inactive)
REMARK    1  A    between atoms: C4_4  and  C5_5 
REMARK    2  A    between atoms: C5_5  and  C6_6 
REMARK    3  A    between atoms: C7_8  and  N1_9 
ROOT
HETATM    1  C1  UNL     1      24.836   2.682  53.646  1.00  0.00     0.045 C 
HETATM    2  C2  UNL     1      24.753   1.479  52.754  1.00  0.00    -0.057 C 
HETATM    3  C3  UNL     1      24.240   1.145  51.561  1.00  0.00    -0.009 C 
HETATM    4  C4  UNL     1      22.984   1.439  51.662  1.00  0.00     0.004 C 
HETATM    5  C7  UNL     1      21.753   1.341  52.411  1.00  0.00     0.041 C 
HETATM    6  C8  UNL     1      21.047   0.890  53.419  1.00  0.00     0.099 C 
HETATM    7  C9  UNL     1      21.882  -0.018  54.320  1.00  0.00     0.308 A 
HETATM    8  O1  UNL     1      22.613  -0.764  55.011  1.00  0.00    -0.125 OA
HETATM    9  N2  UNL     1      23.091  -0.484  53.638  1.00  0.00     0.106 N 
HETATM   10  C10 UNL     1      24.297  -0.953  52.962  1.00  0.00     0.299 C 
HETATM   11  C11 UNL     1      25.332   0.153  53.068  1.00  0.00     0.034 A 
HETATM   12  C12 UNL     1      25.751   0.239  54.457  1.00  0.00     0.009 A 
HETATM   13  C13 UNL     1      26.854   0.070  55.146  1.00  0.00     0.113 A 
HETATM   14  N3  UNL     1      27.952  -0.299  54.308  1.00  0.00    -0.277 NA
HETATM   15  C14 UNL     1      27.690  -0.403  53.037  1.00  0.00     0.090 A 
HETATM   16  C15 UNL     1      26.483  -0.226  52.199  1.00  0.00     0.067 A 
HETATM   17  H9  UNL     1      22.777  -0.350  52.666  1.00  0.00     0.328 HD
ENDROOT
BRANCH   4  18
HETATM   18  C5  UNL     1      22.844   2.256  50.480  1.00  0.00     0.044 C 
BRANCH  18  19
HETATM   19  C6  UNL     1      23.461   3.154  49.772  1.00  0.00     0.189 C 
HETATM   20  F1  UNL     1      24.531   3.292  48.957  1.00  0.00    -0.219 F 
ENDBRANCH  18  19
ENDBRANCH   4  18
BRANCH   5  21
HETATM   21  N1  UNL     1      20.615   2.040  51.997  1.00  0.00    -0.398 N 
HETATM   22  H6  UNL     1      20.302   2.947  51.532  1.00  0.00     0.156 HD
HETATM   23  H7  UNL     1      19.661   1.596  52.145  1.00  0.00     0.156 HD
ENDBRANCH   5  21
TORSDOF 3
ENDMDL
MODEL 3
REMARK VINA RESULT:      -6.8      3.370      5.732
REMARK  3 active torsions:
REMARK  status: ('A' for Active; 'I' for Inactive)
REMARK    1  A    between atoms: C4_4  and  C5_5 
REMARK    2  A    between atoms: C5_5  and  C6_6 
REMARK    3  A    between atoms: C7_8  and  N1_9 
ROOT
HETATM    1  C1  UNL     1      23.863   3.769  53.153  1.00  0.00     0.045 C 
HETATM    2  C2  UNL     1      23.931   2.567  52.258  1.00  0.00    -0.057 C 
HETATM    3  C3  UNL     1      24.861   1.771  51.711  1.00  0.00    -0.009 C 
HETATM    4  C4  UNL     1      25.629   2.583  51.058  1.00  0.00     0.004 C 
HETATM    5  C7  UNL     1      25.754   3.667  50.112  1.00  0.00     0.041 C 
HETATM    6  C8  UNL     1      25.241   4.522  49.261  1.00  0.00     0.099 C 
HETATM    7  C9  UNL     1      23.728   4.345  49.138  1.00  0.00     0.308 A 
HETATM    8  O1  UNL     1      22.495   4.142  49.071  1.00  0.00    -0.125 OA
HETATM    9  N2  UNL     1      23.298   3.045  49.656  1.00  0.00     0.106 N 
HETATM   10  C10 UNL     1      22.863   1.750  50.171  1.00  0.00     0.299 C 
HETATM   11  C11 UNL     1      22.755   1.877  51.680  1.00  0.00     0.034 A 
HETATM   12  C12 UNL     1      21.623   2.740  51.975  1.00  0.00     0.009 A 
HETATM   13  C13 UNL     1      20.465   2.640  52.582  1.00  0.00     0.113 A 
HETATM   14  N3  UNL     1      20.248   1.327  53.101  1.00  0.00    -0.277 NA
HETATM   15  C14 UNL     1      21.205   0.467  52.897  1.00  0.00     0.090 A 
HETATM   16  C15 UNL     1      22.525   0.510  52.230  1.00  0.00     0.067 A 
HETATM   17  H9  UNL     1      24.195   2.546  49.577  1.00  0.00     0.328 HD
ENDROOT
BRANCH   4  18
HETATM   18  C5  UNL     1      26.904   2.180  51.603  1.00  0.00     0.044 C 
BRANCH  18  19
HETATM   19  C6  UNL     1      27.545   2.040  52.725  1.00  0.00     0.189 C 
HETATM   20  F1  UNL     1      28.302   2.747  53.593  1.00  0.00    -0.219 F 
ENDBRANCH  18  19
ENDBRANCH   4  18
BRANCH   5  21
HETATM   21  N1  UNL     1      27.002   4.243  49.855  1.00  0.00    -0.398 N 
HETATM   22  H6  UNL     1      28.043   4.019  49.806  1.00  0.00     0.156 HD
HETATM   23  H7  UNL     1      27.046   5.273  49.600  1.00  0.00     0.156 HD
ENDBRANCH   5  21
TORSDOF 3
ENDMDL
MODEL 4
REMARK VINA RESULT:      -6.7      1.964      4.556
REMARK  3 active torsions:
REMARK  status: ('A' for Active; 'I' for Inactive)
REMARK    1  A    between atoms: C4_4  and  C5_5 
REMARK    2  A    between atoms: C5_5  and  C6_6 
REMARK    3  A    between atoms: C7_8  and  N1_9 
ROOT
HETATM    1  C1  UNL     1      23.945   3.394  53.324  1.00  0.00     0.045 C 
HETATM    2  C2  UNL     1      24.213   2.359  52.273  1.00  0.00    -0.057 C 
HETATM    3  C3  UNL     1      24.064   1.038  52.100  1.00  0.00    -0.009 C 
HETATM    4  C4  UNL     1      24.697   0.514  53.100  1.00  0.00     0.004 C 
HETATM    5  C7  UNL     1      25.900   0.447  53.897  1.00  0.00     0.041 C 
HETATM    6  C8  UNL     1      27.137   0.797  54.152  1.00  0.00     0.099 C 
HETATM    7  C9  UNL     1      27.663   1.781  53.110  1.00  0.00     0.308 A 
HETATM    8  O1  UNL     1      28.041   2.573  52.217  1.00  0.00    -0.125 OA
HETATM    9  N2  UNL     1      26.842   1.767  51.898  1.00  0.00     0.106 N 
HETATM   10  C10 UNL     1      26.026   1.757  50.687  1.00  0.00     0.299 C 
HETATM   11  C11 UNL     1      24.817   2.636  50.949  1.00  0.00     0.034 A 
HETATM   12  C12 UNL     1      25.275   4.014  51.020  1.00  0.00     0.009 A 
HETATM   13  C13 UNL     1      25.091   5.128  50.354  1.00  0.00     0.113 A 
HETATM   14  N3  UNL     1      24.194   4.950  49.256  1.00  0.00    -0.277 NA
HETATM   15  C14 UNL     1      23.716   3.749  49.099  1.00  0.00     0.090 A 
HETATM   16  C15 UNL     1      23.877   2.458  49.806  1.00  0.00     0.067 A 
HETATM   17  H9  UNL     1      26.419   0.835  52.013  1.00  0.00     0.328 HD
ENDROOT
BRANCH   4  18
HETATM   18  C5  UNL     1      23.655  -0.349  53.605  1.00  0.00     0.044 C 
BRANCH  18  19
HETATM   19  C6  UNL     1      22.400  -0.357  53.941  1.00  0.00     0.189 C 
HETATM   20  F1  UNL     1      21.582   0.042  54.940  1.00  0.00    -0.219 F 
ENDBRANCH  18  19
ENDBRANCH   4  18
BRANCH   5  21
HETATM   21  N1  UNL     1      25.943  -0.346  55.048  1.00  0.00    -0.398 N 
HETATM   22  H6  UNL     1      26.073  -0.297  56.105  1.00  0.00     0.156 HD
HETATM   23  H7  UNL     1      25.802  -1.394  54.950  1.00  0.00     0.156 HD
ENDBRANCH   5  21
TORSDOF 3
ENDMDL
MODEL 5
REMARK VINA RESULT:      -6.4     10.583     12.421
REMARK  3 active torsions:
REMARK  status: ('A' for Active; 'I' for Inactive)
REMARK    1  A    between atoms: C4_4  and  C5_5 
REMARK    2  A    between atoms: C5_5  and  C6_6 
REMARK    3  A    between atoms: C7_8  and  N1_9 
ROOT
HETATM    1  C1  UNL     1      31.692   7.265  49.281  1.00  0.00     0.045 C 
HETATM    2  C2  UNL     1      32.139   7.048  47.865  1.00  0.00    -0.057 C 
HETATM    3  C3  UNL     1      32.426   6.025  47.047  1.00  0.00    -0.009 C 
HETATM    4  C4  UNL     1      33.341   5.362  47.677  1.00  0.00     0.004 C 
HETATM    5  C7  UNL     1      34.597   5.369  48.389  1.00  0.00     0.041 C 
HETATM    6  C8  UNL     1      35.664   5.981  48.842  1.00  0.00     0.099 C 
HETATM    7  C9  UNL     1      35.661   7.460  48.460  1.00  0.00     0.308 A 
HETATM    8  O1  UNL     1      35.610   8.659  48.103  1.00  0.00    -0.125 OA
HETATM    9  N2  UNL     1      34.724   7.729  47.367  1.00  0.00     0.106 N 
HETATM   10  C10 UNL     1      33.791   8.002  46.278  1.00  0.00     0.299 C 
HETATM   11  C11 UNL     1      32.408   8.128  46.890  1.00  0.00     0.034 A 
HETATM   12  C12 UNL     1      32.373   9.359  47.663  1.00  0.00     0.009 A 
HETATM   13  C13 UNL     1      31.722  10.497  47.638  1.00  0.00     0.113 A 
HETATM   14  N3  UNL     1      30.788  10.552  46.558  1.00  0.00    -0.277 NA
HETATM   15  C14 UNL     1      30.732   9.496  45.798  1.00  0.00     0.090 A 
HETATM   16  C15 UNL     1      31.426   8.190  45.768  1.00  0.00     0.067 A 
HETATM   17  H9  UNL     1      34.668   6.776  46.979  1.00  0.00     0.328 HD
ENDROOT
BRANCH   4  18
HETATM   18  C5  UNL     1      32.743   4.048  47.632  1.00  0.00     0.044 C 
BRANCH  18  19
HETATM   19  C6  UNL     1      32.366   3.117  46.808  1.00  0.00     0.189 C 
HETATM   20  F1  UNL     1      31.247   2.503  46.364  1.00  0.00    -0.219 F 
ENDBRANCH  18  19
ENDBRANCH   4  18
BRANCH   5  21
HETATM   21  N1  UNL     1      35.080   4.201  48.987  1.00  0.00    -0.398 N 
HETATM   22  H6  UNL     1      35.142   3.693  49.922  1.00  0.00     0.156 HD
HETATM   23  H7  UNL     1      35.577   3.485  48.380  1.00  0.00     0.156 HD
ENDBRANCH   5  21
TORSDOF 3
ENDMDL
MODEL 6
REMARK VINA RESULT:      -6.4      8.111      9.702
REMARK  3 active torsions:
REMARK  status: ('A' for Active; 'I' for Inactive)
REMARK    1  A    between atoms: C4_4  and  C5_5 
REMARK    2  A    between atoms: C5_5  and  C6_6 
REMARK    3  A    between atoms: C7_8  and  N1_9 
ROOT
HETATM    1  C1  UNL     1      28.938   7.885  46.007  1.00  0.00     0.045 C 
HETATM    2  C2  UNL     1      29.419   7.063  47.166  1.00  0.00    -0.057 C 
HETATM    3  C3  UNL     1      28.914   6.230  48.087  1.00  0.00    -0.009 C 
HETATM    4  C4  UNL     1      27.991   6.925  48.670  1.00  0.00     0.004 C 
HETATM    5  C7  UNL     1      27.600   8.155  49.318  1.00  0.00     0.041 C 
HETATM    6  C8  UNL     1      27.870   9.347  49.793  1.00  0.00     0.099 C 
HETATM    7  C9  UNL     1      29.347   9.695  49.616  1.00  0.00     0.308 A 
HETATM    8  O1  UNL     1      30.568   9.916  49.455  1.00  0.00    -0.125 OA
HETATM    9  N2  UNL     1      30.151   8.499  49.357  1.00  0.00     0.106 N 
HETATM   10  C10 UNL     1      30.958   7.310  49.098  1.00  0.00     0.299 C 
HETATM   11  C11 UNL     1      30.826   6.987  47.621  1.00  0.00     0.034 A 
HETATM   12  C12 UNL     1      31.525   8.021  46.875  1.00  0.00     0.009 A 
HETATM   13  C13 UNL     1      32.557   8.101  46.070  1.00  0.00     0.113 A 
HETATM   14  N3  UNL     1      33.168   6.827  45.861  1.00  0.00    -0.277 NA
HETATM   15  C14 UNL     1      32.620   5.822  46.481  1.00  0.00     0.090 A 
HETATM   16  C15 UNL     1      31.466   5.659  47.393  1.00  0.00     0.067 A 
HETATM   17  H9  UNL     1      29.511   7.797  49.756  1.00  0.00     0.328 HD
ENDROOT
BRANCH   4  18
HETATM   18  C5  UNL     1      26.891   5.999  48.541  1.00  0.00     0.044 C 
BRANCH  18  19
HETATM   19  C6  UNL     1      26.469   4.840  48.949  1.00  0.00     0.189 C 
HETATM   20  F1  UNL     1      26.878   3.556  49.058  1.00  0.00    -0.219 F 
ENDBRANCH  18  19
ENDBRANCH   4  18
BRANCH   5  21
HETATM   21  N1  UNL     1      26.270   8.366  49.694  1.00  0.00    -0.398 N 
HETATM   22  H6  UNL     1      25.555   8.123  50.447  1.00  0.00     0.156 HD
HETATM   23  H7  UNL     1      25.658   8.981  49.082  1.00  0.00     0.156 HD
ENDBRANCH   5  21
TORSDOF 3
ENDMDL
MODEL 7
REMARK VINA RESULT:      -6.3      2.904      3.909
REMARK  3 active torsions:
REMARK  status: ('A' for Active; 'I' for Inactive)
REMARK    1  A    between atoms: C4_4  and  C5_5 
REMARK    2  A    between atoms: C5_5  and  C6_6 
REMARK    3  A    between atoms: C7_8  and  N1_9 
ROOT
HETATM    1  C1  UNL     1      22.837   1.656  49.942  1.00  0.00     0.045 C 
HETATM    2  C2  UNL     1      23.038   2.099  51.361  1.00  0.00    -0.057 C 
HETATM    3  C3  UNL     1      22.459   1.933  52.558  1.00  0.00    -0.009 C 
HETATM    4  C4  UNL     1      21.236   2.313  52.375  1.00  0.00     0.004 C 
HETATM    5  C7  UNL     1      20.319   3.313  51.877  1.00  0.00     0.041 C 
HETATM    6  C8  UNL     1      20.064   4.480  51.339  1.00  0.00     0.099 C 
HETATM    7  C9  UNL     1      21.349   5.260  51.068  1.00  0.00     0.308 A 
HETATM    8  O1  UNL     1      22.435   5.855  50.884  1.00  0.00    -0.125 OA
HETATM    9  N2  UNL     1      22.475   4.718  51.831  1.00  0.00     0.106 N 
HETATM   10  C10 UNL     1      23.602   4.182  52.589  1.00  0.00     0.299 C 
HETATM   11  C11 UNL     1      24.132   2.984  51.822  1.00  0.00     0.034 A 
HETATM   12  C12 UNL     1      24.764   3.475  50.609  1.00  0.00     0.009 A 
HETATM   13  C13 UNL     1      25.964   3.487  50.081  1.00  0.00     0.113 A 
HETATM   14  N3  UNL     1      26.921   2.839  50.921  1.00  0.00    -0.277 NA
HETATM   15  C14 UNL     1      26.462   2.355  52.040  1.00  0.00     0.090 A 
HETATM   16  C15 UNL     1      25.135   2.304  52.692  1.00  0.00     0.067 A 
HETATM   17  H9  UNL     1      21.941   4.241  52.570  1.00  0.00     0.328 HD
ENDROOT
BRANCH   4  18
HETATM   18  C5  UNL     1      20.553   1.151  52.892  1.00  0.00     0.044 C 
BRANCH  18  19
HETATM   19  C6  UNL     1      20.542   0.327  53.896  1.00  0.00     0.189 C 
HETATM   20  F1  UNL     1      21.007   0.211  55.160  1.00  0.00    -0.219 F 
ENDBRANCH  18  19
ENDBRANCH   4  18
BRANCH   5  21
HETATM   21  N1  UNL     1      18.941   3.074  51.882  1.00  0.00    -0.398 N 
HETATM   22  H6  UNL     1      18.030   3.367  51.411  1.00  0.00     0.156 HD
HETATM   23  H7  UNL     1      18.550   2.353  52.556  1.00  0.00     0.156 HD
ENDBRANCH   5  21
TORSDOF 3
ENDMDL
MODEL 8
REMARK VINA RESULT:      -6.3      2.789      5.310
REMARK  3 active torsions:
REMARK  status: ('A' for Active; 'I' for Inactive)
REMARK    1  A    between atoms: C4_4  and  C5_5 
REMARK    2  A    between atoms: C5_5  and  C6_6 
REMARK    3  A    between atoms: C7_8  and  N1_9 
ROOT
HETATM    1  C1  UNL     1      23.522   4.417  52.490  1.00  0.00     0.045 C 
HETATM    2  C2  UNL     1      23.625   3.657  51.201  1.00  0.00    -0.057 C 
HETATM    3  C3  UNL     1      23.177   2.509  50.672  1.00  0.00    -0.009 C 
HETATM    4  C4  UNL     1      23.574   1.600  51.503  1.00  0.00     0.004 C 
HETATM    5  C7  UNL     1      24.650   1.024  52.277  1.00  0.00     0.041 C 
HETATM    6  C8  UNL     1      25.907   0.967  52.643  1.00  0.00     0.099 C 
HETATM    7  C9  UNL     1      26.745   2.019  51.919  1.00  0.00     0.308 A 
HETATM    8  O1  UNL     1      27.381   2.890  51.284  1.00  0.00    -0.125 OA
HETATM    9  N2  UNL     1      26.056   2.529  50.732  1.00  0.00     0.106 N 
HETATM   10  C10 UNL     1      25.372   3.042  49.548  1.00  0.00     0.299 C 
HETATM   11  C11 UNL     1      24.393   4.103  50.016  1.00  0.00     0.034 A 
HETATM   12  C12 UNL     1      25.161   5.251  50.469  1.00  0.00     0.009 A 
HETATM   13  C13 UNL     1      25.311   6.508  50.129  1.00  0.00     0.113 A 
HETATM   14  N3  UNL     1      24.498   6.855  49.006  1.00  0.00    -0.277 NA
HETATM   15  C14 UNL     1      23.761   5.899  48.518  1.00  0.00     0.090 A 
HETATM   16  C15 UNL     1      23.542   4.474  48.849  1.00  0.00     0.067 A 
HETATM   17  H9  UNL     1      25.413   1.739  50.580  1.00  0.00     0.328 HD
ENDROOT
BRANCH   4  18
HETATM   18  C5  UNL     1      22.314   0.933  51.733  1.00  0.00     0.044 C 
BRANCH  18  19
HETATM   19  C6  UNL     1      21.351   0.314  51.118  1.00  0.00     0.189 C 
HETATM   20  F1  UNL     1      20.332   0.552  50.263  1.00  0.00    -0.219 F 
ENDBRANCH  18  19
ENDBRANCH   4  18
BRANCH   5  21
HETATM   21  N1  UNL     1      24.399  -0.024  53.168  1.00  0.00    -0.398 N 
HETATM   22  H6  UNL     1      23.887  -0.260  54.073  1.00  0.00     0.156 HD
HETATM   23  H7  UNL     1      24.815  -0.979  52.963  1.00  0.00     0.156 HD
ENDBRANCH   5  21
TORSDOF 3
ENDMDL
MODEL 9
REMARK VINA RESULT:      -6.2      3.683      6.863
REMARK  3 active torsions:
REMARK  status: ('A' for Active; 'I' for Inactive)
REMARK    1  A    between atoms: C4_4  and  C5_5 
REMARK    2  A    between atoms: C5_5  and  C6_6 
REMARK    3  A    between atoms: C7_8  and  N1_9 
ROOT
HETATM    1  C1  UNL     1      21.557   0.559  49.955  1.00  0.00     0.045 C 
HETATM    2  C2  UNL     1      21.371   1.420  51.169  1.00  0.00    -0.057 C 
HETATM    3  C3  UNL     1      22.050   2.347  51.859  1.00  0.00    -0.009 C 
HETATM    4  C4  UNL     1      23.163   1.762  52.166  1.00  0.00     0.004 C 
HETATM    5  C7  UNL     1      23.836   0.609  52.718  1.00  0.00     0.041 C 
HETATM    6  C8  UNL     1      23.826  -0.564  53.302  1.00  0.00     0.099 C 
HETATM    7  C9  UNL     1      22.401  -1.029  53.593  1.00  0.00     0.308 A 
HETATM    8  O1  UNL     1      21.211  -1.348  53.818  1.00  0.00    -0.125 OA
HETATM    9  N2  UNL     1      21.453   0.086  53.538  1.00  0.00     0.106 N 
HETATM   10  C10 UNL     1      20.503   1.193  53.484  1.00  0.00     0.299 C 
HETATM   11  C11 UNL     1      20.161   1.424  52.023  1.00  0.00     0.034 A 
HETATM   12  C12 UNL     1      19.367   0.295  51.567  1.00  0.00     0.009 A 
HETATM   13  C13 UNL     1      18.155   0.086  51.115  1.00  0.00     0.113 A 
HETATM   14  N3  UNL     1      17.398   1.296  51.045  1.00  0.00    -0.277 NA
HETATM   15  C14 UNL     1      18.014   2.378  51.428  1.00  0.00     0.090 A 
HETATM   16  C15 UNL     1      19.367   2.684  51.942  1.00  0.00     0.067 A 
HETATM   17  H9  UNL     1      22.117   0.857  53.695  1.00  0.00     0.328 HD
ENDROOT
BRANCH   4  18
HETATM   18  C5  UNL     1      24.088   2.754  51.672  1.00  0.00     0.044 C 
BRANCH  18  19
HETATM   19  C6  UNL     1      24.610   3.218  50.577  1.00  0.00     0.189 C 
HETATM   20  F1  UNL     1      24.304   3.424  49.276  1.00  0.00    -0.219 F 
ENDBRANCH  18  19
ENDBRANCH   4  18
BRANCH   5  21
HETATM   21  N1  UNL     1      25.232   0.521  52.684  1.00  0.00    -0.398 N 
HETATM   22  H6  UNL     1      26.076   0.710  52.062  1.00  0.00     0.156 HD
HETATM   23  H7  UNL     1      25.740   0.149  53.540  1.00  0.00     0.156 HD
ENDBRANCH   5  21
TORSDOF 3
ENDMDL
