MODEL 1
REMARK VINA RESULT:      -7.1      0.000      0.000
REMARK  0 active torsions:
REMARK  status: ('A' for Active; 'I' for Inactive)
ROOT
HETATM    1 CL1  UNL     1      21.540   0.963  48.716  1.00  0.00    -0.081 Cl
HETATM    2  C1  UNL     1      21.738   1.675  50.325  1.00  0.00     0.070 C 
HETATM    3  C2  UNL     1      21.051   0.951  51.250  1.00  0.00     0.078 C 
HETATM    4  C3  UNL     1      20.821   1.330  52.675  1.00  0.00     0.145 C 
HETATM    5  N1  UNL     1      20.365   2.540  52.893  1.00  0.00    -0.267 NA
HETATM    6  C4  UNL     1      20.540   3.787  52.200  1.00  0.00     0.181 C 
HETATM    7  C5  UNL     1      21.791   3.874  51.391  1.00  0.00     0.033 C 
HETATM    8  C6  UNL     1      22.488   2.868  50.816  1.00  0.00     0.088 C 
HETATM    9  O1  UNL     1      23.842   3.191  50.814  1.00  0.00    -0.346 OA
HETATM   10  C7  UNL     1      24.825   2.157  50.634  1.00  0.00     0.204 C 
HETATM   11  C8  UNL     1      26.009   2.575  51.416  1.00  0.00     0.016 C 
HETATM   12  C9  UNL     1      26.445   1.805  52.395  1.00  0.00     0.017 A 
HETATM   13  S1  UNL     1      27.856   2.061  53.509  1.00  0.00    -0.104 SA
HETATM   14  C10 UNL     1      27.647   0.521  54.415  1.00  0.00     0.048 A 
HETATM   15  C11 UNL     1      26.591  -0.061  53.886  1.00  0.00     0.021 A 
HETATM   16  C12 UNL     1      25.824   0.515  52.794  1.00  0.00     0.283 A 
HETATM   17  N2  UNL     1      24.479   0.815  53.289  1.00  0.00     0.101 N 
HETATM   18  C13 UNL     1      23.648  -0.371  53.268  1.00  0.00     0.317 C 
HETATM   19  C14 UNL     1      22.282  -0.075  53.736  1.00  0.00     0.121 C 
HETATM   20  N3  UNL     1      21.091   0.438  53.779  1.00  0.00    -0.244 NA
HETATM   21  H11 UNL     1      24.620   1.178  54.265  1.00  0.00     0.317 HD
ENDROOT
TORSDOF 0
ENDMDL
MODEL 2
REMARK VINA RESULT:      -6.8      1.159      1.302
REMARK  0 active torsions:
REMARK  status: ('A' for Active; 'I' for Inactive)
ROOT
HETATM    1 CL1  UNL     1      22.696   2.380  48.104  1.00  0.00    -0.081 Cl
HETATM    2  C1  UNL     1      22.808   2.891  49.796  1.00  0.00     0.070 C 
HETATM    3  C2  UNL     1      21.858   2.264  50.543  1.00  0.00     0.078 C 
HETATM    4  C3  UNL     1      21.512   2.563  51.964  1.00  0.00     0.145 C 
HETATM    5  N1  UNL     1      21.296   3.823  52.262  1.00  0.00    -0.267 NA
HETATM    6  C4  UNL     1      21.829   5.052  51.741  1.00  0.00     0.181 C 
HETATM    7  C5  UNL     1      23.172   4.923  51.104  1.00  0.00     0.033 C 
HETATM    8  C6  UNL     1      23.715   3.839  50.507  1.00  0.00     0.088 C 
HETATM    9  O1  UNL     1      25.093   3.848  50.705  1.00  0.00    -0.346 OA
HETATM   10  C7  UNL     1      25.850   2.638  50.528  1.00  0.00     0.204 C 
HETATM   11  C8  UNL     1      26.971   2.711  51.490  1.00  0.00     0.016 C 
HETATM   12  C9  UNL     1      27.090   1.783  52.420  1.00  0.00     0.017 A 
HETATM   13  S1  UNL     1      28.350   1.619  53.719  1.00  0.00    -0.104 SA
HETATM   14  C10 UNL     1      27.693   0.096  54.411  1.00  0.00     0.048 A 
HETATM   15  C11 UNL     1      26.623  -0.187  53.696  1.00  0.00     0.021 A 
HETATM   16  C12 UNL     1      26.160   0.637  52.592  1.00  0.00     0.283 A 
HETATM   17  N2  UNL     1      24.853   1.189  52.953  1.00  0.00     0.101 N 
HETATM   18  C13 UNL     1      23.801   0.226  52.696  1.00  0.00     0.317 C 
HETATM   19  C14 UNL     1      22.476   0.782  53.026  1.00  0.00     0.121 C 
HETATM   20  N3  UNL     1      21.427   1.544  52.983  1.00  0.00    -0.244 NA
HETATM   21  H11 UNL     1      24.926   1.427  53.973  1.00  0.00     0.317 HD
ENDROOT
TORSDOF 0
ENDMDL
MODEL 3
REMARK VINA RESULT:      -6.7      1.855      3.010
REMARK  0 active torsions:
REMARK  status: ('A' for Active; 'I' for Inactive)
ROOT
HETATM    1 CL1  UNL     1      23.011   2.532  48.298  1.00  0.00    -0.081 Cl
HETATM    2  C1  UNL     1      22.907   3.075  49.980  1.00  0.00     0.070 C 
HETATM    3  C2  UNL     1      21.610   3.305  50.324  1.00  0.00     0.078 C 
HETATM    4  C3  UNL     1      21.130   3.943  51.584  1.00  0.00     0.145 C 
HETATM    5  N1  UNL     1      21.699   5.076  51.921  1.00  0.00    -0.267 NA
HETATM    6  C4  UNL     1      23.022   5.600  51.720  1.00  0.00     0.181 C 
HETATM    7  C5  UNL     1      24.075   4.560  51.530  1.00  0.00     0.033 C 
HETATM    8  C6  UNL     1      23.940   3.311  51.031  1.00  0.00     0.088 C 
HETATM    9  O1  UNL     1      24.855   2.466  51.653  1.00  0.00    -0.346 OA
HETATM   10  C7  UNL     1      24.661   1.042  51.607  1.00  0.00     0.204 C 
HETATM   11  C8  UNL     1      25.205   0.512  52.875  1.00  0.00     0.016 C 
HETATM   12  C9  UNL     1      24.410  -0.143  53.699  1.00  0.00     0.017 A 
HETATM   13  S1  UNL     1      24.798  -0.897  55.307  1.00  0.00    -0.104 SA
HETATM   14  C10 UNL     1      23.145  -1.541  55.602  1.00  0.00     0.048 A 
HETATM   15  C11 UNL     1      22.428  -1.170  54.562  1.00  0.00     0.021 A 
HETATM   16  C12 UNL     1      22.967  -0.397  53.455  1.00  0.00     0.283 A 
HETATM   17  N2  UNL     1      22.294   0.903  53.437  1.00  0.00     0.101 N 
HETATM   18  C13 UNL     1      21.012   0.809  52.768  1.00  0.00     0.317 C 
HETATM   19  C14 UNL     1      20.339   2.119  52.716  1.00  0.00     0.121 C 
HETATM   20  N3  UNL     1      20.105   3.360  52.419  1.00  0.00    -0.244 NA
HETATM   21  H11 UNL     1      22.190   1.174  54.446  1.00  0.00     0.317 HD
ENDROOT
TORSDOF 0
ENDMDL
MODEL 4
REMARK VINA RESULT:      -6.7      4.411      6.047
REMARK  0 active torsions:
REMARK  status: ('A' for Active; 'I' for Inactive)
ROOT
HETATM    1 CL1  UNL     1      21.735   3.909  49.049  1.00  0.00    -0.081 Cl
HETATM    2  C1  UNL     1      23.077   4.108  50.187  1.00  0.00     0.070 C 
HETATM    3  C2  UNL     1      23.976   3.096  50.041  1.00  0.00     0.078 C 
HETATM    4  C3  UNL     1      25.138   2.811  50.933  1.00  0.00     0.145 C 
HETATM    5  N1  UNL     1      24.890   2.762  52.220  1.00  0.00    -0.267 NA
HETATM    6  C4  UNL     1      23.937   3.440  53.056  1.00  0.00     0.181 C 
HETATM    7  C5  UNL     1      23.461   4.747  52.515  1.00  0.00     0.033 C 
HETATM    8  C6  UNL     1      23.378   5.139  51.224  1.00  0.00     0.088 C 
HETATM    9  O1  UNL     1      23.609   6.509  51.144  1.00  0.00    -0.346 OA
HETATM   10  C7  UNL     1      23.970   7.103  49.885  1.00  0.00     0.204 C 
HETATM   11  C8  UNL     1      24.863   8.237  50.206  1.00  0.00     0.016 C 
HETATM   12  C9  UNL     1      26.094   8.249  49.731  1.00  0.00     0.017 A 
HETATM   13  S1  UNL     1      27.396   9.495  49.958  1.00  0.00    -0.104 SA
HETATM   14  C10 UNL     1      28.621   8.658  48.942  1.00  0.00     0.048 A 
HETATM   15  C11 UNL     1      28.040   7.551  48.526  1.00  0.00     0.021 A 
HETATM   16  C12 UNL     1      26.679   7.182  48.878  1.00  0.00     0.283 A 
HETATM   17  N2  UNL     1      26.732   5.961  49.684  1.00  0.00     0.101 N 
HETATM   18  C13 UNL     1      26.846   4.791  48.837  1.00  0.00     0.317 C 
HETATM   19  C14 UNL     1      26.869   3.553  49.636  1.00  0.00     0.121 C 
HETATM   20  N3  UNL     1      26.479   2.610  50.436  1.00  0.00    -0.244 NA
HETATM   21  H11 UNL     1      27.569   6.078  50.306  1.00  0.00     0.317 HD
ENDROOT
TORSDOF 0
ENDMDL
MODEL 5
REMARK VINA RESULT:      -6.6      2.455      3.714
REMARK  0 active torsions:
REMARK  status: ('A' for Active; 'I' for Inactive)
ROOT
HETATM    1 CL1  UNL     1      20.261   3.606  52.290  1.00  0.00    -0.081 Cl
HETATM    2  C1  UNL     1      21.365   2.744  51.207  1.00  0.00     0.070 C 
HETATM    3  C2  UNL     1      21.931   3.610  50.321  1.00  0.00     0.078 C 
HETATM    4  C3  UNL     1      22.767   3.246  49.140  1.00  0.00     0.145 C 
HETATM    5  N1  UNL     1      22.282   2.327  48.340  1.00  0.00    -0.267 NA
HETATM    6  C4  UNL     1      21.438   1.185  48.564  1.00  0.00     0.181 C 
HETATM    7  C5  UNL     1      21.484   0.648  49.956  1.00  0.00     0.033 C 
HETATM    8  C6  UNL     1      21.763   1.310  51.101  1.00  0.00     0.088 C 
HETATM    9  O1  UNL     1      22.404   0.447  51.986  1.00  0.00    -0.346 OA
HETATM   10  C7  UNL     1      23.153   0.981  53.091  1.00  0.00     0.204 C 
HETATM   11  C8  UNL     1      24.268   0.039  53.325  1.00  0.00     0.016 C 
HETATM   12  C9  UNL     1      25.512   0.468  53.224  1.00  0.00     0.017 A 
HETATM   13  S1  UNL     1      27.062  -0.452  53.454  1.00  0.00    -0.104 SA
HETATM   14  C10 UNL     1      28.146   0.950  53.150  1.00  0.00     0.048 A 
HETATM   15  C11 UNL     1      27.348   1.965  52.890  1.00  0.00     0.021 A 
HETATM   16  C12 UNL     1      25.899   1.860  52.880  1.00  0.00     0.283 A 
HETATM   17  N2  UNL     1      25.433   2.115  51.515  1.00  0.00     0.101 N 
HETATM   18  C13 UNL     1      25.348   3.539  51.259  1.00  0.00     0.317 C 
HETATM   19  C14 UNL     1      24.851   3.808  49.898  1.00  0.00     0.121 C 
HETATM   20  N3  UNL     1      24.054   3.844  48.874  1.00  0.00    -0.244 NA
HETATM   21  H11 UNL     1      26.137   1.646  50.892  1.00  0.00     0.317 HD
ENDROOT
TORSDOF 0
ENDMDL
MODEL 6
REMARK VINA RESULT:      -6.4      4.987      6.299
REMARK  0 active torsions:
REMARK  status: ('A' for Active; 'I' for Inactive)
ROOT
HETATM    1 CL1  UNL     1      22.427   4.817  47.128  1.00  0.00    -0.081 Cl
HETATM    2  C1  UNL     1      23.322   5.160  48.617  1.00  0.00     0.070 C 
HETATM    3  C2  UNL     1      23.803   4.006  49.156  1.00  0.00     0.078 C 
HETATM    4  C3  UNL     1      24.446   3.857  50.495  1.00  0.00     0.145 C 
HETATM    5  N1  UNL     1      23.805   4.380  51.514  1.00  0.00    -0.267 NA
HETATM    6  C4  UNL     1      22.943   5.523  51.640  1.00  0.00     0.181 C 
HETATM    7  C5  UNL     1      23.155   6.574  50.603  1.00  0.00     0.033 C 
HETATM    8  C6  UNL     1      23.626   6.427  49.344  1.00  0.00     0.088 C 
HETATM    9  O1  UNL     1      24.340   7.567  48.984  1.00  0.00    -0.346 OA
HETATM   10  C7  UNL     1      25.262   7.517  47.883  1.00  0.00     0.204 C 
HETATM   11  C8  UNL     1      26.349   8.464  48.214  1.00  0.00     0.016 C 
HETATM   12  C9  UNL     1      27.587   8.020  48.319  1.00  0.00     0.017 A 
HETATM   13  S1  UNL     1      29.104   8.941  48.710  1.00  0.00    -0.104 SA
HETATM   14  C10 UNL     1      30.206   7.525  48.587  1.00  0.00     0.048 A 
HETATM   15  C11 UNL     1      29.434   6.498  48.297  1.00  0.00     0.021 A 
HETATM   16  C12 UNL     1      27.994   6.603  48.133  1.00  0.00     0.283 A 
HETATM   17  N2  UNL     1      27.356   5.824  49.196  1.00  0.00     0.101 N 
HETATM   18  C13 UNL     1      27.310   4.419  48.846  1.00  0.00     0.317 C 
HETATM   19  C14 UNL     1      26.641   3.629  49.896  1.00  0.00     0.121 C 
HETATM   20  N3  UNL     1      25.712   3.191  50.688  1.00  0.00    -0.244 NA
HETATM   21  H11 UNL     1      27.939   5.996  50.052  1.00  0.00     0.317 HD
ENDROOT
TORSDOF 0
ENDMDL
MODEL 7
REMARK VINA RESULT:      -6.1     10.329     12.607
REMARK  0 active torsions:
REMARK  status: ('A' for Active; 'I' for Inactive)
ROOT
HETATM    1 CL1  UNL     1      35.414   5.484  49.259  1.00  0.00    -0.081 Cl
HETATM    2  C1  UNL     1      34.137   5.634  48.042  1.00  0.00     0.070 C 
HETATM    3  C2  UNL     1      33.005   5.007  48.465  1.00  0.00     0.078 C 
HETATM    4  C3  UNL     1      31.779   4.753  47.653  1.00  0.00     0.145 C 
HETATM    5  N1  UNL     1      31.960   4.208  46.473  1.00  0.00    -0.267 NA
HETATM    6  C4  UNL     1      33.030   4.287  45.517  1.00  0.00     0.181 C 
HETATM    7  C5  UNL     1      33.857   5.525  45.616  1.00  0.00     0.033 C 
HETATM    8  C6  UNL     1      34.087   6.294  46.704  1.00  0.00     0.088 C 
HETATM    9  O1  UNL     1      34.235   7.620  46.307  1.00  0.00    -0.346 OA
HETATM   10  C7  UNL     1      34.091   8.677  47.271  1.00  0.00     0.204 C 
HETATM   11  C8  UNL     1      33.524   9.829  46.537  1.00  0.00     0.016 C 
HETATM   12  C9  UNL     1      32.358  10.324  46.907  1.00  0.00     0.017 A 
HETATM   13  S1  UNL     1      31.431  11.717  46.199  1.00  0.00    -0.104 SA
HETATM   14  C10 UNL     1      30.063  11.627  47.362  1.00  0.00     0.048 A 
HETATM   15  C11 UNL     1      30.340  10.615  48.158  1.00  0.00     0.021 A 
HETATM   16  C12 UNL     1      31.539   9.804  48.031  1.00  0.00     0.283 A 
HETATM   17  N2  UNL     1      31.132   8.442  47.679  1.00  0.00     0.101 N 
HETATM   18  C13 UNL     1      30.738   7.702  48.860  1.00  0.00     0.317 C 
HETATM   19  C14 UNL     1      30.356   6.319  48.521  1.00  0.00     0.121 C 
HETATM   20  N3  UNL     1      30.451   5.093  48.107  1.00  0.00    -0.244 NA
HETATM   21  H11 UNL     1      30.336   8.558  47.004  1.00  0.00     0.317 HD
ENDROOT
TORSDOF 0
ENDMDL
MODEL 8
REMARK VINA RESULT:      -5.9     10.639     12.419
REMARK  0 active torsions:
REMARK  status: ('A' for Active; 'I' for Inactive)
ROOT
HETATM    1 CL1  UNL     1      30.452  10.148  49.590  1.00  0.00    -0.081 Cl
HETATM    2  C1  UNL     1      31.066   9.507  48.058  1.00  0.00     0.070 C 
HETATM    3  C2  UNL     1      32.225  10.132  47.714  1.00  0.00     0.078 C 
HETATM    4  C3  UNL     1      32.946  10.004  46.413  1.00  0.00     0.145 C 
HETATM    5  N1  UNL     1      32.227  10.161  45.327  1.00  0.00    -0.267 NA
HETATM    6  C4  UNL     1      30.851   9.879  45.020  1.00  0.00     0.181 C 
HETATM    7  C5  UNL     1      30.235   8.816  45.866  1.00  0.00     0.033 C 
HETATM    8  C6  UNL     1      30.560   8.455  47.128  1.00  0.00     0.088 C 
HETATM    9  O1  UNL     1      30.337   7.090  47.288  1.00  0.00    -0.346 OA
HETATM   10  C7  UNL     1      30.961   6.386  48.375  1.00  0.00     0.204 C 
HETATM   11  C8  UNL     1      31.216   5.015  47.883  1.00  0.00     0.016 C 
HETATM   12  C9  UNL     1      32.454   4.559  47.842  1.00  0.00     0.017 A 
HETATM   13  S1  UNL     1      33.059   2.937  47.292  1.00  0.00    -0.104 SA
HETATM   14  C10 UNL     1      34.792   3.269  47.639  1.00  0.00     0.048 A 
HETATM   15  C11 UNL     1      34.832   4.501  48.101  1.00  0.00     0.021 A 
HETATM   16  C12 UNL     1      33.652   5.335  48.258  1.00  0.00     0.283 A 
HETATM   17  N2  UNL     1      33.772   6.472  47.344  1.00  0.00     0.101 N 
HETATM   18  C13 UNL     1      34.600   7.510  47.922  1.00  0.00     0.317 C 
HETATM   19  C14 UNL     1      34.703   8.674  47.024  1.00  0.00     0.121 C 
HETATM   20  N3  UNL     1      34.356   9.709  46.322  1.00  0.00    -0.244 NA
HETATM   21  H11 UNL     1      34.193   6.077  46.467  1.00  0.00     0.317 HD
ENDROOT
TORSDOF 0
ENDMDL
MODEL 9
REMARK VINA RESULT:      -5.9     21.463     23.978
REMARK  0 active torsions:
REMARK  status: ('A' for Active; 'I' for Inactive)
ROOT
HETATM    1 CL1  UNL     1      39.536  -3.417  70.436  1.00  0.00    -0.081 Cl
HETATM    2  C1  UNL     1      39.315  -2.098  69.277  1.00  0.00     0.070 C 
HETATM    3  C2  UNL     1      38.345  -1.245  69.709  1.00  0.00     0.078 C 
HETATM    4  C3  UNL     1      37.744  -0.123  68.931  1.00  0.00     0.145 C 
HETATM    5  N1  UNL     1      37.328  -0.406  67.719  1.00  0.00    -0.267 NA
HETATM    6  C4  UNL     1      37.778  -1.346  66.729  1.00  0.00     0.181 C 
HETATM    7  C5  UNL     1      39.211  -1.743  66.861  1.00  0.00     0.033 C 
HETATM    8  C6  UNL     1      39.973  -1.774  67.977  1.00  0.00     0.088 C 
HETATM    9  O1  UNL     1      41.290  -1.474  67.642  1.00  0.00    -0.346 OA
HETATM   10  C7  UNL     1      42.211  -1.053  68.663  1.00  0.00     0.204 C 
HETATM   11  C8  UNL     1      43.148  -0.114  68.009  1.00  0.00     0.016 C 
HETATM   12  C9  UNL     1      43.234   1.128  68.446  1.00  0.00     0.017 A 
HETATM   13  S1  UNL     1      44.283   2.483  67.844  1.00  0.00    -0.104 SA
HETATM   14  C10 UNL     1      43.721   3.692  69.051  1.00  0.00     0.048 A 
HETATM   15  C11 UNL     1      42.821   3.068  69.784  1.00  0.00     0.021 A 
HETATM   16  C12 UNL     1      42.439   1.683  69.573  1.00  0.00     0.283 A 
HETATM   17  N2  UNL     1      41.032   1.655  69.167  1.00  0.00     0.101 N 
HETATM   18  C13 UNL     1      40.163   1.734  70.323  1.00  0.00     0.317 C 
HETATM   19  C14 UNL     1      38.743   1.676  69.929  1.00  0.00     0.121 C 
HETATM   20  N3  UNL     1      37.627   1.220  69.450  1.00  0.00    -0.244 NA
HETATM   21  H11 UNL     1      40.913   2.481  68.529  1.00  0.00     0.317 HD
ENDROOT
TORSDOF 0
ENDMDL
