MODEL 1
REMARK VINA RESULT:      -8.5      0.000      0.000
REMARK  1 active torsions:
REMARK  status: ('A' for Active; 'I' for Inactive)
REMARK    1  A    between atoms: C3_4  and  C4_5 
ROOT
HETATM    1  C4  UNL     1      25.139   0.160  52.789  1.00  0.00     0.091 C 
HETATM    2  C5  UNL     1      24.040  -0.465  53.337  1.00  0.00     0.036 C 
HETATM    3  C6  UNL     1      22.805  -0.208  53.888  1.00  0.00     0.023 C 
HETATM    4  C7  UNL     1      21.612  -0.136  53.200  1.00  0.00     0.141 C 
HETATM    5  N2  UNL     1      20.847   0.585  52.336  1.00  0.00    -0.161 NA
HETATM    6  N3  UNL     1      21.431   0.909  51.205  1.00  0.00    -0.129 NA
HETATM    7  C8  UNL     1      22.606   1.484  51.067  1.00  0.00     0.190 C 
HETATM    8  N4  UNL     1      24.034   1.404  51.244  1.00  0.00    -0.190 N 
HETATM    9  N5  UNL     1      25.155   0.854  51.663  1.00  0.00    -0.159 NA
HETATM   10  S1  UNL     1      24.770   3.020  50.681  1.00  0.00    -0.045 SA
HETATM   11  C9  UNL     1      24.028   4.486  51.557  1.00  0.00     0.085 C 
HETATM   12  C10 UNL     1      24.386   5.548  50.530  1.00  0.00     0.095 C 
HETATM   13  C11 UNL     1      23.138   5.506  49.590  1.00  0.00    -0.011 C 
HETATM   14  C12 UNL     1      22.962   4.217  49.843  1.00  0.00    -0.037 C 
HETATM   15  C13 UNL     1      23.867   3.231  49.055  1.00  0.00     0.132 C 
HETATM   16  C14 UNL     1      22.474   2.869  50.437  1.00  0.00     0.022 C 
HETATM   17  C15 UNL     1      21.310   3.312  51.289  1.00  0.00     0.035 C 
HETATM   18  C16 UNL     1      21.725   4.443  52.475  1.00  0.00     0.118 C 
HETATM   19  N6  UNL     1      23.059   5.028  52.715  1.00  0.00    -0.257 NA
ENDROOT
BRANCH   1  20
HETATM   20  C3  UNL     1      26.351   0.012  53.552  1.00  0.00     0.031 A 
HETATM   21  C2  UNL     1      27.552  -0.393  53.012  1.00  0.00     0.127 A 
HETATM   22  N1  UNL     1      28.513  -0.442  53.955  1.00  0.00    -0.285 N 
HETATM   23  C1  UNL     1      29.916  -0.815  53.828  1.00  0.00     0.179 C 
HETATM   24  N7  UNL     1      27.937  -0.074  55.090  1.00  0.00    -0.185 NA
HETATM   25  C17 UNL     1      26.649   0.204  54.886  1.00  0.00     0.154 A 
ENDBRANCH   1  20
TORSDOF 1
ENDMDL
MODEL 2
REMARK VINA RESULT:      -8.4      2.021      3.941
REMARK  1 active torsions:
REMARK  status: ('A' for Active; 'I' for Inactive)
REMARK    1  A    between atoms: C3_4  and  C4_5 
ROOT
HETATM    1  C4  UNL     1      25.689   1.640  52.159  1.00  0.00     0.091 C 
HETATM    2  C5  UNL     1      26.416   2.462  51.325  1.00  0.00     0.036 C 
HETATM    3  C6  UNL     1      26.445   2.954  50.040  1.00  0.00     0.023 C 
HETATM    4  C7  UNL     1      25.852   4.123  49.608  1.00  0.00     0.141 C 
HETATM    5  N2  UNL     1      24.685   4.757  49.316  1.00  0.00    -0.161 NA
HETATM    6  N3  UNL     1      23.783   4.741  50.271  1.00  0.00    -0.129 NA
HETATM    7  C8  UNL     1      23.356   3.685  50.929  1.00  0.00     0.190 C 
HETATM    8  N4  UNL     1      23.660   2.606  51.834  1.00  0.00    -0.190 N 
HETATM    9  N5  UNL     1      24.451   1.854  52.572  1.00  0.00    -0.159 NA
HETATM   10  S1  UNL     1      22.120   1.576  52.030  1.00  0.00    -0.045 SA
HETATM   11  C9  UNL     1      21.456   0.968  50.400  1.00  0.00     0.085 C 
HETATM   12  C10 UNL     1      20.024   0.710  50.840  1.00  0.00     0.095 C 
HETATM   13  C11 UNL     1      19.358   2.097  50.569  1.00  0.00    -0.011 C 
HETATM   14  C12 UNL     1      20.502   2.720  50.814  1.00  0.00    -0.037 C 
HETATM   15  C13 UNL     1      20.863   2.934  52.309  1.00  0.00     0.132 C 
HETATM   16  C14 UNL     1      21.876   3.426  50.663  1.00  0.00     0.022 C 
HETATM   17  C15 UNL     1      21.954   3.628  49.169  1.00  0.00     0.035 C 
HETATM   18  C16 UNL     1      21.849   2.194  48.280  1.00  0.00     0.118 C 
HETATM   19  N6  UNL     1      21.665   0.831  48.815  1.00  0.00    -0.257 NA
ENDROOT
BRANCH   1  20
HETATM   20  C3  UNL     1      26.389   0.458  52.589  1.00  0.00     0.031 A 
HETATM   21  C2  UNL     1      27.750   0.407  52.801  1.00  0.00     0.127 A 
HETATM   22  N1  UNL     1      28.131  -0.823  53.198  1.00  0.00    -0.285 N 
HETATM   23  C1  UNL     1      29.460  -1.317  53.529  1.00  0.00     0.179 C 
HETATM   24  N7  UNL     1      27.028  -1.556  53.241  1.00  0.00    -0.185 NA
HETATM   25  C17 UNL     1      25.973  -0.825  52.884  1.00  0.00     0.154 A 
ENDBRANCH   1  20
TORSDOF 1
ENDMDL
MODEL 3
REMARK VINA RESULT:      -8.0      1.878      2.325
REMARK  1 active torsions:
REMARK  status: ('A' for Active; 'I' for Inactive)
REMARK    1  A    between atoms: C3_4  and  C4_5 
ROOT
HETATM    1  C4  UNL     1      23.737   0.579  52.764  1.00  0.00     0.091 C 
HETATM    2  C5  UNL     1      22.858  -0.009  53.649  1.00  0.00     0.036 C 
HETATM    3  C6  UNL     1      21.635   0.178  54.253  1.00  0.00     0.023 C 
HETATM    4  C7  UNL     1      20.419  -0.251  53.764  1.00  0.00     0.141 C 
HETATM    5  N2  UNL     1      19.449  -0.070  52.827  1.00  0.00    -0.161 NA
HETATM    6  N3  UNL     1      19.866  -0.074  51.581  1.00  0.00    -0.129 NA
HETATM    7  C8  UNL     1      20.855   0.634  51.082  1.00  0.00     0.190 C 
HETATM    8  N4  UNL     1      22.269   0.915  51.066  1.00  0.00    -0.190 N 
HETATM    9  N5  UNL     1      23.514   0.796  51.480  1.00  0.00    -0.159 NA
HETATM   10  S1  UNL     1      22.556   2.322  49.880  1.00  0.00    -0.045 SA
HETATM   11  C9  UNL     1      21.540   3.826  50.296  1.00  0.00     0.085 C 
HETATM   12  C10 UNL     1      21.566   4.483  48.925  1.00  0.00     0.095 C 
HETATM   13  C11 UNL     1      20.308   3.847  48.250  1.00  0.00    -0.011 C 
HETATM   14  C12 UNL     1      20.463   2.735  48.954  1.00  0.00    -0.037 C 
HETATM   15  C13 UNL     1      21.528   1.732  48.431  1.00  0.00     0.132 C 
HETATM   16  C14 UNL     1      20.354   1.632  50.041  1.00  0.00     0.022 C 
HETATM   17  C15 UNL     1      19.174   2.113  50.849  1.00  0.00     0.035 C 
HETATM   18  C16 UNL     1      19.378   3.660  51.499  1.00  0.00     0.118 C 
HETATM   19  N6  UNL     1      20.544   4.549  51.325  1.00  0.00    -0.257 NA
ENDROOT
BRANCH   1  20
HETATM   20  C3  UNL     1      24.995   0.970  53.346  1.00  0.00     0.031 A 
HETATM   21  C2  UNL     1      25.947   0.077  53.785  1.00  0.00     0.127 A 
HETATM   22  N1  UNL     1      27.021   0.722  54.281  1.00  0.00    -0.285 N 
HETATM   23  C1  UNL     1      28.248   0.177  54.847  1.00  0.00     0.179 C 
HETATM   24  N7  UNL     1      26.763   2.016  54.163  1.00  0.00    -0.185 NA
HETATM   25  C17 UNL     1      25.564   2.199  53.610  1.00  0.00     0.154 A 
ENDBRANCH   1  20
TORSDOF 1
ENDMDL
MODEL 4
REMARK VINA RESULT:      -7.6      2.556      5.615
REMARK  1 active torsions:
REMARK  status: ('A' for Active; 'I' for Inactive)
REMARK    1  A    between atoms: C3_4  and  C4_5 
ROOT
HETATM    1  C4  UNL     1      20.749   1.169  52.862  1.00  0.00     0.091 C 
HETATM    2  C5  UNL     1      21.884   0.540  53.329  1.00  0.00     0.036 C 
HETATM    3  C6  UNL     1      23.178   0.229  52.975  1.00  0.00     0.023 C 
HETATM    4  C7  UNL     1      24.291   1.006  53.219  1.00  0.00     0.141 C 
HETATM    5  N2  UNL     1      24.978   2.133  52.888  1.00  0.00    -0.161 NA
HETATM    6  N3  UNL     1      24.283   3.247  52.937  1.00  0.00    -0.129 NA
HETATM    7  C8  UNL     1      23.117   3.469  52.371  1.00  0.00     0.190 C 
HETATM    8  N4  UNL     1      21.715   3.144  52.297  1.00  0.00    -0.190 N 
HETATM    9  N5  UNL     1      20.631   2.459  52.598  1.00  0.00    -0.159 NA
HETATM   10  S1  UNL     1      20.965   4.165  50.930  1.00  0.00    -0.045 SA
HETATM   11  C9  UNL     1      21.836   3.926  49.302  1.00  0.00     0.085 C 
HETATM   12  C10 UNL     1      21.398   5.222  48.638  1.00  0.00     0.095 C 
HETATM   13  C11 UNL     1      22.536   6.199  49.077  1.00  0.00    -0.011 C 
HETATM   14  C12 UNL     1      22.704   5.530  50.209  1.00  0.00    -0.037 C 
HETATM   15  C13 UNL     1      21.693   5.838  51.348  1.00  0.00     0.132 C 
HETATM   16  C14 UNL     1      23.217   4.551  51.299  1.00  0.00     0.022 C 
HETATM   17  C15 UNL     1      24.477   4.017  50.663  1.00  0.00     0.035 C 
HETATM   18  C16 UNL     1      24.223   3.267  49.170  1.00  0.00     0.118 C 
HETATM   19  N6  UNL     1      22.938   3.124  48.456  1.00  0.00    -0.257 NA
ENDROOT
BRANCH   1  20
HETATM   20  C3  UNL     1      19.623   0.294  52.663  1.00  0.00     0.031 A 
HETATM   21  C2  UNL     1      19.367  -0.815  53.440  1.00  0.00     0.127 A 
HETATM   22  N1  UNL     1      18.249  -1.445  53.028  1.00  0.00    -0.285 N 
HETATM   23  C1  UNL     1      17.616  -2.645  53.557  1.00  0.00     0.179 C 
HETATM   24  N7  UNL     1      17.792  -0.750  51.997  1.00  0.00    -0.185 NA
HETATM   25  C17 UNL     1      18.586   0.292  51.753  1.00  0.00     0.154 A 
ENDBRANCH   1  20
TORSDOF 1
ENDMDL
MODEL 5
REMARK VINA RESULT:      -7.5      2.535      4.738
REMARK  1 active torsions:
REMARK  status: ('A' for Active; 'I' for Inactive)
REMARK    1  A    between atoms: C3_4  and  C4_5 
ROOT
HETATM    1  C4  UNL     1      24.743   2.667  52.070  1.00  0.00     0.091 C 
HETATM    2  C5  UNL     1      25.914   2.714  51.343  1.00  0.00     0.036 C 
HETATM    3  C6  UNL     1      26.392   2.864  50.061  1.00  0.00     0.023 C 
HETATM    4  C7  UNL     1      26.731   4.058  49.460  1.00  0.00     0.141 C 
HETATM    5  N2  UNL     1      26.276   5.218  48.915  1.00  0.00    -0.161 NA
HETATM    6  N3  UNL     1      25.472   5.920  49.682  1.00  0.00    -0.129 NA
HETATM    7  C8  UNL     1      24.401   5.479  50.306  1.00  0.00     0.190 C 
HETATM    8  N4  UNL     1      23.846   4.610  51.312  1.00  0.00    -0.190 N 
HETATM    9  N5  UNL     1      23.889   3.664  52.228  1.00  0.00    -0.159 NA
HETATM   10  S1  UNL     1      21.993   4.801  51.270  1.00  0.00    -0.045 SA
HETATM   11  C9  UNL     1      21.280   4.476  49.581  1.00  0.00     0.085 C 
HETATM   12  C10 UNL     1      19.974   5.234  49.755  1.00  0.00     0.095 C 
HETATM   13  C11 UNL     1      20.378   6.668  49.284  1.00  0.00    -0.011 C 
HETATM   14  C12 UNL     1      21.621   6.481  49.706  1.00  0.00    -0.037 C 
HETATM   15  C13 UNL     1      21.867   6.668  51.228  1.00  0.00     0.132 C 
HETATM   16  C14 UNL     1      23.136   6.151  49.778  1.00  0.00     0.022 C 
HETATM   17  C15 UNL     1      23.490   6.013  48.318  1.00  0.00     0.035 C 
HETATM   18  C16 UNL     1      22.595   4.829  47.508  1.00  0.00     0.118 C 
HETATM   19  N6  UNL     1      21.527   3.982  48.075  1.00  0.00    -0.257 NA
ENDROOT
BRANCH   1  20
HETATM   20  C3  UNL     1      24.478   1.396  52.691  1.00  0.00     0.031 A 
HETATM   21  C2  UNL     1      23.211   0.901  52.914  1.00  0.00     0.127 A 
HETATM   22  N1  UNL     1      23.263  -0.307  53.508  1.00  0.00    -0.285 N 
HETATM   23  C1  UNL     1      22.174  -1.182  53.921  1.00  0.00     0.179 C 
HETATM   24  N7  UNL     1      24.548  -0.587  53.666  1.00  0.00    -0.185 NA
HETATM   25  C17 UNL     1      25.299   0.406  53.191  1.00  0.00     0.154 A 
ENDBRANCH   1  20
TORSDOF 1
ENDMDL
MODEL 6
REMARK VINA RESULT:      -7.1      4.088      6.270
REMARK  1 active torsions:
REMARK  status: ('A' for Active; 'I' for Inactive)
REMARK    1  A    between atoms: C3_4  and  C4_5 
ROOT
HETATM    1  C4  UNL     1      24.770   5.654  49.191  1.00  0.00     0.091 C 
HETATM    2  C5  UNL     1      24.134   6.491  48.300  1.00  0.00     0.036 C 
HETATM    3  C6  UNL     1      23.152   6.508  47.335  1.00  0.00     0.023 C 
HETATM    4  C7  UNL     1      21.816   6.779  47.546  1.00  0.00     0.141 C 
HETATM    5  N2  UNL     1      20.639   6.331  48.058  1.00  0.00    -0.161 NA
HETATM    6  N3  UNL     1      20.682   5.952  49.315  1.00  0.00    -0.129 NA
HETATM    7  C8  UNL     1      21.544   5.116  49.853  1.00  0.00     0.190 C 
HETATM    8  N4  UNL     1      22.912   4.830  50.203  1.00  0.00    -0.190 N 
HETATM    9  N5  UNL     1      24.209   5.058  50.229  1.00  0.00    -0.159 NA
HETATM   10  S1  UNL     1      22.964   3.126  50.953  1.00  0.00    -0.045 SA
HETATM   11  C9  UNL     1      22.235   1.830  49.833  1.00  0.00     0.085 C 
HETATM   12  C10 UNL     1      21.923   0.787  50.893  1.00  0.00     0.095 C 
HETATM   13  C11 UNL     1      20.477   1.199  51.322  1.00  0.00    -0.011 C 
HETATM   14  C12 UNL     1      20.736   2.471  51.055  1.00  0.00    -0.037 C 
HETATM   15  C13 UNL     1      21.523   3.256  52.140  1.00  0.00     0.132 C 
HETATM   16  C14 UNL     1      20.850   3.853  50.359  1.00  0.00     0.022 C 
HETATM   17  C15 UNL     1      19.992   3.652  49.134  1.00  0.00     0.035 C 
HETATM   18  C16 UNL     1      20.497   2.375  48.149  1.00  0.00     0.118 C 
HETATM   19  N6  UNL     1      21.634   1.464  48.391  1.00  0.00    -0.257 NA
ENDROOT
BRANCH   1  20
HETATM   20  C3  UNL     1      26.169   5.446  48.919  1.00  0.00     0.031 A 
HETATM   21  C2  UNL     1      27.007   6.423  48.428  1.00  0.00     0.127 A 
HETATM   22  N1  UNL     1      28.259   5.950  48.270  1.00  0.00    -0.285 N 
HETATM   23  C1  UNL     1      29.451   6.631  47.783  1.00  0.00     0.179 C 
HETATM   24  N7  UNL     1      28.226   4.683  48.656  1.00  0.00    -0.185 NA
HETATM   25  C17 UNL     1      26.997   4.350  49.048  1.00  0.00     0.154 A 
ENDBRANCH   1  20
TORSDOF 1
ENDMDL
MODEL 7
REMARK VINA RESULT:      -7.0     11.493     13.499
REMARK  1 active torsions:
REMARK  status: ('A' for Active; 'I' for Inactive)
REMARK    1  A    between atoms: C3_4  and  C4_5 
ROOT
HETATM    1  C4  UNL     1      33.617   5.024  43.936  1.00  0.00     0.091 C 
HETATM    2  C5  UNL     1      34.192   4.073  44.751  1.00  0.00     0.036 C 
HETATM    3  C6  UNL     1      35.041   3.932  45.826  1.00  0.00     0.023 C 
HETATM    4  C7  UNL     1      34.668   3.911  47.153  1.00  0.00     0.141 C 
HETATM    5  N2  UNL     1      34.218   4.636  48.213  1.00  0.00    -0.161 NA
HETATM    6  N3  UNL     1      33.123   5.328  47.995  1.00  0.00    -0.129 NA
HETATM    7  C8  UNL     1      32.902   6.152  46.994  1.00  0.00     0.190 C 
HETATM    8  N4  UNL     1      32.745   6.332  45.573  1.00  0.00    -0.190 N 
HETATM    9  N5  UNL     1      32.749   5.947  44.313  1.00  0.00    -0.159 NA
HETATM   10  S1  UNL     1      32.505   8.152  45.253  1.00  0.00    -0.045 SA
HETATM   11  C9  UNL     1      33.887   9.187  45.950  1.00  0.00     0.085 C 
HETATM   12  C10 UNL     1      33.139  10.509  46.030  1.00  0.00     0.095 C 
HETATM   13  C11 UNL     1      32.510  10.426  47.458  1.00  0.00    -0.011 C 
HETATM   14  C12 UNL     1      32.430   9.106  47.372  1.00  0.00    -0.037 C 
HETATM   15  C13 UNL     1      31.229   8.540  46.567  1.00  0.00     0.132 C 
HETATM   16  C14 UNL     1      32.720   7.586  47.486  1.00  0.00     0.022 C 
HETATM   17  C15 UNL     1      33.888   7.567  48.442  1.00  0.00     0.035 C 
HETATM   18  C16 UNL     1      35.223   8.453  47.905  1.00  0.00     0.118 C 
HETATM   19  N6  UNL     1      35.326   9.233  46.655  1.00  0.00    -0.257 NA
ENDROOT
BRANCH   1  20
HETATM   20  C3  UNL     1      34.035   4.960  42.559  1.00  0.00     0.031 A 
HETATM   21  C2  UNL     1      35.033   5.746  42.024  1.00  0.00     0.127 A 
HETATM   22  N1  UNL     1      35.212   5.472  40.716  1.00  0.00    -0.285 N 
HETATM   23  C1  UNL     1      36.150   6.059  39.769  1.00  0.00     0.179 C 
HETATM   24  N7  UNL     1      34.341   4.522  40.414  1.00  0.00    -0.185 NA
HETATM   25  C17 UNL     1      33.624   4.193  41.488  1.00  0.00     0.154 A 
ENDBRANCH   1  20
TORSDOF 1
ENDMDL
MODEL 8
REMARK VINA RESULT:      -6.9      8.417     11.493
REMARK  1 active torsions:
REMARK  status: ('A' for Active; 'I' for Inactive)
REMARK    1  A    between atoms: C3_4  and  C4_5 
ROOT
HETATM    1  C4  UNL     1      28.546   9.019  48.941  1.00  0.00     0.091 C 
HETATM    2  C5  UNL     1      27.853   7.831  48.844  1.00  0.00     0.036 C 
HETATM    3  C6  UNL     1      27.743   6.696  48.073  1.00  0.00     0.023 C 
HETATM    4  C7  UNL     1      28.446   5.523  48.257  1.00  0.00     0.141 C 
HETATM    5  N2  UNL     1      29.650   4.899  48.156  1.00  0.00    -0.161 NA
HETATM    6  N3  UNL     1      30.647   5.501  48.763  1.00  0.00    -0.129 NA
HETATM    7  C8  UNL     1      30.990   6.765  48.642  1.00  0.00     0.190 C 
HETATM    8  N4  UNL     1      30.641   8.150  48.840  1.00  0.00    -0.190 N 
HETATM    9  N5  UNL     1      29.842   9.143  49.171  1.00  0.00    -0.159 NA
HETATM   10  S1  UNL     1      32.026   9.190  48.154  1.00  0.00    -0.045 SA
HETATM   11  C9  UNL     1      32.395   8.801  46.371  1.00  0.00     0.085 C 
HETATM   12  C10 UNL     1      33.815   9.340  46.328  1.00  0.00     0.095 C 
HETATM   13  C11 UNL     1      34.641   8.082  46.750  1.00  0.00    -0.011 C 
HETATM   14  C12 UNL     1      33.638   7.647  47.500  1.00  0.00    -0.037 C 
HETATM   15  C13 UNL     1      33.493   8.300  48.902  1.00  0.00     0.132 C 
HETATM   16  C14 UNL     1      32.374   6.907  48.014  1.00  0.00     0.022 C 
HETATM   17  C15 UNL     1      32.149   5.890  46.922  1.00  0.00     0.035 C 
HETATM   18  C16 UNL     1      31.936   6.570  45.389  1.00  0.00     0.118 C 
HETATM   19  N6  UNL     1      31.981   8.004  45.041  1.00  0.00    -0.257 NA
ENDROOT
BRANCH   1  20
HETATM   20  C3  UNL     1      27.736  10.196  48.767  1.00  0.00     0.031 A 
HETATM   21  C2  UNL     1      28.252  11.460  48.577  1.00  0.00     0.127 A 
HETATM   22  N1  UNL     1      27.265  12.368  48.443  1.00  0.00    -0.285 N 
HETATM   23  C1  UNL     1      27.355  13.806  48.228  1.00  0.00     0.179 C 
HETATM   24  N7  UNL     1      26.128  11.697  48.547  1.00  0.00    -0.185 NA
HETATM   25  C17 UNL     1      26.372  10.401  48.740  1.00  0.00     0.154 A 
ENDBRANCH   1  20
TORSDOF 1
ENDMDL
MODEL 9
REMARK VINA RESULT:      -6.8      9.199     11.284
REMARK  1 active torsions:
REMARK  status: ('A' for Active; 'I' for Inactive)
REMARK    1  A    between atoms: C3_4  and  C4_5 
ROOT
HETATM    1  C4  UNL     1      33.189   7.477  48.383  1.00  0.00     0.091 C 
HETATM    2  C5  UNL     1      33.999   8.453  47.843  1.00  0.00     0.036 C 
HETATM    3  C6  UNL     1      34.058   9.376  46.823  1.00  0.00     0.023 C 
HETATM    4  C7  UNL     1      33.624  10.683  46.890  1.00  0.00     0.141 C 
HETATM    5  N2  UNL     1      32.550  11.517  46.940  1.00  0.00    -0.161 NA
HETATM    6  N3  UNL     1      31.686  11.261  47.896  1.00  0.00    -0.129 NA
HETATM    7  C8  UNL     1      31.134  10.098  48.164  1.00  0.00     0.190 C 
HETATM    8  N4  UNL     1      31.309   8.733  48.593  1.00  0.00    -0.190 N 
HETATM    9  N5  UNL     1      32.008   7.673  48.944  1.00  0.00    -0.159 NA
HETATM   10  S1  UNL     1      29.645   7.898  48.530  1.00  0.00    -0.045 SA
HETATM   11  C9  UNL     1      28.850   8.016  46.851  1.00  0.00     0.085 C 
HETATM   12  C10 UNL     1      27.411   7.790  47.283  1.00  0.00     0.095 C 
HETATM   13  C11 UNL     1      26.941   9.250  47.584  1.00  0.00    -0.011 C 
HETATM   14  C12 UNL     1      28.169   9.596  47.942  1.00  0.00    -0.037 C 
HETATM   15  C13 UNL     1      28.604   9.201  49.380  1.00  0.00     0.132 C 
HETATM   16  C14 UNL     1      29.624  10.136  47.943  1.00  0.00     0.022 C 
HETATM   17  C15 UNL     1      29.683  10.861  46.621  1.00  0.00     0.035 C 
HETATM   18  C16 UNL     1      29.347   9.877  45.288  1.00  0.00     0.118 C 
HETATM   19  N6  UNL     1      28.987   8.445  45.311  1.00  0.00    -0.257 NA
ENDROOT
BRANCH   1  20
HETATM   20  C3  UNL     1      33.727   6.144  48.301  1.00  0.00     0.031 A 
HETATM   21  C2  UNL     1      32.993   5.044  47.915  1.00  0.00     0.127 A 
HETATM   22  N1  UNL     1      33.751   3.930  47.929  1.00  0.00    -0.285 N 
HETATM   23  C1  UNL     1      33.386   2.559  47.597  1.00  0.00     0.179 C 
HETATM   24  N7  UNL     1      34.959   4.309  48.319  1.00  0.00    -0.185 NA
HETATM   25  C17 UNL     1      34.980   5.621  48.549  1.00  0.00     0.154 A 
ENDBRANCH   1  20
TORSDOF 1
ENDMDL
