MODEL 1
REMARK VINA RESULT:      -7.3      0.000      0.000
REMARK  2 active torsions:
REMARK  status: ('A' for Active; 'I' for Inactive)
REMARK    1  A    between atoms: C2_2  and  C3_3 
REMARK    2  A    between atoms: C3_3  and  O1_4 
ROOT
HETATM    1  C3  UNL     1      22.843   3.343  51.697  1.00  0.00     0.138 C 
HETATM    2  C4  UNL     1      22.510   1.877  51.822  1.00  0.00    -0.042 C 
HETATM    3  C5  UNL     1      21.693   1.150  51.085  1.00  0.00    -0.017 C 
HETATM    4  C6  UNL     1      21.028   1.262  49.759  1.00  0.00     0.056 C 
HETATM    5  C7  UNL     1      22.056   1.608  48.732  1.00  0.00    -0.006 C 
HETATM    6  C8  UNL     1      22.927   2.555  48.542  1.00  0.00     0.081 C 
HETATM    7  N1  UNL     1      23.599   3.519  49.344  1.00  0.00    -0.374 N 
HETATM    8  C9  UNL     1      23.964   3.563  50.727  1.00  0.00     0.247 C 
HETATM    9  N2  UNL     1      24.974   2.597  50.970  1.00  0.00    -0.276 NA
HETATM   10  C10 UNL     1      26.201   2.707  50.744  1.00  0.00     0.086 C 
HETATM   11  C11 UNL     1      26.695   1.387  51.204  1.00  0.00     0.046 C 
HETATM   12  C12 UNL     1      27.159   1.522  52.640  1.00  0.00     0.007 C 
HETATM   13  C13 UNL     1      27.496   0.159  53.224  1.00  0.00     0.019 C 
HETATM   14  C14 UNL     1      26.244  -0.704  53.271  1.00  0.00     0.113 C 
HETATM   15  N3  UNL     1      25.307  -0.105  54.146  1.00  0.00    -0.421 N 
HETATM   16  C15 UNL     1      24.003  -0.640  54.212  1.00  0.00     0.114 C 
HETATM   17  C16 UNL     1      23.206  -0.326  52.907  1.00  0.00     0.023 C 
HETATM   18  C17 UNL     1      23.142   1.132  52.865  1.00  0.00     0.039 C 
HETATM   19  H10 UNL     1      23.858   4.351  48.742  1.00  0.00     0.161 HD
HETATM   20  H21 UNL     1      25.474   0.835  54.492  1.00  0.00     0.153 HD
ENDROOT
BRANCH   1  21
HETATM   21  C2  UNL     1      21.643   4.171  51.421  1.00  0.00     0.009 C 
HETATM   22  C1  UNL     1      21.866   5.472  51.619  1.00  0.00     0.010 C 
ENDBRANCH   1  21
BRANCH   1  23
HETATM   23  O1  UNL     1      23.345   3.747  52.935  1.00  0.00    -0.377 OA
HETATM   24  H4  UNL     1      23.801   3.056  53.440  1.00  0.00     0.211 HD
ENDBRANCH   1  23
TORSDOF 2
ENDMDL
MODEL 2
REMARK VINA RESULT:      -6.8      2.235      4.287
REMARK  2 active torsions:
REMARK  status: ('A' for Active; 'I' for Inactive)
REMARK    1  A    between atoms: C2_2  and  C3_3 
REMARK    2  A    between atoms: C3_3  and  O1_4 
ROOT
HETATM    1  C3  UNL     1      22.278   2.379  49.922  1.00  0.00     0.138 C 
HETATM    2  C4  UNL     1      23.375   2.450  50.954  1.00  0.00    -0.042 C 
HETATM    3  C5  UNL     1      24.072   3.500  51.348  1.00  0.00    -0.017 C 
HETATM    4  C6  UNL     1      23.959   4.980  51.260  1.00  0.00     0.056 C 
HETATM    5  C7  UNL     1      22.600   5.387  51.729  1.00  0.00    -0.006 C 
HETATM    6  C8  UNL     1      21.367   5.125  51.409  1.00  0.00     0.081 C 
HETATM    7  N1  UNL     1      20.673   4.085  50.731  1.00  0.00    -0.374 N 
HETATM    8  C9  UNL     1      20.943   2.695  50.527  1.00  0.00     0.247 C 
HETATM    9  N2  UNL     1      20.832   2.015  51.767  1.00  0.00    -0.276 NA
HETATM   10  C10 UNL     1      19.783   1.628  52.330  1.00  0.00     0.086 C 
HETATM   11  C11 UNL     1      20.331   1.009  53.561  1.00  0.00     0.046 C 
HETATM   12  C12 UNL     1      20.501  -0.477  53.316  1.00  0.00     0.007 C 
HETATM   13  C13 UNL     1      21.238  -1.130  54.476  1.00  0.00     0.019 C 
HETATM   14  C14 UNL     1      22.646  -0.561  54.575  1.00  0.00     0.113 C 
HETATM   15  N3  UNL     1      23.358  -0.894  53.398  1.00  0.00    -0.421 N 
HETATM   16  C15 UNL     1      24.632  -0.323  53.192  1.00  0.00     0.114 C 
HETATM   17  C16 UNL     1      24.513   1.200  52.867  1.00  0.00     0.023 C 
HETATM   18  C17 UNL     1      23.744   1.244  51.626  1.00  0.00     0.039 C 
HETATM   19  H10 UNL     1      19.783   4.478  50.311  1.00  0.00     0.161 HD
HETATM   20  H21 UNL     1      22.862  -1.292  52.606  1.00  0.00     0.153 HD
ENDROOT
BRANCH   1  21
HETATM   21  C2  UNL     1      22.590   3.180  48.713  1.00  0.00     0.009 C 
HETATM   22  C1  UNL     1      22.322   2.521  47.583  1.00  0.00     0.010 C 
ENDBRANCH   1  21
BRANCH   1  23
HETATM   23  O1  UNL     1      22.192   1.045  49.521  1.00  0.00    -0.377 OA
HETATM   24  H4  UNL     1      23.007   0.530  49.625  1.00  0.00     0.211 HD
ENDBRANCH   1  23
TORSDOF 2
ENDMDL
MODEL 3
REMARK VINA RESULT:      -6.7      2.642      4.718
REMARK  2 active torsions:
REMARK  status: ('A' for Active; 'I' for Inactive)
REMARK    1  A    between atoms: C2_2  and  C3_3 
REMARK    2  A    between atoms: C3_3  and  O1_4 
ROOT
HETATM    1  C3  UNL     1      22.234   2.708  52.027  1.00  0.00     0.138 C 
HETATM    2  C4  UNL     1      22.954   2.451  50.727  1.00  0.00    -0.042 C 
HETATM    3  C5  UNL     1      22.546   1.759  49.680  1.00  0.00    -0.017 C 
HETATM    4  C6  UNL     1      21.260   1.230  49.156  1.00  0.00     0.056 C 
HETATM    5  C7  UNL     1      20.257   2.337  49.134  1.00  0.00    -0.006 C 
HETATM    6  C8  UNL     1      19.738   3.165  49.993  1.00  0.00     0.081 C 
HETATM    7  N1  UNL     1      20.092   3.692  51.265  1.00  0.00    -0.374 N 
HETATM    8  C9  UNL     1      21.343   3.909  51.925  1.00  0.00     0.247 C 
HETATM    9  N2  UNL     1      22.045   4.943  51.257  1.00  0.00    -0.276 NA
HETATM   10  C10 UNL     1      21.879   6.178  51.380  1.00  0.00     0.086 C 
HETATM   11  C11 UNL     1      22.894   6.699  50.433  1.00  0.00     0.046 C 
HETATM   12  C12 UNL     1      24.161   7.003  51.207  1.00  0.00     0.007 C 
HETATM   13  C13 UNL     1      25.295   7.358  50.258  1.00  0.00     0.019 C 
HETATM   14  C14 UNL     1      25.623   6.161  49.378  1.00  0.00     0.113 C 
HETATM   15  N3  UNL     1      26.089   5.105  50.197  1.00  0.00    -0.421 N 
HETATM   16  C15 UNL     1      26.290   3.834  49.616  1.00  0.00     0.114 C 
HETATM   17  C16 UNL     1      24.925   3.160  49.268  1.00  0.00     0.023 C 
HETATM   18  C17 UNL     1      24.257   3.015  50.558  1.00  0.00     0.039 C 
HETATM   19  H10 UNL     1      19.209   3.962  51.786  1.00  0.00     0.161 HD
HETATM   20  H21 UNL     1      26.008   5.179  51.207  1.00  0.00     0.153 HD
ENDROOT
BRANCH   1  21
HETATM   21  C2  UNL     1      21.548   1.497  52.539  1.00  0.00     0.009 C 
HETATM   22  C1  UNL     1      22.345   0.744  53.301  1.00  0.00     0.010 C 
ENDBRANCH   1  21
BRANCH   1  23
HETATM   23  O1  UNL     1      23.210   3.054  52.963  1.00  0.00    -0.377 OA
HETATM   24  H4  UNL     1      23.142   3.955  53.316  1.00  0.00     0.211 HD
ENDBRANCH   1  23
TORSDOF 2
ENDMDL
MODEL 4
REMARK VINA RESULT:      -6.5      6.617      9.240
REMARK  2 active torsions:
REMARK  status: ('A' for Active; 'I' for Inactive)
REMARK    1  A    between atoms: C2_2  and  C3_3 
REMARK    2  A    between atoms: C3_3  and  O1_4 
ROOT
HETATM    1  C3  UNL     1      29.575   7.778  47.042  1.00  0.00     0.138 C 
HETATM    2  C4  UNL     1      29.288   6.522  47.825  1.00  0.00    -0.042 C 
HETATM    3  C5  UNL     1      30.141   5.693  48.397  1.00  0.00    -0.017 C 
HETATM    4  C6  UNL     1      31.570   5.708  48.806  1.00  0.00     0.056 C 
HETATM    5  C7  UNL     1      31.825   6.935  49.620  1.00  0.00    -0.006 C 
HETATM    6  C8  UNL     1      31.701   8.220  49.463  1.00  0.00     0.081 C 
HETATM    7  N1  UNL     1      30.950   9.094  48.629  1.00  0.00    -0.374 N 
HETATM    8  C9  UNL     1      29.698   8.965  47.948  1.00  0.00     0.247 C 
HETATM    9  N2  UNL     1      28.654   8.918  48.907  1.00  0.00    -0.276 NA
HETATM   10  C10 UNL     1      28.121   9.884  49.499  1.00  0.00     0.086 C 
HETATM   11  C11 UNL     1      27.126   9.185  50.347  1.00  0.00     0.046 C 
HETATM   12  C12 UNL     1      25.799   9.170  49.617  1.00  0.00     0.007 C 
HETATM   13  C13 UNL     1      24.792   8.300  50.354  1.00  0.00     0.019 C 
HETATM   14  C14 UNL     1      25.275   6.857  50.371  1.00  0.00     0.113 C 
HETATM   15  N3  UNL     1      25.332   6.379  49.040  1.00  0.00    -0.421 N 
HETATM   16  C15 UNL     1      25.918   5.118  48.797  1.00  0.00     0.114 C 
HETATM   17  C16 UNL     1      27.465   5.176  49.000  1.00  0.00     0.023 C 
HETATM   18  C17 UNL     1      27.923   6.136  48.000  1.00  0.00     0.039 C 
HETATM   19  H10 UNL     1      31.473  10.009  48.525  1.00  0.00     0.161 HD
HETATM   20  H21 UNL     1      25.221   7.029  48.267  1.00  0.00     0.153 HD
ENDROOT
BRANCH   1  21
HETATM   21  C2  UNL     1      30.721   7.614  46.114  1.00  0.00     0.009 C 
HETATM   22  C1  UNL     1      30.516   8.217  44.941  1.00  0.00     0.010 C 
ENDBRANCH   1  21
BRANCH   1  23
HETATM   23  O1  UNL     1      28.446   8.029  46.260  1.00  0.00    -0.377 OA
HETATM   24  H4  UNL     1      27.839   8.697  46.615  1.00  0.00     0.211 HD
ENDBRANCH   1  23
TORSDOF 2
ENDMDL
MODEL 5
REMARK VINA RESULT:      -6.5      8.732     11.770
REMARK  2 active torsions:
REMARK  status: ('A' for Active; 'I' for Inactive)
REMARK    1  A    between atoms: C2_2  and  C3_3 
REMARK    2  A    between atoms: C3_3  and  O1_4 
ROOT
HETATM    1  C3  UNL     1      33.583   6.480  47.918  1.00  0.00     0.138 C 
HETATM    2  C4  UNL     1      33.328   6.460  46.431  1.00  0.00    -0.042 C 
HETATM    3  C5  UNL     1      33.730   5.577  45.536  1.00  0.00    -0.017 C 
HETATM    4  C6  UNL     1      34.268   4.191  45.536  1.00  0.00     0.056 C 
HETATM    5  C7  UNL     1      33.369   3.326  46.359  1.00  0.00    -0.006 C 
HETATM    6  C8  UNL     1      32.924   3.312  47.581  1.00  0.00     0.081 C 
HETATM    7  N1  UNL     1      32.752   4.256  48.631  1.00  0.00    -0.374 N 
HETATM    8  C9  UNL     1      32.556   5.674  48.654  1.00  0.00     0.247 C 
HETATM    9  N2  UNL     1      31.275   5.972  48.123  1.00  0.00    -0.276 NA
HETATM   10  C10 UNL     1      30.173   5.908  48.715  1.00  0.00     0.086 C 
HETATM   11  C11 UNL     1      29.247   6.332  47.638  1.00  0.00     0.046 C 
HETATM   12  C12 UNL     1      28.999   7.820  47.776  1.00  0.00     0.007 C 
HETATM   13  C13 UNL     1      28.209   8.345  46.587  1.00  0.00     0.019 C 
HETATM   14  C14 UNL     1      29.026   8.175  45.314  1.00  0.00     0.113 C 
HETATM   15  N3  UNL     1      30.195   8.968  45.411  1.00  0.00    -0.421 N 
HETATM   16  C15 UNL     1      31.188   8.834  44.417  1.00  0.00     0.114 C 
HETATM   17  C16 UNL     1      31.927   7.465  44.550  1.00  0.00     0.023 C 
HETATM   18  C17 UNL     1      32.549   7.518  45.869  1.00  0.00     0.039 C 
HETATM   19  H10 UNL     1      32.787   3.751  49.561  1.00  0.00     0.161 HD
HETATM   20  H21 UNL     1      30.438   9.397  46.298  1.00  0.00     0.153 HD
ENDROOT
BRANCH   1  21
HETATM   21  C2  UNL     1      34.981   6.116  48.254  1.00  0.00     0.009 C 
HETATM   22  C1  UNL     1      35.727   7.182  48.551  1.00  0.00     0.010 C 
ENDBRANCH   1  21
BRANCH   1  23
HETATM   23  O1  UNL     1      33.388   7.796  48.339  1.00  0.00    -0.377 OA
HETATM   24  H4  UNL     1      32.812   8.329  47.771  1.00  0.00     0.211 HD
ENDBRANCH   1  23
TORSDOF 2
ENDMDL
MODEL 6
REMARK VINA RESULT:      -6.3      1.935      4.098
REMARK  2 active torsions:
REMARK  status: ('A' for Active; 'I' for Inactive)
REMARK    1  A    between atoms: C2_2  and  C3_3 
REMARK    2  A    between atoms: C3_3  and  O1_4 
ROOT
HETATM    1  C3  UNL     1      23.085   3.685  49.191  1.00  0.00     0.138 C 
HETATM    2  C4  UNL     1      24.363   3.951  49.947  1.00  0.00    -0.042 C 
HETATM    3  C5  UNL     1      24.903   5.109  50.275  1.00  0.00    -0.017 C 
HETATM    4  C6  UNL     1      24.468   6.528  50.367  1.00  0.00     0.056 C 
HETATM    5  C7  UNL     1      23.212   6.596  51.174  1.00  0.00    -0.006 C 
HETATM    6  C8  UNL     1      22.020   6.079  51.119  1.00  0.00     0.081 C 
HETATM    7  N1  UNL     1      21.411   4.944  50.516  1.00  0.00    -0.374 N 
HETATM    8  C9  UNL     1      21.905   3.662  50.115  1.00  0.00     0.247 C 
HETATM    9  N2  UNL     1      22.245   2.915  51.271  1.00  0.00    -0.276 NA
HETATM   10  C10 UNL     1      21.470   2.273  52.017  1.00  0.00     0.086 C 
HETATM   11  C11 UNL     1      22.420   1.734  53.019  1.00  0.00     0.046 C 
HETATM   12  C12 UNL     1      22.827   0.339  52.592  1.00  0.00     0.007 C 
HETATM   13  C13 UNL     1      23.945  -0.187  53.479  1.00  0.00     0.019 C 
HETATM   14  C14 UNL     1      25.185   0.678  53.311  1.00  0.00     0.113 C 
HETATM   15  N3  UNL     1      25.639   0.573  51.975  1.00  0.00    -0.421 N 
HETATM   16  C15 UNL     1      26.677   1.426  51.542  1.00  0.00     0.114 C 
HETATM   17  C16 UNL     1      26.170   2.897  51.410  1.00  0.00     0.023 C 
HETATM   18  C17 UNL     1      25.128   2.827  50.389  1.00  0.00     0.039 C 
HETATM   19  H10 UNL     1      20.384   5.147  50.353  1.00  0.00     0.161 HD
HETATM   20  H21 UNL     1      25.057   0.112  51.281  1.00  0.00     0.153 HD
ENDROOT
BRANCH   1  21
HETATM   21  C2  UNL     1      22.918   4.594  48.031  1.00  0.00     0.009 C 
HETATM   22  C1  UNL     1      22.121   4.080  47.092  1.00  0.00     0.010 C 
ENDBRANCH   1  21
BRANCH   1  23
HETATM   23  O1  UNL     1      23.181   2.388  48.686  1.00  0.00    -0.377 OA
HETATM   24  H4  UNL     1      23.679   1.766  49.239  1.00  0.00     0.211 HD
ENDBRANCH   1  23
TORSDOF 2
ENDMDL
MODEL 7
REMARK VINA RESULT:      -6.1      2.811      5.735
REMARK  2 active torsions:
REMARK  status: ('A' for Active; 'I' for Inactive)
REMARK    1  A    between atoms: C2_2  and  C3_3 
REMARK    2  A    between atoms: C3_3  and  O1_4 
ROOT
HETATM    1  C3  UNL     1      24.311   4.439  50.026  1.00  0.00     0.138 C 
HETATM    2  C4  UNL     1      23.831   3.055  50.384  1.00  0.00    -0.042 C 
HETATM    3  C5  UNL     1      24.164   2.308  51.419  1.00  0.00    -0.017 C 
HETATM    4  C6  UNL     1      24.813   2.503  52.742  1.00  0.00     0.056 C 
HETATM    5  C7  UNL     1      24.133   3.629  53.451  1.00  0.00    -0.006 C 
HETATM    6  C8  UNL     1      23.886   4.885  53.219  1.00  0.00     0.081 C 
HETATM    7  N1  UNL     1      23.799   5.729  52.078  1.00  0.00    -0.374 N 
HETATM    8  C9  UNL     1      23.486   5.491  50.703  1.00  0.00     0.247 C 
HETATM    9  N2  UNL     1      22.117   5.137  50.594  1.00  0.00    -0.276 NA
HETATM   10  C10 UNL     1      21.131   5.908  50.583  1.00  0.00     0.086 C 
HETATM   11  C11 UNL     1      20.014   4.942  50.454  1.00  0.00     0.046 C 
HETATM   12  C12 UNL     1      19.663   4.808  48.986  1.00  0.00     0.007 C 
HETATM   13  C13 UNL     1      18.655   3.689  48.776  1.00  0.00     0.019 C 
HETATM   14  C14 UNL     1      19.274   2.358  49.179  1.00  0.00     0.113 C 
HETATM   15  N3  UNL     1      20.370   2.087  48.325  1.00  0.00    -0.421 N 
HETATM   16  C15 UNL     1      21.205   0.988  48.622  1.00  0.00     0.114 C 
HETATM   17  C16 UNL     1      22.071   1.274  49.889  1.00  0.00     0.023 C 
HETATM   18  C17 UNL     1      22.885   2.427  49.516  1.00  0.00     0.039 C 
HETATM   19  H10 UNL     1      24.022   6.725  52.365  1.00  0.00     0.161 HD
HETATM   20  H21 UNL     1      20.711   2.811  47.700  1.00  0.00     0.153 HD
ENDROOT
BRANCH   1  21
HETATM   21  C2  UNL     1      25.771   4.599  50.235  1.00  0.00     0.009 C 
HETATM   22  C1  UNL     1      26.491   3.961  49.309  1.00  0.00     0.010 C 
ENDBRANCH   1  21
BRANCH   1  23
HETATM   23  O1  UNL     1      24.071   4.605  48.661  1.00  0.00    -0.377 OA
HETATM   24  H4  UNL     1      23.871   3.790  48.176  1.00  0.00     0.211 HD
ENDBRANCH   1  23
TORSDOF 2
ENDMDL
MODEL 8
REMARK VINA RESULT:      -6.1      2.958      5.177
REMARK  2 active torsions:
REMARK  status: ('A' for Active; 'I' for Inactive)
REMARK    1  A    between atoms: C2_2  and  C3_3 
REMARK    2  A    between atoms: C3_3  and  O1_4 
ROOT
HETATM    1  C3  UNL     1      22.289   6.255  50.416  1.00  0.00     0.138 C 
HETATM    2  C4  UNL     1      22.308   5.656  49.032  1.00  0.00    -0.042 C 
HETATM    3  C5  UNL     1      23.061   5.987  48.000  1.00  0.00    -0.017 C 
HETATM    4  C6  UNL     1      24.311   6.757  47.762  1.00  0.00     0.056 C 
HETATM    5  C7  UNL     1      25.366   6.262  48.697  1.00  0.00    -0.006 C 
HETATM    6  C8  UNL     1      25.511   6.137  49.984  1.00  0.00     0.081 C 
HETATM    7  N1  UNL     1      24.657   6.052  51.118  1.00  0.00    -0.374 N 
HETATM    8  C9  UNL     1      23.309   5.606  51.301  1.00  0.00     0.247 C 
HETATM    9  N2  UNL     1      23.256   4.202  51.106  1.00  0.00    -0.276 NA
HETATM   10  C10 UNL     1      23.559   3.309  51.929  1.00  0.00     0.086 C 
HETATM   11  C11 UNL     1      23.293   2.086  51.134  1.00  0.00     0.046 C 
HETATM   12  C12 UNL     1      21.890   1.606  51.446  1.00  0.00     0.007 C 
HETATM   13  C13 UNL     1      21.494   0.469  50.517  1.00  0.00     0.019 C 
HETATM   14  C14 UNL     1      21.453   0.969  49.081  1.00  0.00     0.113 C 
HETATM   15  N3  UNL     1      20.446   1.958  48.969  1.00  0.00    -0.421 N 
HETATM   16  C15 UNL     1      20.343   2.688  47.766  1.00  0.00     0.114 C 
HETATM   17  C16 UNL     1      21.540   3.679  47.612  1.00  0.00     0.023 C 
HETATM   18  C17 UNL     1      21.409   4.581  48.753  1.00  0.00     0.039 C 
HETATM   19  H10 UNL     1      25.177   6.404  51.971  1.00  0.00     0.161 HD
HETATM   20  H21 UNL     1      20.007   2.325  49.809  1.00  0.00     0.153 HD
ENDROOT
BRANCH   1  21
HETATM   21  C2  UNL     1      22.377   7.736  50.389  1.00  0.00     0.009 C 
HETATM   22  C1  UNL     1      21.227   8.307  50.024  1.00  0.00     0.010 C 
ENDBRANCH   1  21
BRANCH   1  23
HETATM   23  O1  UNL     1      21.054   5.927  50.977  1.00  0.00    -0.377 OA
HETATM   24  H4  UNL     1      21.098   5.448  51.819  1.00  0.00     0.211 HD
ENDBRANCH   1  23
TORSDOF 2
ENDMDL
MODEL 9
REMARK VINA RESULT:      -6.1      2.555      4.897
REMARK  2 active torsions:
REMARK  status: ('A' for Active; 'I' for Inactive)
REMARK    1  A    between atoms: C2_2  and  C3_3 
REMARK    2  A    between atoms: C3_3  and  O1_4 
ROOT
HETATM    1  C3  UNL     1      24.760   5.117  49.138  1.00  0.00     0.138 C 
HETATM    2  C4  UNL     1      24.403   5.214  50.600  1.00  0.00    -0.042 C 
HETATM    3  C5  UNL     1      24.114   6.288  51.311  1.00  0.00    -0.017 C 
HETATM    4  C6  UNL     1      23.721   7.697  51.047  1.00  0.00     0.056 C 
HETATM    5  C7  UNL     1      22.568   7.705  50.096  1.00  0.00    -0.006 C 
HETATM    6  C8  UNL     1      22.321   7.255  48.900  1.00  0.00     0.081 C 
HETATM    7  N1  UNL     1      22.845   6.247  48.045  1.00  0.00    -0.374 N 
HETATM    8  C9  UNL     1      23.532   5.015  48.286  1.00  0.00     0.247 C 
HETATM    9  N2  UNL     1      22.634   4.095  48.886  1.00  0.00    -0.276 NA
HETATM   10  C10 UNL     1      21.773   3.390  48.313  1.00  0.00     0.086 C 
HETATM   11  C11 UNL     1      21.181   2.670  49.466  1.00  0.00     0.046 C 
HETATM   12  C12 UNL     1      21.880   1.333  49.608  1.00  0.00     0.007 C 
HETATM   13  C13 UNL     1      21.447   0.635  50.888  1.00  0.00     0.019 C 
HETATM   14  C14 UNL     1      21.876   1.459  52.093  1.00  0.00     0.113 C 
HETATM   15  N3  UNL     1      23.290   1.526  52.122  1.00  0.00    -0.421 N 
HETATM   16  C15 UNL     1      23.909   2.384  53.055  1.00  0.00     0.114 C 
HETATM   17  C16 UNL     1      23.700   3.880  52.660  1.00  0.00     0.023 C 
HETATM   18  C17 UNL     1      24.355   4.005  51.361  1.00  0.00     0.039 C 
HETATM   19  H10 UNL     1      22.662   6.518  47.037  1.00  0.00     0.161 HD
HETATM   20  H21 UNL     1      23.824   1.196  51.323  1.00  0.00     0.153 HD
ENDROOT
BRANCH   1  21
HETATM   21  C2  UNL     1      25.694   6.190  48.715  1.00  0.00     0.009 C 
HETATM   22  C1  UNL     1      26.959   5.768  48.653  1.00  0.00     0.010 C 
ENDBRANCH   1  21
BRANCH   1  23
HETATM   23  O1  UNL     1      25.426   3.902  48.969  1.00  0.00    -0.377 OA
HETATM   24  H4  UNL     1      24.947   3.121  49.286  1.00  0.00     0.211 HD
ENDBRANCH   1  23
TORSDOF 2
ENDMDL
