MODEL 1
REMARK VINA RESULT:      -8.6      0.000      0.000
REMARK  6 active torsions:
REMARK  status: ('A' for Active; 'I' for Inactive)
REMARK    1  A    between atoms: N1_7  and  C7_8 
REMARK    2  A    between atoms: C7_8  and  C8_9 
REMARK       I    between atoms: C8_9  and  N2_11 
REMARK    3  A    between atoms: N2_11  and  C9_12 
REMARK    4  A    between atoms: C13_16  and  C14_17 
REMARK    5  A    between atoms: C14_17  and  O2_18 
REMARK    6  A    between atoms: C14_17  and  C15_19 
ROOT
HETATM    1  C9  UNL     1      24.086   2.461  51.887  1.00  0.00     0.035 A 
HETATM    2  C10 UNL     1      24.653   2.792  50.656  1.00  0.00     0.029 A 
HETATM    3  C11 UNL     1      25.994   2.821  50.398  1.00  0.00     0.003 A 
HETATM    4  C12 UNL     1      26.839   2.501  51.439  1.00  0.00     0.010 A 
HETATM    5  C13 UNL     1      26.361   2.164  52.684  1.00  0.00    -0.023 A 
HETATM    6  C21 UNL     1      24.977   2.147  52.894  1.00  0.00     0.039 A 
ENDROOT
BRANCH   1   7
HETATM    7  N2  UNL     1      22.686   2.439  52.124  1.00  0.00    -0.326 N 
HETATM    8  C8  UNL     1      21.651   1.683  51.536  1.00  0.00     0.240 C 
HETATM    9  O1  UNL     1      21.949   0.853  50.625  1.00  0.00    -0.271 OA
HETATM   10  H11 UNL     1      22.681   3.168  52.877  1.00  0.00     0.169 HD
BRANCH   8  11
HETATM   11  C7  UNL     1      20.360   2.068  52.172  1.00  0.00     0.226 C 
BRANCH  11  12
HETATM   12  N1  UNL     1      19.467   0.948  52.292  1.00  0.00    -0.372 N 
HETATM   13  C2  UNL     1      19.661  -0.036  53.302  1.00  0.00     0.004 A 
HETATM   14  C1  UNL     1      20.805   0.057  54.276  1.00  0.00     0.068 C 
HETATM   15  C3  UNL     1      18.808  -1.041  53.364  1.00  0.00     0.024 A 
HETATM   16  C4  UNL     1      17.701  -1.136  52.424  1.00  0.00    -0.001 A 
HETATM   17  C5  UNL     1      17.509  -0.223  51.475  1.00  0.00    -0.007 A 
HETATM   18  C6  UNL     1      18.407   0.938  51.324  1.00  0.00     0.150 A 
ENDBRANCH  11  12
ENDBRANCH   8  11
ENDBRANCH   1   7
BRANCH   5  19
HETATM   19  C14 UNL     1      27.263   1.815  53.815  1.00  0.00     0.184 C 
BRANCH  19  20
HETATM   20  O2  UNL     1      28.229   2.787  54.060  1.00  0.00    -0.386 OA
HETATM   21  H16 UNL     1      29.087   2.559  53.631  1.00  0.00     0.210 HD
ENDBRANCH  19  20
BRANCH  19  22
HETATM   22  C15 UNL     1      27.858   0.487  53.558  1.00  0.00    -0.025 A 
HETATM   23  C16 UNL     1      29.238   0.424  53.771  1.00  0.00     0.010 A 
HETATM   24  C17 UNL     1      29.866  -0.795  53.548  1.00  0.00     0.001 A 
HETATM   25  C18 UNL     1      29.187  -1.922  53.133  1.00  0.00     0.000 A 
HETATM   26  C19 UNL     1      27.810  -1.842  52.924  1.00  0.00     0.001 A 
HETATM   27  C20 UNL     1      27.173  -0.644  53.140  1.00  0.00     0.010 A 
ENDBRANCH  19  22
ENDBRANCH   5  19
TORSDOF 6
ENDMDL
MODEL 2
REMARK VINA RESULT:      -8.5      0.349      1.437
REMARK  6 active torsions:
REMARK  status: ('A' for Active; 'I' for Inactive)
REMARK    1  A    between atoms: N1_7  and  C7_8 
REMARK    2  A    between atoms: C7_8  and  C8_9 
REMARK       I    between atoms: C8_9  and  N2_11 
REMARK    3  A    between atoms: N2_11  and  C9_12 
REMARK    4  A    between atoms: C13_16  and  C14_17 
REMARK    5  A    between atoms: C14_17  and  O2_18 
REMARK    6  A    between atoms: C14_17  and  C15_19 
ROOT
HETATM    1  C9  UNL     1      24.094   2.492  51.775  1.00  0.00     0.035 A 
HETATM    2  C10 UNL     1      24.715   2.852  50.579  1.00  0.00     0.029 A 
HETATM    3  C11 UNL     1      26.066   2.889  50.382  1.00  0.00     0.003 A 
HETATM    4  C12 UNL     1      26.864   2.545  51.452  1.00  0.00     0.010 A 
HETATM    5  C13 UNL     1      26.332   2.179  52.666  1.00  0.00    -0.023 A 
HETATM    6  C21 UNL     1      24.940   2.156  52.814  1.00  0.00     0.039 A 
ENDROOT
BRANCH   1   7
HETATM    7  N2  UNL     1      22.685   2.463  51.950  1.00  0.00    -0.326 N 
HETATM    8  C8  UNL     1      21.681   1.706  51.312  1.00  0.00     0.240 C 
HETATM    9  O1  UNL     1      22.023   0.881  50.411  1.00  0.00    -0.271 OA
HETATM   10  H11 UNL     1      22.643   3.188  52.705  1.00  0.00     0.169 HD
BRANCH   8  11
HETATM   11  C7  UNL     1      20.361   2.081  51.891  1.00  0.00     0.226 C 
BRANCH  11  12
HETATM   12  N1  UNL     1      19.565   0.927  52.205  1.00  0.00    -0.372 N 
HETATM   13  C2  UNL     1      18.394   0.620  51.457  1.00  0.00     0.004 A 
HETATM   14  C1  UNL     1      17.945   1.490  50.314  1.00  0.00     0.068 C 
HETATM   15  C3  UNL     1      17.706  -0.454  51.792  1.00  0.00     0.024 A 
HETATM   16  C4  UNL     1      18.135  -1.299  52.897  1.00  0.00    -0.001 A 
HETATM   17  C5  UNL     1      19.227  -1.023  53.604  1.00  0.00    -0.007 A 
HETATM   18  C6  UNL     1      20.065   0.155  53.308  1.00  0.00     0.150 A 
ENDBRANCH  11  12
ENDBRANCH   8  11
ENDBRANCH   1   7
BRANCH   5  19
HETATM   19  C14 UNL     1      27.184   1.805  53.827  1.00  0.00     0.184 C 
BRANCH  19  20
HETATM   20  O2  UNL     1      28.134   2.774  54.140  1.00  0.00    -0.386 OA
HETATM   21  H16 UNL     1      27.796   3.404  54.819  1.00  0.00     0.210 HD
ENDBRANCH  19  20
BRANCH  19  22
HETATM   22  C15 UNL     1      27.795   0.485  53.565  1.00  0.00    -0.025 A 
HETATM   23  C16 UNL     1      29.169   0.428  53.819  1.00  0.00     0.010 A 
HETATM   24  C17 UNL     1      29.811  -0.784  53.594  1.00  0.00     0.001 A 
HETATM   25  C18 UNL     1      29.153  -1.908  53.139  1.00  0.00     0.000 A 
HETATM   26  C19 UNL     1      27.782  -1.832  52.890  1.00  0.00     0.001 A 
HETATM   27  C20 UNL     1      27.130  -0.642  53.107  1.00  0.00     0.010 A 
ENDBRANCH  19  22
ENDBRANCH   5  19
TORSDOF 6
ENDMDL
MODEL 3
REMARK VINA RESULT:      -8.3      3.016      6.486
REMARK  6 active torsions:
REMARK  status: ('A' for Active; 'I' for Inactive)
REMARK    1  A    between atoms: N1_7  and  C7_8 
REMARK    2  A    between atoms: C7_8  and  C8_9 
REMARK       I    between atoms: C8_9  and  N2_11 
REMARK    3  A    between atoms: N2_11  and  C9_12 
REMARK    4  A    between atoms: C13_16  and  C14_17 
REMARK    5  A    between atoms: C14_17  and  O2_18 
REMARK    6  A    between atoms: C14_17  and  C15_19 
ROOT
HETATM    1  C9  UNL     1      24.341   2.382  51.333  1.00  0.00     0.035 A 
HETATM    2  C10 UNL     1      23.248   1.551  51.572  1.00  0.00     0.029 A 
HETATM    3  C11 UNL     1      23.166   0.643  52.590  1.00  0.00     0.003 A 
HETATM    4  C12 UNL     1      24.251   0.551  53.435  1.00  0.00     0.010 A 
HETATM    5  C13 UNL     1      25.369   1.335  53.268  1.00  0.00    -0.023 A 
HETATM    6  C21 UNL     1      25.401   2.250  52.209  1.00  0.00     0.039 A 
ENDROOT
BRANCH   1   7
HETATM    7  N2  UNL     1      24.397   3.316  50.264  1.00  0.00    -0.326 N 
HETATM    8  C8  UNL     1      24.321   4.724  50.250  1.00  0.00     0.240 C 
HETATM    9  O1  UNL     1      24.176   5.335  51.353  1.00  0.00    -0.271 OA
HETATM   10  H11 UNL     1      24.513   2.613  49.496  1.00  0.00     0.169 HD
BRANCH   8  11
HETATM   11  C7  UNL     1      24.435   5.194  48.841  1.00  0.00     0.226 C 
BRANCH  11  12
HETATM   12  N1  UNL     1      25.744   5.713  48.554  1.00  0.00    -0.372 N 
HETATM   13  C2  UNL     1      25.910   7.021  48.017  1.00  0.00     0.004 A 
HETATM   14  C1  UNL     1      24.727   7.905  47.728  1.00  0.00     0.068 C 
HETATM   15  C3  UNL     1      27.136   7.443  47.776  1.00  0.00     0.024 A 
HETATM   16  C4  UNL     1      28.285   6.593  48.053  1.00  0.00    -0.001 A 
HETATM   17  C5  UNL     1      28.143   5.368  48.555  1.00  0.00    -0.007 A 
HETATM   18  C6  UNL     1      26.814   4.805  48.859  1.00  0.00     0.150 A 
ENDBRANCH  11  12
ENDBRANCH   8  11
ENDBRANCH   1   7
BRANCH   5  19
HETATM   19  C14 UNL     1      26.546   1.245  54.174  1.00  0.00     0.184 C 
BRANCH  19  20
HETATM   20  O2  UNL     1      27.284   2.423  54.226  1.00  0.00    -0.386 OA
HETATM   21  H16 UNL     1      26.933   3.040  54.911  1.00  0.00     0.210 HD
ENDBRANCH  19  20
BRANCH  19  22
HETATM   22  C15 UNL     1      27.369   0.085  53.773  1.00  0.00    -0.025 A 
HETATM   23  C16 UNL     1      28.717   0.185  54.132  1.00  0.00     0.010 A 
HETATM   24  C17 UNL     1      29.551  -0.870  53.786  1.00  0.00     0.001 A 
HETATM   25  C18 UNL     1      29.105  -1.990  53.115  1.00  0.00     0.000 A 
HETATM   26  C19 UNL     1      27.757  -2.073  52.763  1.00  0.00     0.001 A 
HETATM   27  C20 UNL     1      26.917  -1.039  53.098  1.00  0.00     0.010 A 
ENDBRANCH  19  22
ENDBRANCH   5  19
TORSDOF 6
ENDMDL
MODEL 4
REMARK VINA RESULT:      -8.3      2.560      5.961
REMARK  6 active torsions:
REMARK  status: ('A' for Active; 'I' for Inactive)
REMARK    1  A    between atoms: N1_7  and  C7_8 
REMARK    2  A    between atoms: C7_8  and  C8_9 
REMARK       I    between atoms: C8_9  and  N2_11 
REMARK    3  A    between atoms: N2_11  and  C9_12 
REMARK    4  A    between atoms: C13_16  and  C14_17 
REMARK    5  A    between atoms: C14_17  and  O2_18 
REMARK    6  A    between atoms: C14_17  and  C15_19 
ROOT
HETATM    1  C9  UNL     1      22.299   1.162  52.606  1.00  0.00     0.035 A 
HETATM    2  C10 UNL     1      21.058   1.042  53.230  1.00  0.00     0.029 A 
HETATM    3  C11 UNL     1      20.794   0.224  54.292  1.00  0.00     0.003 A 
HETATM    4  C12 UNL     1      21.840  -0.535  54.772  1.00  0.00     0.010 A 
HETATM    5  C13 UNL     1      23.096  -0.475  54.214  1.00  0.00    -0.023 A 
HETATM    6  C21 UNL     1      23.312   0.381  53.127  1.00  0.00     0.039 A 
ENDROOT
BRANCH   1   7
HETATM    7  N2  UNL     1      22.542   2.022  51.502  1.00  0.00    -0.326 N 
HETATM    8  C8  UNL     1      23.081   3.323  51.434  1.00  0.00     0.240 C 
HETATM    9  O1  UNL     1      23.434   3.891  52.512  1.00  0.00    -0.271 OA
HETATM   10  H11 UNL     1      22.190   1.370  50.762  1.00  0.00     0.169 HD
BRANCH   8  11
HETATM   11  C7  UNL     1      23.108   3.754  50.008  1.00  0.00     0.226 C 
BRANCH  11  12
HETATM   12  N1  UNL     1      24.405   4.235  49.618  1.00  0.00    -0.372 N 
HETATM   13  C2  UNL     1      24.575   5.557  49.120  1.00  0.00     0.004 A 
HETATM   14  C1  UNL     1      23.408   6.497  48.980  1.00  0.00     0.068 C 
HETATM   15  C3  UNL     1      25.790   5.942  48.779  1.00  0.00     0.024 A 
HETATM   16  C4  UNL     1      26.922   5.037  48.912  1.00  0.00    -0.001 A 
HETATM   17  C5  UNL     1      26.776   3.799  49.376  1.00  0.00    -0.007 A 
HETATM   18  C6  UNL     1      25.459   3.274  49.784  1.00  0.00     0.150 A 
ENDBRANCH  11  12
ENDBRANCH   8  11
ENDBRANCH   1   7
BRANCH   5  19
HETATM   19  C14 UNL     1      24.233  -1.289  54.724  1.00  0.00     0.184 C 
BRANCH  19  20
HETATM   20  O2  UNL     1      24.269  -1.361  56.114  1.00  0.00    -0.386 OA
HETATM   21  H16 UNL     1      24.546  -0.503  56.513  1.00  0.00     0.210 HD
ENDBRANCH  19  20
BRANCH  19  22
HETATM   22  C15 UNL     1      25.490  -0.758  54.158  1.00  0.00    -0.025 A 
HETATM   23  C16 UNL     1      26.199   0.082  55.021  1.00  0.00     0.010 A 
HETATM   24  C17 UNL     1      27.393   0.619  54.555  1.00  0.00     0.001 A 
HETATM   25  C18 UNL     1      27.892   0.355  53.296  1.00  0.00     0.000 A 
HETATM   26  C19 UNL     1      27.171  -0.486  52.447  1.00  0.00     0.001 A 
HETATM   27  C20 UNL     1      25.989  -1.026  52.892  1.00  0.00     0.010 A 
ENDBRANCH  19  22
ENDBRANCH   5  19
TORSDOF 6
ENDMDL
MODEL 5
REMARK VINA RESULT:      -8.2      3.598      7.753
REMARK  6 active torsions:
REMARK  status: ('A' for Active; 'I' for Inactive)
REMARK    1  A    between atoms: N1_7  and  C7_8 
REMARK    2  A    between atoms: C7_8  and  C8_9 
REMARK       I    between atoms: C8_9  and  N2_11 
REMARK    3  A    between atoms: N2_11  and  C9_12 
REMARK    4  A    between atoms: C13_16  and  C14_17 
REMARK    5  A    between atoms: C14_17  and  O2_18 
REMARK    6  A    between atoms: C14_17  and  C15_19 
ROOT
HETATM    1  C9  UNL     1      24.848   2.236  51.031  1.00  0.00     0.035 A 
HETATM    2  C10 UNL     1      23.551   2.333  50.530  1.00  0.00     0.029 A 
HETATM    3  C11 UNL     1      23.151   3.212  49.564  1.00  0.00     0.003 A 
HETATM    4  C12 UNL     1      24.110   4.063  49.057  1.00  0.00     0.010 A 
HETATM    5  C13 UNL     1      25.413   4.033  49.497  1.00  0.00    -0.023 A 
HETATM    6  C21 UNL     1      25.770   3.110  50.488  1.00  0.00     0.039 A 
ENDROOT
BRANCH   1   7
HETATM    7  N2  UNL     1      25.233   1.310  52.038  1.00  0.00    -0.326 N 
HETATM    8  C8  UNL     1      25.520   1.487  53.407  1.00  0.00     0.240 C 
HETATM    9  O1  UNL     1      25.440   2.654  53.898  1.00  0.00    -0.271 OA
HETATM   10  H11 UNL     1      25.233   0.461  51.425  1.00  0.00     0.169 HD
BRANCH   8  11
HETATM   11  C7  UNL     1      25.875   0.164  53.994  1.00  0.00     0.226 C 
BRANCH  11  12
HETATM   12  N1  UNL     1      27.273  -0.131  53.842  1.00  0.00    -0.372 N 
HETATM   13  C2  UNL     1      27.704  -1.251  53.077  1.00  0.00     0.004 A 
HETATM   14  C1  UNL     1      26.718  -2.166  52.402  1.00  0.00     0.068 C 
HETATM   15  C3  UNL     1      29.001  -1.471  52.974  1.00  0.00     0.024 A 
HETATM   16  C4  UNL     1      29.960  -0.590  53.625  1.00  0.00    -0.001 A 
HETATM   17  C5  UNL     1      29.569   0.459  54.343  1.00  0.00    -0.007 A 
HETATM   18  C6  UNL     1      28.142   0.790  54.518  1.00  0.00     0.150 A 
ENDBRANCH  11  12
ENDBRANCH   8  11
ENDBRANCH   1   7
BRANCH   5  19
HETATM   19  C14 UNL     1      26.456   4.945  48.956  1.00  0.00     0.184 C 
BRANCH  19  20
HETATM   20  O2  UNL     1      27.708   4.742  49.530  1.00  0.00    -0.386 OA
HETATM   21  H16 UNL     1      27.796   3.827  49.888  1.00  0.00     0.210 HD
ENDBRANCH  19  20
BRANCH  19  22
HETATM   22  C15 UNL     1      25.992   6.341  49.103  1.00  0.00    -0.025 A 
HETATM   23  C16 UNL     1      26.025   7.085  47.920  1.00  0.00     0.010 A 
HETATM   24  C17 UNL     1      25.602   8.407  47.984  1.00  0.00     0.001 A 
HETATM   25  C18 UNL     1      25.161   8.997  49.150  1.00  0.00     0.000 A 
HETATM   26  C19 UNL     1      25.136   8.240  50.322  1.00  0.00     0.001 A 
HETATM   27  C20 UNL     1      25.549   6.931  50.278  1.00  0.00     0.010 A 
ENDBRANCH  19  22
ENDBRANCH   5  19
TORSDOF 6
ENDMDL
MODEL 6
REMARK VINA RESULT:      -7.9      2.587      5.067
REMARK  6 active torsions:
REMARK  status: ('A' for Active; 'I' for Inactive)
REMARK    1  A    between atoms: N1_7  and  C7_8 
REMARK    2  A    between atoms: C7_8  and  C8_9 
REMARK       I    between atoms: C8_9  and  N2_11 
REMARK    3  A    between atoms: N2_11  and  C9_12 
REMARK    4  A    between atoms: C13_16  and  C14_17 
REMARK    5  A    between atoms: C14_17  and  O2_18 
REMARK    6  A    between atoms: C14_17  and  C15_19 
ROOT
HETATM    1  C9  UNL     1      21.881   0.508  52.893  1.00  0.00     0.035 A 
HETATM    2  C10 UNL     1      20.941  -0.195  53.646  1.00  0.00     0.029 A 
HETATM    3  C11 UNL     1      21.244  -1.096  54.628  1.00  0.00     0.003 A 
HETATM    4  C12 UNL     1      22.580  -1.318  54.882  1.00  0.00     0.010 A 
HETATM    5  C13 UNL     1      23.570  -0.666  54.184  1.00  0.00    -0.023 A 
HETATM    6  C21 UNL     1      23.204   0.249  53.189  1.00  0.00     0.039 A 
ENDROOT
BRANCH   1   7
HETATM    7  N2  UNL     1      21.534   1.438  51.876  1.00  0.00    -0.326 N 
HETATM    8  C8  UNL     1      20.705   2.579  51.899  1.00  0.00     0.240 C 
HETATM    9  O1  UNL     1      20.133   2.892  52.988  1.00  0.00    -0.271 OA
HETATM   10  H11 UNL     1      22.097   0.995  51.112  1.00  0.00     0.169 HD
BRANCH   8  11
HETATM   11  C7  UNL     1      20.697   3.189  50.540  1.00  0.00     0.226 C 
BRANCH  11  12
HETATM   12  N1  UNL     1      21.993   3.685  50.168  1.00  0.00    -0.372 N 
HETATM   13  C2  UNL     1      22.718   3.098  49.092  1.00  0.00     0.004 A 
HETATM   14  C1  UNL     1      22.159   1.940  48.310  1.00  0.00     0.068 C 
HETATM   15  C3  UNL     1      23.903   3.597  48.796  1.00  0.00     0.024 A 
HETATM   16  C4  UNL     1      24.449   4.717  49.550  1.00  0.00    -0.001 A 
HETATM   17  C5  UNL     1      23.781   5.274  50.557  1.00  0.00    -0.007 A 
HETATM   18  C6  UNL     1      22.449   4.788  50.965  1.00  0.00     0.150 A 
ENDBRANCH  11  12
ENDBRANCH   8  11
ENDBRANCH   1   7
BRANCH   5  19
HETATM   19  C14 UNL     1      25.016  -0.897  54.451  1.00  0.00     0.184 C 
BRANCH  19  20
HETATM   20  O2  UNL     1      25.333  -0.852  55.805  1.00  0.00    -0.386 OA
HETATM   21  H16 UNL     1      26.308  -0.822  55.946  1.00  0.00     0.210 HD
ENDBRANCH  19  20
BRANCH  19  22
HETATM   22  C15 UNL     1      25.807   0.067  53.658  1.00  0.00    -0.025 A 
HETATM   23  C16 UNL     1      26.308   1.144  54.396  1.00  0.00     0.010 A 
HETATM   24  C17 UNL     1      27.061   2.091  53.714  1.00  0.00     0.001 A 
HETATM   25  C18 UNL     1      27.327   2.007  52.363  1.00  0.00     0.000 A 
HETATM   26  C19 UNL     1      26.819   0.926  51.642  1.00  0.00     0.001 A 
HETATM   27  C20 UNL     1      26.072  -0.021  52.299  1.00  0.00     0.010 A 
ENDBRANCH  19  22
ENDBRANCH   5  19
TORSDOF 6
ENDMDL
MODEL 7
REMARK VINA RESULT:      -7.8      2.610      8.107
REMARK  6 active torsions:
REMARK  status: ('A' for Active; 'I' for Inactive)
REMARK    1  A    between atoms: N1_7  and  C7_8 
REMARK    2  A    between atoms: C7_8  and  C8_9 
REMARK       I    between atoms: C8_9  and  N2_11 
REMARK    3  A    between atoms: N2_11  and  C9_12 
REMARK    4  A    between atoms: C13_16  and  C14_17 
REMARK    5  A    between atoms: C14_17  and  O2_18 
REMARK    6  A    between atoms: C14_17  and  C15_19 
ROOT
HETATM    1  C9  UNL     1      23.099  -0.167  53.330  1.00  0.00     0.035 A 
HETATM    2  C10 UNL     1      22.260  -0.837  54.219  1.00  0.00     0.029 A 
HETATM    3  C11 UNL     1      20.974  -0.474  54.501  1.00  0.00     0.003 A 
HETATM    4  C12 UNL     1      20.481   0.640  53.855  1.00  0.00     0.010 A 
HETATM    5  C13 UNL     1      21.244   1.357  52.963  1.00  0.00    -0.023 A 
HETATM    6  C21 UNL     1      22.557   0.941  52.709  1.00  0.00     0.039 A 
ENDROOT
BRANCH   1   7
HETATM    7  N2  UNL     1      24.434  -0.569  53.057  1.00  0.00    -0.326 N 
HETATM    8  C8  UNL     1      25.499  -0.911  53.915  1.00  0.00     0.240 C 
HETATM    9  O1  UNL     1      25.304  -0.876  55.168  1.00  0.00    -0.271 OA
HETATM   10  H11 UNL     1      24.361  -0.527  52.012  1.00  0.00     0.169 HD
BRANCH   8  11
HETATM   11  C7  UNL     1      26.688  -1.257  53.086  1.00  0.00     0.226 C 
BRANCH  11  12
HETATM   12  N1  UNL     1      27.788  -0.365  53.327  1.00  0.00    -0.372 N 
HETATM   13  C2  UNL     1      29.116  -0.860  53.457  1.00  0.00     0.004 A 
HETATM   14  C1  UNL     1      29.417  -2.331  53.348  1.00  0.00     0.068 C 
HETATM   15  C3  UNL     1      30.085   0.008  53.677  1.00  0.00     0.024 A 
HETATM   16  C4  UNL     1      29.799   1.431  53.783  1.00  0.00    -0.001 A 
HETATM   17  C5  UNL     1      28.562   1.907  53.664  1.00  0.00    -0.007 A 
HETATM   18  C6  UNL     1      27.411   1.018  53.417  1.00  0.00     0.150 A 
ENDBRANCH  11  12
ENDBRANCH   8  11
ENDBRANCH   1   7
BRANCH   5  19
HETATM   19  C14 UNL     1      20.723   2.560  52.259  1.00  0.00     0.184 C 
BRANCH  19  20
HETATM   20  O2  UNL     1      19.342   2.697  52.364  1.00  0.00    -0.386 OA
HETATM   21  H16 UNL     1      18.911   1.838  52.588  1.00  0.00     0.210 HD
ENDBRANCH  19  20
BRANCH  19  22
HETATM   22  C15 UNL     1      21.178   2.523  50.854  1.00  0.00    -0.025 A 
HETATM   23  C16 UNL     1      20.688   1.438  50.120  1.00  0.00     0.010 A 
HETATM   24  C17 UNL     1      21.075   1.339  48.789  1.00  0.00     0.001 A 
HETATM   25  C18 UNL     1      21.907   2.255  48.180  1.00  0.00     0.000 A 
HETATM   26  C19 UNL     1      22.387   3.332  48.927  1.00  0.00     0.001 A 
HETATM   27  C20 UNL     1      22.014   3.447  50.244  1.00  0.00     0.010 A 
ENDBRANCH  19  22
ENDBRANCH   5  19
TORSDOF 6
ENDMDL
MODEL 8
REMARK VINA RESULT:      -7.8      3.930      8.086
REMARK  6 active torsions:
REMARK  status: ('A' for Active; 'I' for Inactive)
REMARK    1  A    between atoms: N1_7  and  C7_8 
REMARK    2  A    between atoms: C7_8  and  C8_9 
REMARK       I    between atoms: C8_9  and  N2_11 
REMARK    3  A    between atoms: N2_11  and  C9_12 
REMARK    4  A    between atoms: C13_16  and  C14_17 
REMARK    5  A    between atoms: C14_17  and  O2_18 
REMARK    6  A    between atoms: C14_17  and  C15_19 
ROOT
HETATM    1  C9  UNL     1      25.602   2.886  50.718  1.00  0.00     0.035 A 
HETATM    2  C10 UNL     1      26.694   3.449  50.059  1.00  0.00     0.029 A 
HETATM    3  C11 UNL     1      26.625   4.512  49.203  1.00  0.00     0.003 A 
HETATM    4  C12 UNL     1      25.378   5.057  48.982  1.00  0.00     0.010 A 
HETATM    5  C13 UNL     1      24.250   4.560  49.592  1.00  0.00    -0.023 A 
HETATM    6  C21 UNL     1      24.377   3.470  50.462  1.00  0.00     0.039 A 
ENDROOT
BRANCH   1   7
HETATM    7  N2  UNL     1      25.706   1.779  51.603  1.00  0.00    -0.326 N 
HETATM    8  C8  UNL     1      25.489   1.672  52.992  1.00  0.00     0.240 C 
HETATM    9  O1  UNL     1      25.137   2.708  53.633  1.00  0.00    -0.271 OA
HETATM   10  H11 UNL     1      25.994   1.076  50.882  1.00  0.00     0.169 HD
BRANCH   8  11
HETATM   11  C7  UNL     1      25.746   0.264  53.407  1.00  0.00     0.226 C 
BRANCH  11  12
HETATM   12  N1  UNL     1      27.151  -0.014  53.524  1.00  0.00    -0.372 N 
HETATM   13  C2  UNL     1      27.701  -1.226  53.021  1.00  0.00     0.004 A 
HETATM   14  C1  UNL     1      26.835  -2.261  52.353  1.00  0.00     0.068 C 
HETATM   15  C3  UNL     1      28.998  -1.424  53.156  1.00  0.00     0.024 A 
HETATM   16  C4  UNL     1      29.840  -0.427  53.801  1.00  0.00    -0.001 A 
HETATM   17  C5  UNL     1      29.338   0.710  54.276  1.00  0.00    -0.007 A 
HETATM   18  C6  UNL     1      27.900   1.025  54.173  1.00  0.00     0.150 A 
ENDBRANCH  11  12
ENDBRANCH   8  11
ENDBRANCH   1   7
BRANCH   5  19
HETATM   19  C14 UNL     1      22.900   5.141  49.361  1.00  0.00     0.184 C 
BRANCH  19  20
HETATM   20  O2  UNL     1      21.929   4.616  50.210  1.00  0.00    -0.386 OA
HETATM   21  H16 UNL     1      21.132   4.323  49.708  1.00  0.00     0.210 HD
ENDBRANCH  19  20
BRANCH  19  22
HETATM   22  C15 UNL     1      22.547   4.976  47.936  1.00  0.00    -0.025 A 
HETATM   23  C16 UNL     1      22.226   3.665  47.572  1.00  0.00     0.010 A 
HETATM   24  C17 UNL     1      21.885   3.435  46.245  1.00  0.00     0.001 A 
HETATM   25  C18 UNL     1      21.851   4.435  45.295  1.00  0.00     0.000 A 
HETATM   26  C19 UNL     1      22.175   5.738  45.676  1.00  0.00     0.001 A 
HETATM   27  C20 UNL     1      22.515   5.984  46.984  1.00  0.00     0.010 A 
ENDBRANCH  19  22
ENDBRANCH   5  19
TORSDOF 6
ENDMDL
MODEL 9
REMARK VINA RESULT:      -7.8      2.939      5.272
REMARK  6 active torsions:
REMARK  status: ('A' for Active; 'I' for Inactive)
REMARK    1  A    between atoms: N1_7  and  C7_8 
REMARK    2  A    between atoms: C7_8  and  C8_9 
REMARK       I    between atoms: C8_9  and  N2_11 
REMARK    3  A    between atoms: N2_11  and  C9_12 
REMARK    4  A    between atoms: C13_16  and  C14_17 
REMARK    5  A    between atoms: C14_17  and  O2_18 
REMARK    6  A    between atoms: C14_17  and  C15_19 
ROOT
HETATM    1  C9  UNL     1      23.462   1.542  52.027  1.00  0.00     0.035 A 
HETATM    2  C10 UNL     1      22.624   0.457  52.281  1.00  0.00     0.029 A 
HETATM    3  C11 UNL     1      22.883  -0.534  53.185  1.00  0.00     0.003 A 
HETATM    4  C12 UNL     1      24.065  -0.445  53.889  1.00  0.00     0.010 A 
HETATM    5  C13 UNL     1      24.947   0.592  53.698  1.00  0.00    -0.023 A 
HETATM    6  C21 UNL     1      24.632   1.583  52.760  1.00  0.00     0.039 A 
ENDROOT
BRANCH   1   7
HETATM    7  N2  UNL     1      23.165   2.558  51.079  1.00  0.00    -0.326 N 
HETATM    8  C8  UNL     1      22.352   3.706  51.167  1.00  0.00     0.240 C 
HETATM    9  O1  UNL     1      21.746   3.939  52.257  1.00  0.00    -0.271 OA
HETATM   10  H11 UNL     1      23.748   2.169  50.300  1.00  0.00     0.169 HD
BRANCH   8  11
HETATM   11  C7  UNL     1      22.401   4.425  49.863  1.00  0.00     0.226 C 
BRANCH  11  12
HETATM   12  N1  UNL     1      22.929   5.754  50.003  1.00  0.00    -0.372 N 
HETATM   13  C2  UNL     1      22.071   6.889  49.970  1.00  0.00     0.004 A 
HETATM   14  C1  UNL     1      20.584   6.742  49.785  1.00  0.00     0.068 C 
HETATM   15  C3  UNL     1      22.614   8.084  50.105  1.00  0.00     0.024 A 
HETATM   16  C4  UNL     1      24.051   8.232  50.284  1.00  0.00    -0.001 A 
HETATM   17  C5  UNL     1      24.864   7.179  50.317  1.00  0.00    -0.007 A 
HETATM   18  C6  UNL     1      24.353   5.802  50.174  1.00  0.00     0.150 A 
ENDBRANCH  11  12
ENDBRANCH   8  11
ENDBRANCH   1   7
BRANCH   5  19
HETATM   19  C14 UNL     1      26.225   0.699  54.453  1.00  0.00     0.184 C 
BRANCH  19  20
HETATM   20  O2  UNL     1      26.749   1.988  54.456  1.00  0.00    -0.386 OA
HETATM   21  H16 UNL     1      27.724   1.981  54.606  1.00  0.00     0.210 HD
ENDBRANCH  19  20
BRANCH  19  22
HETATM   22  C15 UNL     1      27.180  -0.293  53.917  1.00  0.00    -0.025 A 
HETATM   23  C16 UNL     1      28.501  -0.103  54.334  1.00  0.00     0.010 A 
HETATM   24  C17 UNL     1      29.454  -0.999  53.868  1.00  0.00     0.001 A 
HETATM   25  C18 UNL     1      29.149  -2.048  53.026  1.00  0.00     0.000 A 
HETATM   26  C19 UNL     1      27.826  -2.223  52.618  1.00  0.00     0.001 A 
HETATM   27  C20 UNL     1      26.869  -1.346  53.070  1.00  0.00     0.010 A 
ENDBRANCH  19  22
ENDBRANCH   5  19
TORSDOF 6
ENDMDL
