MODEL 1
REMARK VINA RESULT:      -8.5      0.000      0.000
REMARK  5 active torsions:
REMARK  status: ('A' for Active; 'I' for Inactive)
REMARK    1  A    between atoms: C5_5  and  N1_6 
REMARK    2  A    between atoms: C8_12  and  N5_13 
REMARK    3  A    between atoms: N5_13  and  C9_14 
REMARK    4  A    between atoms: C12_17  and  S1_18 
REMARK    5  A    between atoms: S1_18  and  N6_19 
ROOT
HETATM    1  N5  UNL     1      25.836   3.276  50.157  1.00  0.00    -0.327 N 
HETATM    2  H8  UNL     1      25.111   2.725  49.649  1.00  0.00     0.169 HD
ENDROOT
BRANCH   1   3
HETATM    3  C8  UNL     1      25.996   2.372  51.245  1.00  0.00     0.137 A 
HETATM    4  C2  UNL     1      24.908   1.649  51.728  1.00  0.00    -0.015 A 
HETATM    5  C1  UNL     1      23.566   1.821  51.103  1.00  0.00     0.052 C 
HETATM    6  C3  UNL     1      25.006   0.752  52.788  1.00  0.00     0.029 A 
HETATM    7  C4  UNL     1      26.267   0.623  53.339  1.00  0.00     0.058 A 
HETATM    8  C5  UNL     1      26.484  -0.243  54.402  1.00  0.00     0.136 A 
HETATM    9  C7  UNL     1      27.364   1.328  52.880  1.00  0.00     0.167 A 
HETATM   10  N2  UNL     1      27.691  -0.408  54.976  1.00  0.00    -0.224 NA
HETATM   11  C6  UNL     1      28.749   0.303  54.497  1.00  0.00     0.237 A 
HETATM   12  N3  UNL     1      28.576   1.164  53.455  1.00  0.00    -0.221 NA
HETATM   13  N4  UNL     1      27.174   2.158  51.867  1.00  0.00    -0.210 NA
BRANCH   8  14
HETATM   14  N1  UNL     1      25.362  -0.971  54.880  1.00  0.00    -0.383 N 
HETATM   15  H5  UNL     1      24.529  -0.796  54.245  1.00  0.00     0.157 HD
HETATM   16  H6  UNL     1      25.282  -1.606  55.718  1.00  0.00     0.157 HD
ENDBRANCH   8  14
ENDBRANCH   1   3
BRANCH   1  17
HETATM   17  C9  UNL     1      26.359   4.507  49.731  1.00  0.00     0.106 C 
HETATM   18  C10 UNL     1      25.584   5.509  50.115  1.00  0.00     0.050 C 
HETATM   19  C11 UNL     1      25.838   6.938  49.835  1.00  0.00     0.028 C 
HETATM   20  C12 UNL     1      26.762   7.466  49.075  1.00  0.00     0.075 C 
HETATM   21  C13 UNL     1      27.825   6.854  48.270  1.00  0.00     0.041 C 
HETATM   22  C14 UNL     1      28.146   5.569  48.259  1.00  0.00     0.091 C 
HETATM   23  N7  UNL     1      27.572   4.478  48.993  1.00  0.00    -0.352 N 
HETATM   24  H15 UNL     1      28.104   3.586  48.978  1.00  0.00     0.166 HD
BRANCH  20  25
HETATM   25  S1  UNL     1      26.649   9.229  49.065  1.00  0.00     0.239 S 
HETATM   26  O1  UNL     1      27.468   9.776  47.924  1.00  0.00    -0.206 OA
HETATM   27  O2  UNL     1      25.223   9.640  48.837  1.00  0.00    -0.206 OA
BRANCH  25  28
HETATM   28  N6  UNL     1      27.207   9.901  50.531  1.00  0.00    -0.225 NA
HETATM   29  H11 UNL     1      26.916   9.358  51.363  1.00  0.00     0.136 HD
HETATM   30  H12 UNL     1      27.024  10.919  50.635  1.00  0.00     0.136 HD
ENDBRANCH  25  28
ENDBRANCH  20  25
ENDBRANCH   1  17
TORSDOF 5
ENDMDL
MODEL 2
REMARK VINA RESULT:      -8.5      1.474      1.941
REMARK  5 active torsions:
REMARK  status: ('A' for Active; 'I' for Inactive)
REMARK    1  A    between atoms: C5_5  and  N1_6 
REMARK    2  A    between atoms: C8_12  and  N5_13 
REMARK    3  A    between atoms: N5_13  and  C9_14 
REMARK    4  A    between atoms: C12_17  and  S1_18 
REMARK    5  A    between atoms: S1_18  and  N6_19 
ROOT
HETATM    1  N5  UNL     1      25.808   3.458  50.195  1.00  0.00    -0.327 N 
HETATM    2  H8  UNL     1      25.090   2.864  49.727  1.00  0.00     0.169 HD
ENDROOT
BRANCH   1   3
HETATM    3  C8  UNL     1      26.081   2.568  51.272  1.00  0.00     0.137 A 
HETATM    4  C2  UNL     1      25.063   1.796  51.826  1.00  0.00    -0.015 A 
HETATM    5  C1  UNL     1      23.676   1.902  51.290  1.00  0.00     0.052 C 
HETATM    6  C3  UNL     1      25.273   0.911  52.878  1.00  0.00     0.029 A 
HETATM    7  C4  UNL     1      26.572   0.844  53.346  1.00  0.00     0.058 A 
HETATM    8  C5  UNL     1      26.899  -0.005  54.394  1.00  0.00     0.136 A 
HETATM    9  C7  UNL     1      27.601   1.598  52.816  1.00  0.00     0.167 A 
HETATM   10  N2  UNL     1      28.147  -0.109  54.888  1.00  0.00    -0.224 NA
HETATM   11  C6  UNL     1      29.136   0.649  54.340  1.00  0.00     0.237 A 
HETATM   12  N3  UNL     1      28.855   1.495  53.310  1.00  0.00    -0.221 NA
HETATM   13  N4  UNL     1      27.307   2.414  51.816  1.00  0.00    -0.210 NA
BRANCH   8  14
HETATM   14  N1  UNL     1      25.846  -0.784  54.946  1.00  0.00    -0.383 N 
HETATM   15  H5  UNL     1      24.915  -0.429  54.580  1.00  0.00     0.157 HD
HETATM   16  H6  UNL     1      25.894  -1.597  55.615  1.00  0.00     0.157 HD
ENDBRANCH   8  14
ENDBRANCH   1   3
BRANCH   1  17
HETATM   17  C9  UNL     1      26.232   4.717  49.741  1.00  0.00     0.106 C 
HETATM   18  C10 UNL     1      27.257   4.601  48.911  1.00  0.00     0.050 C 
HETATM   19  C11 UNL     1      27.949   5.726  48.249  1.00  0.00     0.028 C 
HETATM   20  C12 UNL     1      27.784   7.009  48.441  1.00  0.00     0.075 C 
HETATM   21  C13 UNL     1      26.893   7.749  49.341  1.00  0.00     0.041 C 
HETATM   22  C14 UNL     1      25.935   7.223  50.091  1.00  0.00     0.091 C 
HETATM   23  N7  UNL     1      25.529   5.853  50.221  1.00  0.00    -0.352 N 
HETATM   24  H15 UNL     1      24.630   5.688  50.716  1.00  0.00     0.166 HD
BRANCH  20  25
HETATM   25  S1  UNL     1      28.854   7.953  47.400  1.00  0.00     0.239 S 
HETATM   26  O1  UNL     1      30.032   7.104  46.994  1.00  0.00    -0.206 OA
HETATM   27  O2  UNL     1      28.123   8.342  46.147  1.00  0.00    -0.206 OA
BRANCH  25  28
HETATM   28  N6  UNL     1      29.418   9.357  48.189  1.00  0.00    -0.225 NA
HETATM   29  H11 UNL     1      29.801   9.167  49.132  1.00  0.00     0.136 HD
HETATM   30  H12 UNL     1      28.749  10.152  48.182  1.00  0.00     0.136 HD
ENDBRANCH  25  28
ENDBRANCH  20  25
ENDBRANCH   1  17
TORSDOF 5
ENDMDL
MODEL 3
REMARK VINA RESULT:      -8.1      2.245      3.577
REMARK  5 active torsions:
REMARK  status: ('A' for Active; 'I' for Inactive)
REMARK    1  A    between atoms: C5_5  and  N1_6 
REMARK    2  A    between atoms: C8_12  and  N5_13 
REMARK    3  A    between atoms: N5_13  and  C9_14 
REMARK    4  A    between atoms: C12_17  and  S1_18 
REMARK    5  A    between atoms: S1_18  and  N6_19 
ROOT
HETATM    1  N5  UNL     1      24.699   2.157  50.800  1.00  0.00    -0.327 N 
HETATM    2  H8  UNL     1      24.791   1.410  50.079  1.00  0.00     0.169 HD
ENDROOT
BRANCH   1   3
HETATM    3  C8  UNL     1      24.455   1.292  51.903  1.00  0.00     0.137 A 
HETATM    4  C2  UNL     1      25.510   0.826  52.683  1.00  0.00    -0.015 A 
HETATM    5  C1  UNL     1      26.907   1.236  52.363  1.00  0.00     0.052 C 
HETATM    6  C3  UNL     1      25.329  -0.021  53.772  1.00  0.00     0.029 A 
HETATM    7  C4  UNL     1      24.020  -0.377  54.035  1.00  0.00     0.058 A 
HETATM    8  C5  UNL     1      23.719  -1.219  55.096  1.00  0.00     0.136 A 
HETATM    9  C7  UNL     1      22.953   0.069  53.277  1.00  0.00     0.167 A 
HETATM   10  N2  UNL     1      22.462  -1.597  55.396  1.00  0.00    -0.224 NA
HETATM   11  C6  UNL     1      21.436  -1.137  54.628  1.00  0.00     0.237 A 
HETATM   12  N3  UNL     1      21.691  -0.309  53.576  1.00  0.00    -0.221 NA
HETATM   13  N4  UNL     1      23.222   0.873  52.260  1.00  0.00    -0.210 NA
BRANCH   8  14
HETATM   14  N1  UNL     1      24.809  -1.683  55.880  1.00  0.00    -0.383 N 
HETATM   15  H5  UNL     1      25.083  -2.659  55.563  1.00  0.00     0.157 HD
HETATM   16  H6  UNL     1      25.323  -1.202  56.665  1.00  0.00     0.157 HD
ENDBRANCH   8  14
ENDBRANCH   1   3
BRANCH   1  17
HETATM   17  C9  UNL     1      24.815   3.534  50.552  1.00  0.00     0.106 C 
HETATM   18  C10 UNL     1      25.860   3.791  49.781  1.00  0.00     0.050 C 
HETATM   19  C11 UNL     1      26.274   5.134  49.326  1.00  0.00     0.028 C 
HETATM   20  C12 UNL     1      25.795   6.297  49.684  1.00  0.00     0.075 C 
HETATM   21  C13 UNL     1      24.725   6.661  50.620  1.00  0.00     0.041 C 
HETATM   22  C14 UNL     1      23.905   5.816  51.227  1.00  0.00     0.091 C 
HETATM   23  N7  UNL     1      23.842   4.385  51.141  1.00  0.00    -0.352 N 
HETATM   24  H15 UNL     1      22.998   3.939  51.550  1.00  0.00     0.166 HD
BRANCH  20  25
HETATM   25  S1  UNL     1      26.630   7.614  48.853  1.00  0.00     0.239 S 
HETATM   26  O1  UNL     1      26.382   7.506  47.371  1.00  0.00    -0.206 OA
HETATM   27  O2  UNL     1      26.073   8.931  49.311  1.00  0.00    -0.206 OA
BRANCH  25  28
HETATM   28  N6  UNL     1      28.311   7.574  49.147  1.00  0.00    -0.225 NA
HETATM   29  H11 UNL     1      28.649   6.642  49.447  1.00  0.00     0.136 HD
HETATM   30  H12 UNL     1      28.659   8.340  49.757  1.00  0.00     0.136 HD
ENDBRANCH  25  28
ENDBRANCH  20  25
ENDBRANCH   1  17
TORSDOF 5
ENDMDL
MODEL 4
REMARK VINA RESULT:      -7.8      3.555      4.205
REMARK  5 active torsions:
REMARK  status: ('A' for Active; 'I' for Inactive)
REMARK    1  A    between atoms: C5_5  and  N1_6 
REMARK    2  A    between atoms: C8_12  and  N5_13 
REMARK    3  A    between atoms: N5_13  and  C9_14 
REMARK    4  A    between atoms: C12_17  and  S1_18 
REMARK    5  A    between atoms: S1_18  and  N6_19 
ROOT
HETATM    1  N5  UNL     1      23.387   3.096  53.008  1.00  0.00    -0.327 N 
HETATM    2  H8  UNL     1      22.761   2.623  53.696  1.00  0.00     0.169 HD
ENDROOT
BRANCH   1   3
HETATM    3  C8  UNL     1      24.481   2.196  53.138  1.00  0.00     0.137 A 
HETATM    4  C2  UNL     1      24.311   0.836  52.887  1.00  0.00    -0.015 A 
HETATM    5  C1  UNL     1      22.975   0.318  52.482  1.00  0.00     0.052 C 
HETATM    6  C3  UNL     1      25.346  -0.088  52.999  1.00  0.00     0.029 A 
HETATM    7  C4  UNL     1      26.568   0.433  53.377  1.00  0.00     0.058 A 
HETATM    8  C5  UNL     1      27.673  -0.395  53.521  1.00  0.00     0.136 A 
HETATM    9  C7  UNL     1      26.765   1.777  53.632  1.00  0.00     0.167 A 
HETATM   10  N2  UNL     1      28.886   0.060  53.887  1.00  0.00    -0.224 NA
HETATM   11  C6  UNL     1      29.042   1.391  54.130  1.00  0.00     0.237 A 
HETATM   12  N3  UNL     1      27.982   2.237  54.000  1.00  0.00    -0.221 NA
HETATM   13  N4  UNL     1      25.723   2.582  53.501  1.00  0.00    -0.210 NA
BRANCH   8  14
HETATM   14  N1  UNL     1      27.479  -1.778  53.261  1.00  0.00    -0.383 N 
HETATM   15  H5  UNL     1      27.802  -2.344  54.099  1.00  0.00     0.157 HD
HETATM   16  H6  UNL     1      27.084  -2.251  52.405  1.00  0.00     0.157 HD
ENDBRANCH   8  14
ENDBRANCH   1   3
BRANCH   1  17
HETATM   17  C9  UNL     1      23.060   4.253  52.284  1.00  0.00     0.106 C 
HETATM   18  C10 UNL     1      21.831   4.176  51.797  1.00  0.00     0.050 C 
HETATM   19  C11 UNL     1      21.169   5.219  50.987  1.00  0.00     0.028 C 
HETATM   20  C12 UNL     1      21.683   6.318  50.499  1.00  0.00     0.075 C 
HETATM   21  C13 UNL     1      23.037   6.877  50.581  1.00  0.00     0.041 C 
HETATM   22  C14 UNL     1      24.029   6.402  51.319  1.00  0.00     0.091 C 
HETATM   23  N7  UNL     1      24.050   5.267  52.196  1.00  0.00    -0.352 N 
HETATM   24  H15 UNL     1      24.874   5.189  52.824  1.00  0.00     0.166 HD
BRANCH  20  25
HETATM   25  S1  UNL     1      20.477   7.240  49.595  1.00  0.00     0.239 S 
HETATM   26  O1  UNL     1      20.303   8.594  50.233  1.00  0.00    -0.206 OA
HETATM   27  O2  UNL     1      20.961   7.460  48.190  1.00  0.00    -0.206 OA
BRANCH  25  28
HETATM   28  N6  UNL     1      18.972   6.437  49.559  1.00  0.00    -0.225 NA
HETATM   29  H11 UNL     1      18.548   6.327  50.497  1.00  0.00     0.136 HD
HETATM   30  H12 UNL     1      18.969   5.552  49.013  1.00  0.00     0.136 HD
ENDBRANCH  25  28
ENDBRANCH  20  25
ENDBRANCH   1  17
TORSDOF 5
ENDMDL
MODEL 5
REMARK VINA RESULT:      -7.6      3.104      4.176
REMARK  5 active torsions:
REMARK  status: ('A' for Active; 'I' for Inactive)
REMARK    1  A    between atoms: C5_5  and  N1_6 
REMARK    2  A    between atoms: C8_12  and  N5_13 
REMARK    3  A    between atoms: N5_13  and  C9_14 
REMARK    4  A    between atoms: C12_17  and  S1_18 
REMARK    5  A    between atoms: S1_18  and  N6_19 
ROOT
HETATM    1  N5  UNL     1      22.926   3.731  51.750  1.00  0.00    -0.327 N 
HETATM    2  H8  UNL     1      22.167   4.399  52.003  1.00  0.00     0.169 HD
ENDROOT
BRANCH   1   3
HETATM    3  C8  UNL     1      22.330   2.577  52.331  1.00  0.00     0.137 A 
HETATM    4  C2  UNL     1      20.953   2.379  52.256  1.00  0.00    -0.015 A 
HETATM    5  C1  UNL     1      20.096   3.383  51.564  1.00  0.00     0.052 C 
HETATM    6  C3  UNL     1      20.317   1.271  52.807  1.00  0.00     0.029 A 
HETATM    7  C4  UNL     1      21.147   0.365  53.440  1.00  0.00     0.058 A 
HETATM    8  C5  UNL     1      20.624  -0.779  54.026  1.00  0.00     0.136 A 
HETATM    9  C7  UNL     1      22.516   0.535  53.529  1.00  0.00     0.167 A 
HETATM   10  N2  UNL     1      21.386  -1.693  54.655  1.00  0.00    -0.224 NA
HETATM   11  C6  UNL     1      22.731  -1.492  54.723  1.00  0.00     0.237 A 
HETATM   12  N3  UNL     1      23.283  -0.380  54.160  1.00  0.00    -0.221 NA
HETATM   13  N4  UNL     1      23.032   1.622  52.976  1.00  0.00    -0.210 NA
BRANCH   8  14
HETATM   14  N1  UNL     1      19.217  -0.961  53.939  1.00  0.00    -0.383 N 
HETATM   15  H5  UNL     1      18.780  -0.119  53.463  1.00  0.00     0.157 HD
HETATM   16  H6  UNL     1      18.624  -1.769  54.267  1.00  0.00     0.157 HD
ENDBRANCH   8  14
ENDBRANCH   1   3
BRANCH   1  17
HETATM   17  C9  UNL     1      24.095   4.067  51.049  1.00  0.00     0.106 C 
HETATM   18  C10 UNL     1      24.067   5.332  50.661  1.00  0.00     0.050 C 
HETATM   19  C11 UNL     1      25.135   6.015  49.901  1.00  0.00     0.028 C 
HETATM   20  C12 UNL     1      26.212   5.497  49.369  1.00  0.00     0.075 C 
HETATM   21  C13 UNL     1      26.717   4.120  49.342  1.00  0.00     0.041 C 
HETATM   22  C14 UNL     1      26.203   3.092  50.001  1.00  0.00     0.091 C 
HETATM   23  N7  UNL     1      25.068   3.047  50.879  1.00  0.00    -0.352 N 
HETATM   24  H15 UNL     1      24.958   2.180  51.440  1.00  0.00     0.166 HD
BRANCH  20  25
HETATM   25  S1  UNL     1      27.181   6.734  48.560  1.00  0.00     0.239 S 
HETATM   26  O1  UNL     1      28.401   6.092  47.950  1.00  0.00    -0.206 OA
HETATM   27  O2  UNL     1      26.384   7.345  47.443  1.00  0.00    -0.206 OA
BRANCH  25  28
HETATM   28  N6  UNL     1      27.670   7.956  49.645  1.00  0.00    -0.225 NA
HETATM   29  H11 UNL     1      27.778   7.617  50.617  1.00  0.00     0.136 HD
HETATM   30  H12 UNL     1      27.114   8.832  49.587  1.00  0.00     0.136 HD
ENDBRANCH  25  28
ENDBRANCH  20  25
ENDBRANCH   1  17
TORSDOF 5
ENDMDL
MODEL 6
REMARK VINA RESULT:      -7.5      3.371      4.499
REMARK  5 active torsions:
REMARK  status: ('A' for Active; 'I' for Inactive)
REMARK    1  A    between atoms: C5_5  and  N1_6 
REMARK    2  A    between atoms: C8_12  and  N5_13 
REMARK    3  A    between atoms: N5_13  and  C9_14 
REMARK    4  A    between atoms: C12_17  and  S1_18 
REMARK    5  A    between atoms: S1_18  and  N6_19 
ROOT
HETATM    1  N5  UNL     1      22.653   1.953  49.680  1.00  0.00    -0.327 N 
HETATM    2  H8  UNL     1      22.529   1.215  48.953  1.00  0.00     0.169 HD
ENDROOT
BRANCH   1   3
HETATM    3  C8  UNL     1      22.151   1.192  50.773  1.00  0.00     0.137 A 
HETATM    4  C2  UNL     1      20.801   0.855  50.839  1.00  0.00    -0.015 A 
HETATM    5  C1  UNL     1      19.873   1.295  49.759  1.00  0.00     0.052 C 
HETATM    6  C3  UNL     1      20.257   0.114  51.883  1.00  0.00     0.029 A 
HETATM    7  C4  UNL     1      21.151  -0.273  52.863  1.00  0.00     0.058 A 
HETATM    8  C5  UNL     1      20.721  -1.017  53.954  1.00  0.00     0.136 A 
HETATM    9  C7  UNL     1      22.495   0.046  52.824  1.00  0.00     0.167 A 
HETATM   10  N2  UNL     1      21.548  -1.420  54.936  1.00  0.00    -0.224 NA
HETATM   11  C6  UNL     1      22.866  -1.087  54.863  1.00  0.00     0.237 A 
HETATM   12  N3  UNL     1      23.327  -0.357  53.809  1.00  0.00    -0.221 NA
HETATM   13  N4  UNL     1      22.922   0.756  51.791  1.00  0.00    -0.210 NA
BRANCH   8  14
HETATM   14  N1  UNL     1      19.340  -1.350  54.002  1.00  0.00    -0.383 N 
HETATM   15  H5  UNL     1      19.083  -1.650  54.988  1.00  0.00     0.157 HD
HETATM   16  H6  UNL     1      18.618  -1.330  53.235  1.00  0.00     0.157 HD
ENDBRANCH   8  14
ENDBRANCH   1   3
BRANCH   1  17
HETATM   17  C9  UNL     1      23.172   3.236  49.445  1.00  0.00     0.106 C 
HETATM   18  C10 UNL     1      24.494   3.231  49.510  1.00  0.00     0.050 C 
HETATM   19  C11 UNL     1      25.361   4.411  49.314  1.00  0.00     0.028 C 
HETATM   20  C12 UNL     1      25.011   5.664  49.174  1.00  0.00     0.075 C 
HETATM   21  C13 UNL     1      23.693   6.308  49.164  1.00  0.00     0.041 C 
HETATM   22  C14 UNL     1      22.525   5.684  49.171  1.00  0.00     0.091 C 
HETATM   23  N7  UNL     1      22.242   4.278  49.190  1.00  0.00    -0.352 N 
HETATM   24  H15 UNL     1      21.258   4.007  48.997  1.00  0.00     0.166 HD
BRANCH  20  25
HETATM   25  S1  UNL     1      26.425   6.702  48.966  1.00  0.00     0.239 S 
HETATM   26  O1  UNL     1      26.330   7.415  47.642  1.00  0.00    -0.206 OA
HETATM   27  O2  UNL     1      26.445   7.747  50.044  1.00  0.00    -0.206 OA
BRANCH  25  28
HETATM   28  N6  UNL     1      27.876   5.804  49.019  1.00  0.00    -0.225 NA
HETATM   29  H11 UNL     1      28.651   6.255  48.501  1.00  0.00     0.136 HD
HETATM   30  H12 UNL     1      27.768   4.798  48.781  1.00  0.00     0.136 HD
ENDBRANCH  25  28
ENDBRANCH  20  25
ENDBRANCH   1  17
TORSDOF 5
ENDMDL
MODEL 7
REMARK VINA RESULT:      -7.4      4.818      8.087
REMARK  5 active torsions:
REMARK  status: ('A' for Active; 'I' for Inactive)
REMARK    1  A    between atoms: C5_5  and  N1_6 
REMARK    2  A    between atoms: C8_12  and  N5_13 
REMARK    3  A    between atoms: N5_13  and  C9_14 
REMARK    4  A    between atoms: C12_17  and  S1_18 
REMARK    5  A    between atoms: S1_18  and  N6_19 
ROOT
HETATM    1  N5  UNL     1      23.742   2.262  50.802  1.00  0.00    -0.327 N 
HETATM    2  H8  UNL     1      22.862   1.917  50.360  1.00  0.00     0.169 HD
ENDROOT
BRANCH   1   3
HETATM    3  C8  UNL     1      23.752   3.538  50.171  1.00  0.00     0.137 A 
HETATM    4  C2  UNL     1      23.257   3.692  48.879  1.00  0.00    -0.015 A 
HETATM    5  C1  UNL     1      22.712   2.513  48.148  1.00  0.00     0.052 C 
HETATM    6  C3  UNL     1      23.242   4.915  48.215  1.00  0.00     0.029 A 
HETATM    7  C4  UNL     1      23.756   5.982  48.927  1.00  0.00     0.058 A 
HETATM    8  C5  UNL     1      23.794   7.250  48.366  1.00  0.00     0.136 A 
HETATM    9  C7  UNL     1      24.254   5.858  50.211  1.00  0.00     0.167 A 
HETATM   10  N2  UNL     1      24.283   8.323  49.014  1.00  0.00    -0.224 NA
HETATM   11  C6  UNL     1      24.765   8.164  50.278  1.00  0.00     0.237 A 
HETATM   12  N3  UNL     1      24.746   6.934  50.864  1.00  0.00    -0.221 NA
HETATM   13  N4  UNL     1      24.227   4.655  50.762  1.00  0.00    -0.210 NA
BRANCH   8  14
HETATM   14  N1  UNL     1      23.284   7.386  47.046  1.00  0.00    -0.383 N 
HETATM   15  H5  UNL     1      22.223   7.415  47.078  1.00  0.00     0.157 HD
HETATM   16  H6  UNL     1      23.802   7.454  46.131  1.00  0.00     0.157 HD
ENDBRANCH   8  14
ENDBRANCH   1   3
BRANCH   1  17
HETATM   17  C9  UNL     1      24.525   1.535  51.712  1.00  0.00     0.106 C 
HETATM   18  C10 UNL     1      25.815   1.725  51.484  1.00  0.00     0.050 C 
HETATM   19  C11 UNL     1      26.916   1.111  52.255  1.00  0.00     0.028 C 
HETATM   20  C12 UNL     1      26.844   0.196  53.187  1.00  0.00     0.075 C 
HETATM   21  C13 UNL     1      25.697  -0.509  53.770  1.00  0.00     0.041 C 
HETATM   22  C14 UNL     1      24.421  -0.245  53.532  1.00  0.00     0.091 C 
HETATM   23  N7  UNL     1      23.841   0.753  52.679  1.00  0.00    -0.352 N 
HETATM   24  H15 UNL     1      22.820   0.911  52.790  1.00  0.00     0.166 HD
BRANCH  20  25
HETATM   25  S1  UNL     1      28.448  -0.209  53.807  1.00  0.00     0.239 S 
HETATM   26  O1  UNL     1      28.424  -0.178  55.313  1.00  0.00    -0.206 OA
HETATM   27  O2  UNL     1      28.811  -1.605  53.388  1.00  0.00    -0.206 OA
BRANCH  25  28
HETATM   28  N6  UNL     1      29.633   0.880  53.240  1.00  0.00    -0.225 NA
HETATM   29  H11 UNL     1      29.231   1.753  52.855  1.00  0.00     0.136 HD
HETATM   30  H12 UNL     1      30.342   0.455  52.610  1.00  0.00     0.136 HD
ENDBRANCH  25  28
ENDBRANCH  20  25
ENDBRANCH   1  17
TORSDOF 5
ENDMDL
MODEL 8
REMARK VINA RESULT:      -7.1      8.672     11.420
REMARK  5 active torsions:
REMARK  status: ('A' for Active; 'I' for Inactive)
REMARK    1  A    between atoms: C5_5  and  N1_6 
REMARK    2  A    between atoms: C8_12  and  N5_13 
REMARK    3  A    between atoms: N5_13  and  C9_14 
REMARK    4  A    between atoms: C12_17  and  S1_18 
REMARK    5  A    between atoms: S1_18  and  N6_19 
ROOT
HETATM    1  N5  UNL     1      19.032  -0.129  53.145  1.00  0.00    -0.327 N 
HETATM    2  H8  UNL     1      18.988   0.911  53.206  1.00  0.00     0.169 HD
ENDROOT
BRANCH   1   3
HETATM    3  C8  UNL     1      20.443  -0.242  53.294  1.00  0.00     0.137 A 
HETATM    4  C2  UNL     1      21.297   0.181  52.278  1.00  0.00    -0.015 A 
HETATM    5  C1  UNL     1      20.732   0.755  51.025  1.00  0.00     0.052 C 
HETATM    6  C3  UNL     1      22.683   0.094  52.371  1.00  0.00     0.029 A 
HETATM    7  C4  UNL     1      23.166  -0.444  53.548  1.00  0.00     0.058 A 
HETATM    8  C5  UNL     1      24.532  -0.580  53.752  1.00  0.00     0.136 A 
HETATM    9  C7  UNL     1      22.343  -0.871  54.572  1.00  0.00     0.167 A 
HETATM   10  N2  UNL     1      25.056  -1.097  54.879  1.00  0.00    -0.224 NA
HETATM   11  C6  UNL     1      24.214  -1.507  55.867  1.00  0.00     0.237 A 
HETATM   12  N3  UNL     1      22.866  -1.391  55.705  1.00  0.00    -0.221 NA
HETATM   13  N4  UNL     1      21.036  -0.750  54.395  1.00  0.00    -0.210 NA
BRANCH   8  14
HETATM   14  N1  UNL     1      25.386  -0.143  52.703  1.00  0.00    -0.383 N 
HETATM   15  H5  UNL     1      25.511  -0.927  51.999  1.00  0.00     0.157 HD
HETATM   16  H6  UNL     1      25.860   0.789  52.569  1.00  0.00     0.157 HD
ENDBRANCH   8  14
ENDBRANCH   1   3
BRANCH   1  17
HETATM   17  C9  UNL     1      17.925  -0.974  52.969  1.00  0.00     0.106 C 
HETATM   18  C10 UNL     1      18.113  -2.135  53.577  1.00  0.00     0.050 C 
HETATM   19  C11 UNL     1      17.149  -3.254  53.594  1.00  0.00     0.028 C 
HETATM   20  C12 UNL     1      16.026  -3.370  52.932  1.00  0.00     0.075 C 
HETATM   21  C13 UNL     1      15.359  -2.470  51.985  1.00  0.00     0.041 C 
HETATM   22  C14 UNL     1      15.733  -1.232  51.697  1.00  0.00     0.091 C 
HETATM   23  N7  UNL     1      16.839  -0.472  52.205  1.00  0.00    -0.352 N 
HETATM   24  H15 UNL     1      16.833   0.544  51.988  1.00  0.00     0.166 HD
BRANCH  20  25
HETATM   25  S1  UNL     1      15.229  -4.904  53.294  1.00  0.00     0.239 S 
HETATM   26  O1  UNL     1      14.028  -4.649  54.168  1.00  0.00    -0.206 OA
HETATM   27  O2  UNL     1      14.738  -5.529  52.020  1.00  0.00    -0.206 OA
BRANCH  25  28
HETATM   28  N6  UNL     1      16.282  -5.987  54.088  1.00  0.00    -0.225 NA
HETATM   29  H11 UNL     1      16.834  -5.537  54.841  1.00  0.00     0.136 HD
HETATM   30  H12 UNL     1      16.869  -6.561  53.452  1.00  0.00     0.136 HD
ENDBRANCH  25  28
ENDBRANCH  20  25
ENDBRANCH   1  17
TORSDOF 5
ENDMDL
MODEL 9
REMARK VINA RESULT:      -7.1      4.314      5.441
REMARK  5 active torsions:
REMARK  status: ('A' for Active; 'I' for Inactive)
REMARK    1  A    between atoms: C5_5  and  N1_6 
REMARK    2  A    between atoms: C8_12  and  N5_13 
REMARK    3  A    between atoms: N5_13  and  C9_14 
REMARK    4  A    between atoms: C12_17  and  S1_18 
REMARK    5  A    between atoms: S1_18  and  N6_19 
ROOT
HETATM    1  N5  UNL     1      21.677   1.660  51.095  1.00  0.00    -0.327 N 
HETATM    2  H8  UNL     1      20.802   1.329  51.557  1.00  0.00     0.169 HD
ENDROOT
BRANCH   1   3
HETATM    3  C8  UNL     1      22.584   1.052  52.007  1.00  0.00     0.137 A 
HETATM    4  C2  UNL     1      22.109   0.314  53.089  1.00  0.00    -0.015 A 
HETATM    5  C1  UNL     1      20.642   0.161  53.296  1.00  0.00     0.052 C 
HETATM    6  C3  UNL     1      22.951  -0.301  54.012  1.00  0.00     0.029 A 
HETATM    7  C4  UNL     1      24.303  -0.134  53.784  1.00  0.00     0.058 A 
HETATM    8  C5  UNL     1      25.236  -0.702  54.639  1.00  0.00     0.136 A 
HETATM    9  C7  UNL     1      24.802   0.592  52.719  1.00  0.00     0.167 A 
HETATM   10  N2  UNL     1      26.565  -0.571  54.465  1.00  0.00    -0.224 NA
HETATM   11  C6  UNL     1      27.019   0.151  53.404  1.00  0.00     0.237 A 
HETATM   12  N3  UNL     1      26.135   0.726  52.541  1.00  0.00    -0.221 NA
HETATM   13  N4  UNL     1      23.926   1.143  51.893  1.00  0.00    -0.210 NA
BRANCH   8  14
HETATM   14  N1  UNL     1      24.732  -1.451  55.738  1.00  0.00    -0.383 N 
HETATM   15  H5  UNL     1      23.682  -1.564  55.636  1.00  0.00     0.157 HD
HETATM   16  H6  UNL     1      25.246  -1.863  56.560  1.00  0.00     0.157 HD
ENDBRANCH   8  14
ENDBRANCH   1   3
BRANCH   1  17
HETATM   17  C9  UNL     1      21.726   2.452  49.937  1.00  0.00     0.106 C 
HETATM   18  C10 UNL     1      20.780   2.100  49.081  1.00  0.00     0.050 C 
HETATM   19  C11 UNL     1      20.548   2.726  47.763  1.00  0.00     0.028 C 
HETATM   20  C12 UNL     1      21.276   3.622  47.148  1.00  0.00     0.075 C 
HETATM   21  C13 UNL     1      22.523   4.290  47.534  1.00  0.00     0.041 C 
HETATM   22  C14 UNL     1      23.121   4.197  48.712  1.00  0.00     0.091 C 
HETATM   23  N7  UNL     1      22.733   3.452  49.875  1.00  0.00    -0.352 N 
HETATM   24  H15 UNL     1      23.243   3.675  50.753  1.00  0.00     0.166 HD
BRANCH  20  25
HETATM   25  S1  UNL     1      20.572   4.053  45.586  1.00  0.00     0.239 S 
HETATM   26  O1  UNL     1      20.512   5.554  45.464  1.00  0.00    -0.206 OA
HETATM   27  O2  UNL     1      21.450   3.543  44.480  1.00  0.00    -0.206 OA
BRANCH  25  28
HETATM   28  N6  UNL     1      19.001   3.411  45.408  1.00  0.00    -0.225 NA
HETATM   29  H11 UNL     1      18.985   2.519  44.881  1.00  0.00     0.136 HD
HETATM   30  H12 UNL     1      18.295   4.091  45.064  1.00  0.00     0.136 HD
ENDBRANCH  25  28
ENDBRANCH  20  25
ENDBRANCH   1  17
TORSDOF 5
ENDMDL
