MODEL 1
REMARK VINA RESULT:      -8.8      0.000      0.000
REMARK  5 active torsions:
REMARK  status: ('A' for Active; 'I' for Inactive)
REMARK    1  A    between atoms: N1_1  and  C1_2 
REMARK    2  A    between atoms: C1_2  and  C2_3 
REMARK    3  A    between atoms: C2_3  and  C3_4 
REMARK    4  A    between atoms: C3_4  and  C4_5 
REMARK    5  A    between atoms: N4_14  and  C11_15 
ROOT
HETATM    1  C4  UNL     1      23.680   0.110  53.377  1.00  0.00    -0.061 C 
HETATM    2  C5  UNL     1      22.595  -0.523  53.891  1.00  0.00     0.006 C 
HETATM    3  C6  UNL     1      21.160  -0.430  53.506  1.00  0.00     0.028 C 
HETATM    4  C7  UNL     1      20.637   0.113  52.422  1.00  0.00     0.043 C 
HETATM    5  C8  UNL     1      21.224   0.262  50.984  1.00  0.00     0.138 C 
HETATM    6  C9  UNL     1      21.829   1.641  51.370  1.00  0.00     0.114 C 
HETATM    7  N2  UNL     1      20.862   2.522  51.317  1.00  0.00    -0.228 NA
HETATM    8  C10 UNL     1      19.550   2.104  51.899  1.00  0.00     0.235 C 
HETATM    9  N3  UNL     1      19.385   0.854  52.457  1.00  0.00    -0.246 NA
HETATM   10  N4  UNL     1      23.117   1.972  51.832  1.00  0.00    -0.331 N 
HETATM   11  C17 UNL     1      24.141   1.180  52.469  1.00  0.00     0.164 C 
ENDROOT
BRANCH   1  12
HETATM   12  C3  UNL     1      24.849  -0.556  53.971  1.00  0.00     0.041 C 
BRANCH  12  13
HETATM   13  C2  UNL     1      25.910  -0.985  52.999  1.00  0.00     0.076 C 
BRANCH  13  14
HETATM   14  C1  UNL     1      27.283  -0.549  53.466  1.00  0.00     0.260 C 
HETATM   15  C18 UNL     1      27.717   0.706  52.736  1.00  0.00     0.098 C 
HETATM   16  C19 UNL     1      28.977   1.129  53.460  1.00  0.00    -0.024 C 
HETATM   17  C20 UNL     1      29.773   0.140  53.859  1.00  0.00    -0.005 C 
HETATM   18  C21 UNL     1      29.464  -1.297  53.620  1.00  0.00     0.198 C 
HETATM   19  O1  UNL     1      28.209  -1.529  53.154  1.00  0.00    -0.349 OA
BRANCH  14  20
HETATM   20  N1  UNL     1      27.274  -0.371  54.887  1.00  0.00     0.114 N 
HETATM   21  H1  UNL     1      27.381  -1.255  55.423  1.00  0.00     0.316 HD
HETATM   22  H2  UNL     1      26.541   0.266  55.240  1.00  0.00     0.316 HD
ENDBRANCH  14  20
ENDBRANCH  13  14
ENDBRANCH  12  13
ENDBRANCH   1  12
BRANCH  10  23
HETATM   23  C11 UNL     1      23.212   3.355  51.525  1.00  0.00     0.037 A 
HETATM   24  C12 UNL     1      23.375   4.334  52.442  1.00  0.00     0.030 A 
HETATM   25  C13 UNL     1      23.476   5.642  52.059  1.00  0.00     0.004 A 
HETATM   26  C14 UNL     1      23.422   6.053  50.759  1.00  0.00     0.019 A 
HETATM   27  C15 UNL     1      23.253   5.058  49.796  1.00  0.00     0.013 A 
HETATM   28 BR1  UNL     1      23.177   5.631  47.980  1.00  0.00    -0.051 Br
HETATM   29  C16 UNL     1      23.153   3.726  50.210  1.00  0.00     0.048 A 
ENDBRANCH  10  23
TORSDOF 5
ENDMDL
MODEL 2
REMARK VINA RESULT:      -8.8      1.228      1.286
REMARK  5 active torsions:
REMARK  status: ('A' for Active; 'I' for Inactive)
REMARK    1  A    between atoms: N1_1  and  C1_2 
REMARK    2  A    between atoms: C1_2  and  C2_3 
REMARK    3  A    between atoms: C2_3  and  C3_4 
REMARK    4  A    between atoms: C3_4  and  C4_5 
REMARK    5  A    between atoms: N4_14  and  C11_15 
ROOT
HETATM    1  C4  UNL     1      23.856   0.652  53.005  1.00  0.00    -0.061 C 
HETATM    2  C5  UNL     1      22.633   0.128  53.268  1.00  0.00     0.006 C 
HETATM    3  C6  UNL     1      21.322   0.371  52.607  1.00  0.00     0.028 C 
HETATM    4  C7  UNL     1      21.086   0.978  51.458  1.00  0.00     0.043 C 
HETATM    5  C8  UNL     1      21.964   1.085  50.173  1.00  0.00     0.138 C 
HETATM    6  C9  UNL     1      22.609   2.390  50.718  1.00  0.00     0.114 C 
HETATM    7  N2  UNL     1      21.764   3.365  50.501  1.00  0.00    -0.228 NA
HETATM    8  C10 UNL     1      20.326   3.077  50.793  1.00  0.00     0.235 C 
HETATM    9  N3  UNL     1      19.931   1.843  51.265  1.00  0.00    -0.246 NA
HETATM   10  N4  UNL     1      23.803   2.582  51.439  1.00  0.00    -0.331 N 
HETATM   11  C17 UNL     1      24.594   1.681  52.243  1.00  0.00     0.164 C 
ENDROOT
BRANCH   1  12
HETATM   12  C3  UNL     1      24.809  -0.137  53.799  1.00  0.00     0.041 C 
BRANCH  12  13
HETATM   13  C2  UNL     1      25.812  -0.926  53.006  1.00  0.00     0.076 C 
BRANCH  13  14
HETATM   14  C1  UNL     1      27.225  -0.619  53.457  1.00  0.00     0.260 C 
HETATM   15  C18 UNL     1      27.747   0.619  52.756  1.00  0.00     0.098 C 
HETATM   16  C19 UNL     1      29.051   0.915  53.465  1.00  0.00    -0.024 C 
HETATM   17  C20 UNL     1      29.769  -0.149  53.817  1.00  0.00    -0.005 C 
HETATM   18  C21 UNL     1      29.338  -1.546  53.543  1.00  0.00     0.198 C 
HETATM   19  O1  UNL     1      28.060  -1.660  53.097  1.00  0.00    -0.349 OA
BRANCH  14  20
HETATM   20  N1  UNL     1      27.256  -0.485  54.882  1.00  0.00     0.114 N 
HETATM   21  H1  UNL     1      27.202   0.499  55.214  1.00  0.00     0.316 HD
HETATM   22  H2  UNL     1      27.967  -1.065  55.358  1.00  0.00     0.316 HD
ENDBRANCH  14  20
ENDBRANCH  13  14
ENDBRANCH  12  13
ENDBRANCH   1  12
BRANCH  10  23
HETATM   23  C11 UNL     1      24.093   3.951  51.204  1.00  0.00     0.037 A 
HETATM   24  C12 UNL     1      23.515   4.982  51.861  1.00  0.00     0.030 A 
HETATM   25  C13 UNL     1      23.866   6.273  51.585  1.00  0.00     0.004 A 
HETATM   26  C14 UNL     1      24.799   6.617  50.651  1.00  0.00     0.019 A 
HETATM   27  C15 UNL     1      25.407   5.569  49.960  1.00  0.00     0.013 A 
HETATM   28 BR1  UNL     1      26.710   6.048  48.654  1.00  0.00    -0.051 Br
HETATM   29  C16 UNL     1      25.033   4.255  50.259  1.00  0.00     0.048 A 
ENDBRANCH  10  23
TORSDOF 5
ENDMDL
MODEL 3
REMARK VINA RESULT:      -8.8      2.460      3.401
REMARK  5 active torsions:
REMARK  status: ('A' for Active; 'I' for Inactive)
REMARK    1  A    between atoms: N1_1  and  C1_2 
REMARK    2  A    between atoms: C1_2  and  C2_3 
REMARK    3  A    between atoms: C2_3  and  C3_4 
REMARK    4  A    between atoms: C3_4  and  C4_5 
REMARK    5  A    between atoms: N4_14  and  C11_15 
ROOT
HETATM    1  C4  UNL     1      24.630   2.270  52.308  1.00  0.00    -0.061 C 
HETATM    2  C5  UNL     1      23.292   2.257  52.539  1.00  0.00     0.006 C 
HETATM    3  C6  UNL     1      22.164   2.680  51.665  1.00  0.00     0.028 C 
HETATM    4  C7  UNL     1      22.187   2.950  50.373  1.00  0.00     0.043 C 
HETATM    5  C8  UNL     1      23.096   2.384  49.239  1.00  0.00     0.138 C 
HETATM    6  C9  UNL     1      24.121   3.525  49.485  1.00  0.00     0.114 C 
HETATM    7  N2  UNL     1      23.660   4.599  48.896  1.00  0.00    -0.228 NA
HETATM    8  C10 UNL     1      22.200   4.873  49.060  1.00  0.00     0.235 C 
HETATM    9  N3  UNL     1      21.396   4.027  49.796  1.00  0.00    -0.246 NA
HETATM   10  N4  UNL     1      25.283   3.549  50.280  1.00  0.00    -0.331 N 
HETATM   11  C17 UNL     1      25.697   2.737  51.399  1.00  0.00     0.164 C 
ENDROOT
BRANCH   1  12
HETATM   12  C3  UNL     1      25.233   1.507  53.410  1.00  0.00     0.041 C 
BRANCH  12  13
HETATM   13  C2  UNL     1      26.660   1.853  53.729  1.00  0.00     0.076 C 
BRANCH  13  14
HETATM   14  C1  UNL     1      27.527   0.612  53.759  1.00  0.00     0.260 C 
HETATM   15  C18 UNL     1      28.963   0.962  53.428  1.00  0.00     0.098 C 
HETATM   16  C19 UNL     1      29.722  -0.316  53.714  1.00  0.00    -0.024 C 
HETATM   17  C20 UNL     1      29.095  -1.445  53.390  1.00  0.00    -0.005 C 
HETATM   18  C21 UNL     1      27.736  -1.472  52.785  1.00  0.00     0.198 C 
HETATM   19  O1  UNL     1      27.099  -0.272  52.785  1.00  0.00    -0.349 OA
BRANCH  14  20
HETATM   20  N1  UNL     1      27.407  -0.028  55.035  1.00  0.00     0.114 N 
HETATM   21  H1  UNL     1      28.305  -0.402  55.403  1.00  0.00     0.316 HD
HETATM   22  H2  UNL     1      26.599  -0.666  55.127  1.00  0.00     0.316 HD
ENDBRANCH  14  20
ENDBRANCH  13  14
ENDBRANCH  12  13
ENDBRANCH   1  12
BRANCH  10  23
HETATM   23  C11 UNL     1      26.024   4.621  49.717  1.00  0.00     0.037 A 
HETATM   24  C12 UNL     1      27.093   4.471  48.904  1.00  0.00     0.030 A 
HETATM   25  C13 UNL     1      27.740   5.559  48.390  1.00  0.00     0.004 A 
HETATM   26  C14 UNL     1      27.371   6.846  48.649  1.00  0.00     0.019 A 
HETATM   27  C15 UNL     1      26.271   7.024  49.486  1.00  0.00     0.013 A 
HETATM   28 BR1  UNL     1      25.754   8.823  49.849  1.00  0.00    -0.051 Br
HETATM   29  C16 UNL     1      25.623   5.897  50.001  1.00  0.00     0.048 A 
ENDBRANCH  10  23
TORSDOF 5
ENDMDL
MODEL 4
REMARK VINA RESULT:      -8.6      2.316      3.137
REMARK  5 active torsions:
REMARK  status: ('A' for Active; 'I' for Inactive)
REMARK    1  A    between atoms: N1_1  and  C1_2 
REMARK    2  A    between atoms: C1_2  and  C2_3 
REMARK    3  A    between atoms: C2_3  and  C3_4 
REMARK    4  A    between atoms: C3_4  and  C4_5 
REMARK    5  A    between atoms: N4_14  and  C11_15 
ROOT
HETATM    1  C4  UNL     1      24.073   1.687  51.540  1.00  0.00    -0.061 C 
HETATM    2  C5  UNL     1      22.785   1.267  51.476  1.00  0.00     0.006 C 
HETATM    3  C6  UNL     1      21.698   1.645  50.533  1.00  0.00     0.028 C 
HETATM    4  C7  UNL     1      21.796   2.303  49.392  1.00  0.00     0.043 C 
HETATM    5  C8  UNL     1      22.966   2.368  48.362  1.00  0.00     0.138 C 
HETATM    6  C9  UNL     1      23.562   3.593  49.109  1.00  0.00     0.114 C 
HETATM    7  N2  UNL     1      22.875   4.646  48.744  1.00  0.00    -0.228 NA
HETATM    8  C10 UNL     1      21.392   4.479  48.669  1.00  0.00     0.235 C 
HETATM    9  N3  UNL     1      20.796   3.272  48.971  1.00  0.00    -0.246 NA
HETATM   10  N4  UNL     1      24.556   3.657  50.104  1.00  0.00    -0.331 N 
HETATM   11  C17 UNL     1      25.054   2.667  51.028  1.00  0.00     0.164 C 
ENDROOT
BRANCH   1  12
HETATM   12  C3  UNL     1      24.739   0.794  52.499  1.00  0.00     0.041 C 
BRANCH  12  13
HETATM   13  C2  UNL     1      25.635   1.472  53.497  1.00  0.00     0.076 C 
BRANCH  13  14
HETATM   14  C1  UNL     1      26.978   0.778  53.579  1.00  0.00     0.260 C 
HETATM   15  C18 UNL     1      26.850  -0.674  53.164  1.00  0.00     0.098 C 
HETATM   16  C19 UNL     1      28.283  -1.156  53.086  1.00  0.00    -0.024 C 
HETATM   17  C20 UNL     1      29.105  -0.676  54.017  1.00  0.00    -0.005 C 
HETATM   18  C21 UNL     1      28.665   0.274  55.074  1.00  0.00     0.198 C 
HETATM   19  O1  UNL     1      27.417   0.778  54.891  1.00  0.00    -0.349 OA
BRANCH  14  20
HETATM   20  N1  UNL     1      27.935   1.484  52.781  1.00  0.00     0.114 N 
HETATM   21  H1  UNL     1      28.402   2.268  53.281  1.00  0.00     0.316 HD
HETATM   22  H2  UNL     1      27.622   1.705  51.821  1.00  0.00     0.316 HD
ENDBRANCH  14  20
ENDBRANCH  13  14
ENDBRANCH  12  13
ENDBRANCH   1  12
BRANCH  10  23
HETATM   23  C11 UNL     1      25.003   5.002  50.012  1.00  0.00     0.037 A 
HETATM   24  C12 UNL     1      24.495   6.029  50.729  1.00  0.00     0.030 A 
HETATM   25  C13 UNL     1      24.997   7.293  50.593  1.00  0.00     0.004 A 
HETATM   26  C14 UNL     1      26.019   7.610  49.747  1.00  0.00     0.019 A 
HETATM   27  C15 UNL     1      26.557   6.565  48.998  1.00  0.00     0.013 A 
HETATM   28 BR1  UNL     1      27.986   7.008  47.816  1.00  0.00    -0.051 Br
HETATM   29  C16 UNL     1      26.029   5.280  49.153  1.00  0.00     0.048 A 
ENDBRANCH  10  23
TORSDOF 5
ENDMDL
MODEL 5
REMARK VINA RESULT:      -8.1      2.446      4.335
REMARK  5 active torsions:
REMARK  status: ('A' for Active; 'I' for Inactive)
REMARK    1  A    between atoms: N1_1  and  C1_2 
REMARK    2  A    between atoms: C1_2  and  C2_3 
REMARK    3  A    between atoms: C2_3  and  C3_4 
REMARK    4  A    between atoms: C3_4  and  C4_5 
REMARK    5  A    between atoms: N4_14  and  C11_15 
ROOT
HETATM    1  C4  UNL     1      24.558   1.882  51.603  1.00  0.00    -0.061 C 
HETATM    2  C5  UNL     1      25.091   3.039  51.136  1.00  0.00     0.006 C 
HETATM    3  C6  UNL     1      24.464   4.375  50.942  1.00  0.00     0.028 C 
HETATM    4  C7  UNL     1      23.303   4.807  51.397  1.00  0.00     0.043 C 
HETATM    5  C8  UNL     1      22.517   4.420  52.688  1.00  0.00     0.138 C 
HETATM    6  C9  UNL     1      21.781   3.295  51.908  1.00  0.00     0.114 C 
HETATM    7  N2  UNL     1      20.824   3.861  51.217  1.00  0.00    -0.228 NA
HETATM    8  C10 UNL     1      21.172   5.136  50.518  1.00  0.00     0.235 C 
HETATM    9  N3  UNL     1      22.439   5.673  50.609  1.00  0.00    -0.246 NA
HETATM   10  N4  UNL     1      22.080   1.925  51.789  1.00  0.00    -0.331 N 
HETATM   11  C17 UNL     1      23.308   1.191  51.980  1.00  0.00     0.164 C 
ENDROOT
BRANCH   1  12
HETATM   12  C3  UNL     1      25.695   0.974  51.815  1.00  0.00     0.041 C 
BRANCH  12  13
HETATM   13  C2  UNL     1      25.731   0.287  53.151  1.00  0.00     0.076 C 
BRANCH  13  14
HETATM   14  C1  UNL     1      27.152  -0.063  53.542  1.00  0.00     0.260 C 
HETATM   15  C18 UNL     1      28.102   1.045  53.135  1.00  0.00     0.098 C 
HETATM   16  C19 UNL     1      29.413   0.654  53.781  1.00  0.00    -0.024 C 
HETATM   17  C20 UNL     1      29.686  -0.648  53.790  1.00  0.00    -0.005 C 
HETATM   18  C21 UNL     1      28.775  -1.672  53.208  1.00  0.00     0.198 C 
HETATM   19  O1  UNL     1      27.551  -1.198  52.859  1.00  0.00    -0.349 OA
BRANCH  14  20
HETATM   20  N1  UNL     1      27.211  -0.335  54.946  1.00  0.00     0.114 N 
HETATM   21  H1  UNL     1      27.036  -1.331  55.190  1.00  0.00     0.316 HD
HETATM   22  H2  UNL     1      26.720   0.352  55.543  1.00  0.00     0.316 HD
ENDBRANCH  14  20
ENDBRANCH  13  14
ENDBRANCH  12  13
ENDBRANCH   1  12
BRANCH  10  23
HETATM   23  C11 UNL     1      20.832   1.366  51.408  1.00  0.00     0.037 A 
HETATM   24  C12 UNL     1      20.238   1.561  50.209  1.00  0.00     0.030 A 
HETATM   25  C13 UNL     1      19.042   0.969  49.916  1.00  0.00     0.004 A 
HETATM   26  C14 UNL     1      18.371   0.158  50.783  1.00  0.00     0.019 A 
HETATM   27  C15 UNL     1      18.965  -0.057  52.025  1.00  0.00     0.013 A 
HETATM   28 BR1  UNL     1      18.027  -1.190  53.238  1.00  0.00    -0.051 Br
HETATM   29  C16 UNL     1      20.190   0.558  52.305  1.00  0.00     0.048 A 
ENDBRANCH  10  23
TORSDOF 5
ENDMDL
MODEL 6
REMARK VINA RESULT:      -8.1      1.720      2.267
REMARK  5 active torsions:
REMARK  status: ('A' for Active; 'I' for Inactive)
REMARK    1  A    between atoms: N1_1  and  C1_2 
REMARK    2  A    between atoms: C1_2  and  C2_3 
REMARK    3  A    between atoms: C2_3  and  C3_4 
REMARK    4  A    between atoms: C3_4  and  C4_5 
REMARK    5  A    between atoms: N4_14  and  C11_15 
ROOT
HETATM    1  C4  UNL     1      23.380   1.197  52.564  1.00  0.00    -0.061 C 
HETATM    2  C5  UNL     1      22.349   0.841  53.371  1.00  0.00     0.006 C 
HETATM    3  C6  UNL     1      20.883   0.854  53.117  1.00  0.00     0.028 C 
HETATM    4  C7  UNL     1      20.254   0.993  51.964  1.00  0.00     0.043 C 
HETATM    5  C8  UNL     1      20.688   0.590  50.522  1.00  0.00     0.138 C 
HETATM    6  C9  UNL     1      21.341   1.986  50.323  1.00  0.00     0.114 C 
HETATM    7  N2  UNL     1      20.380   2.831  50.046  1.00  0.00    -0.228 NA
HETATM    8  C10 UNL     1      19.133   2.710  50.861  1.00  0.00     0.235 C 
HETATM    9  N3  UNL     1      19.017   1.752  51.847  1.00  0.00    -0.246 NA
HETATM   10  N4  UNL     1      22.672   2.403  50.509  1.00  0.00    -0.331 N 
HETATM   11  C17 UNL     1      23.751   1.848  51.290  1.00  0.00     0.164 C 
ENDROOT
BRANCH   1  12
HETATM   12  C3  UNL     1      24.599   0.738  53.245  1.00  0.00     0.041 C 
BRANCH  12  13
HETATM   13  C2  UNL     1      25.511   1.825  53.738  1.00  0.00     0.076 C 
BRANCH  13  14
HETATM   14  C1  UNL     1      26.961   1.394  53.662  1.00  0.00     0.260 C 
HETATM   15  C18 UNL     1      27.216   0.230  54.598  1.00  0.00     0.098 C 
HETATM   16  C19 UNL     1      28.619  -0.216  54.247  1.00  0.00    -0.024 C 
HETATM   17  C20 UNL     1      29.478   0.757  53.954  1.00  0.00    -0.005 C 
HETATM   18  C21 UNL     1      29.105   2.198  53.965  1.00  0.00     0.198 C 
HETATM   19  O1  UNL     1      27.772   2.430  54.088  1.00  0.00    -0.349 OA
BRANCH  14  20
HETATM   20  N1  UNL     1      27.300   1.081  52.307  1.00  0.00     0.114 N 
HETATM   21  H1  UNL     1      26.637   1.470  51.607  1.00  0.00     0.316 HD
HETATM   22  H2  UNL     1      27.577   0.098  52.144  1.00  0.00     0.316 HD
ENDBRANCH  14  20
ENDBRANCH  13  14
ENDBRANCH  12  13
ENDBRANCH   1  12
BRANCH  10  23
HETATM   23  C11 UNL     1      22.746   3.577  49.714  1.00  0.00     0.037 A 
HETATM   24  C12 UNL     1      22.605   3.603  48.370  1.00  0.00     0.030 A 
HETATM   25  C13 UNL     1      22.672   4.782  47.683  1.00  0.00     0.004 A 
HETATM   26  C14 UNL     1      22.881   5.991  48.278  1.00  0.00     0.019 A 
HETATM   27  C15 UNL     1      23.029   5.987  49.665  1.00  0.00     0.013 A 
HETATM   28 BR1  UNL     1      23.321   7.676  50.499  1.00  0.00    -0.051 Br
HETATM   29  C16 UNL     1      22.957   4.769  50.349  1.00  0.00     0.048 A 
ENDBRANCH  10  23
TORSDOF 5
ENDMDL
MODEL 7
REMARK VINA RESULT:      -8.0      3.957      6.524
REMARK  5 active torsions:
REMARK  status: ('A' for Active; 'I' for Inactive)
REMARK    1  A    between atoms: N1_1  and  C1_2 
REMARK    2  A    between atoms: C1_2  and  C2_3 
REMARK    3  A    between atoms: C2_3  and  C3_4 
REMARK    4  A    between atoms: C3_4  and  C4_5 
REMARK    5  A    between atoms: N4_14  and  C11_15 
ROOT
HETATM    1  C4  UNL     1      24.201   4.711  49.978  1.00  0.00    -0.061 C 
HETATM    2  C5  UNL     1      23.742   4.700  48.700  1.00  0.00     0.006 C 
HETATM    3  C6  UNL     1      22.653   3.898  48.080  1.00  0.00     0.028 C 
HETATM    4  C7  UNL     1      21.724   3.178  48.680  1.00  0.00     0.043 C 
HETATM    5  C8  UNL     1      21.045   3.363  50.072  1.00  0.00     0.138 C 
HETATM    6  C9  UNL     1      22.141   2.477  50.728  1.00  0.00     0.114 C 
HETATM    7  N2  UNL     1      21.831   1.228  50.486  1.00  0.00    -0.228 NA
HETATM    8  C10 UNL     1      21.362   0.916  49.101  1.00  0.00     0.235 C 
HETATM    9  N3  UNL     1      21.267   1.904  48.143  1.00  0.00    -0.246 NA
HETATM   10  N4  UNL     1      23.342   2.838  51.367  1.00  0.00    -0.331 N 
HETATM   11  C17 UNL     1      24.148   4.033  51.289  1.00  0.00     0.164 C 
ENDROOT
BRANCH   1  12
HETATM   12  C3  UNL     1      25.101   5.870  50.069  1.00  0.00     0.041 C 
BRANCH  12  13
HETATM   13  C2  UNL     1      25.341   6.604  48.781  1.00  0.00     0.076 C 
BRANCH  13  14
HETATM   14  C1  UNL     1      26.823   6.783  48.526  1.00  0.00     0.260 C 
HETATM   15  C18 UNL     1      27.051   7.502  47.211  1.00  0.00     0.098 C 
HETATM   16  C19 UNL     1      28.535   7.796  47.211  1.00  0.00    -0.024 C 
HETATM   17  C20 UNL     1      29.311   6.848  47.731  1.00  0.00    -0.005 C 
HETATM   18  C21 UNL     1      28.776   5.573  48.282  1.00  0.00     0.198 C 
HETATM   19  O1  UNL     1      27.424   5.542  48.408  1.00  0.00    -0.349 OA
BRANCH  14  20
HETATM   20  N1  UNL     1      27.421   7.473  49.628  1.00  0.00     0.114 N 
HETATM   21  H1  UNL     1      26.774   7.631  50.427  1.00  0.00     0.316 HD
HETATM   22  H2  UNL     1      27.999   8.290  49.369  1.00  0.00     0.316 HD
ENDBRANCH  14  20
ENDBRANCH  13  14
ENDBRANCH  12  13
ENDBRANCH   1  12
BRANCH  10  23
HETATM   23  C11 UNL     1      23.627   1.698  52.163  1.00  0.00     0.037 A 
HETATM   24  C12 UNL     1      22.754   1.124  53.021  1.00  0.00     0.030 A 
HETATM   25  C13 UNL     1      23.105   0.015  53.738  1.00  0.00     0.004 A 
HETATM   26  C14 UNL     1      24.327  -0.584  53.650  1.00  0.00     0.019 A 
HETATM   27  C15 UNL     1      25.244  -0.007  52.771  1.00  0.00     0.013 A 
HETATM   28 BR1  UNL     1      26.953  -0.842  52.648  1.00  0.00    -0.051 Br
HETATM   29  C16 UNL     1      24.864   1.127  52.047  1.00  0.00     0.048 A 
ENDBRANCH  10  23
TORSDOF 5
ENDMDL
MODEL 8
REMARK VINA RESULT:      -7.9      5.327      7.510
REMARK  5 active torsions:
REMARK  status: ('A' for Active; 'I' for Inactive)
REMARK    1  A    between atoms: N1_1  and  C1_2 
REMARK    2  A    between atoms: C1_2  and  C2_3 
REMARK    3  A    between atoms: C2_3  and  C3_4 
REMARK    4  A    between atoms: C3_4  and  C4_5 
REMARK    5  A    between atoms: N4_14  and  C11_15 
ROOT
HETATM    1  C4  UNL     1      26.678   5.770  48.785  1.00  0.00    -0.061 C 
HETATM    2  C5  UNL     1      26.385   7.044  48.417  1.00  0.00     0.006 C 
HETATM    3  C6  UNL     1      25.224   7.902  48.775  1.00  0.00     0.028 C 
HETATM    4  C7  UNL     1      24.324   7.708  49.722  1.00  0.00     0.043 C 
HETATM    5  C8  UNL     1      24.444   6.978  51.095  1.00  0.00     0.138 C 
HETATM    6  C9  UNL     1      24.016   5.641  50.427  1.00  0.00     0.114 C 
HETATM    7  N2  UNL     1      22.714   5.670  50.295  1.00  0.00    -0.228 NA
HETATM    8  C10 UNL     1      22.122   6.956  49.816  1.00  0.00     0.235 C 
HETATM    9  N3  UNL     1      22.920   8.045  49.533  1.00  0.00    -0.246 NA
HETATM   10  N4  UNL     1      24.798   4.594  49.905  1.00  0.00    -0.331 N 
HETATM   11  C17 UNL     1      26.166   4.553  49.447  1.00  0.00     0.164 C 
ENDROOT
BRANCH   1  12
HETATM   12  C3  UNL     1      28.060   5.534  48.342  1.00  0.00     0.041 C 
BRANCH  12  13
HETATM   13  C2  UNL     1      28.744   6.711  47.707  1.00  0.00     0.076 C 
BRANCH  13  14
HETATM   14  C1  UNL     1      30.139   6.896  48.266  1.00  0.00     0.260 C 
HETATM   15  C18 UNL     1      30.343   8.328  48.718  1.00  0.00     0.098 C 
HETATM   16  C19 UNL     1      31.673   8.294  49.440  1.00  0.00    -0.024 C 
HETATM   17  C20 UNL     1      32.599   7.501  48.907  1.00  0.00    -0.005 C 
HETATM   18  C21 UNL     1      32.364   6.690  47.681  1.00  0.00     0.198 C 
HETATM   19  O1  UNL     1      31.070   6.658  47.270  1.00  0.00    -0.349 OA
BRANCH  14  20
HETATM   20  N1  UNL     1      30.361   5.959  49.326  1.00  0.00     0.114 N 
HETATM   21  H1  UNL     1      31.165   6.200  49.940  1.00  0.00     0.316 HD
HETATM   22  H2  UNL     1      30.311   4.965  49.045  1.00  0.00     0.316 HD
ENDBRANCH  14  20
ENDBRANCH  13  14
ENDBRANCH  12  13
ENDBRANCH   1  12
BRANCH  10  23
HETATM   23  C11 UNL     1      23.896   3.497  49.914  1.00  0.00     0.037 A 
HETATM   24  C12 UNL     1      23.156   3.104  48.853  1.00  0.00     0.030 A 
HETATM   25  C13 UNL     1      22.324   2.024  48.942  1.00  0.00     0.004 A 
HETATM   26  C14 UNL     1      22.177   1.278  50.074  1.00  0.00     0.019 A 
HETATM   27  C15 UNL     1      22.930   1.666  51.181  1.00  0.00     0.013 A 
HETATM   28 BR1  UNL     1      22.725   0.625  52.764  1.00  0.00    -0.051 Br
HETATM   29  C16 UNL     1      23.776   2.775  51.068  1.00  0.00     0.048 A 
ENDBRANCH  10  23
TORSDOF 5
ENDMDL
MODEL 9
REMARK VINA RESULT:      -7.9      3.090      4.475
REMARK  5 active torsions:
REMARK  status: ('A' for Active; 'I' for Inactive)
REMARK    1  A    between atoms: N1_1  and  C1_2 
REMARK    2  A    between atoms: C1_2  and  C2_3 
REMARK    3  A    between atoms: C2_3  and  C3_4 
REMARK    4  A    between atoms: C3_4  and  C4_5 
REMARK    5  A    between atoms: N4_14  and  C11_15 
ROOT
HETATM    1  C4  UNL     1      24.013   3.169  50.915  1.00  0.00    -0.061 C 
HETATM    2  C5  UNL     1      22.658   3.178  51.002  1.00  0.00     0.006 C 
HETATM    3  C6  UNL     1      21.654   3.971  50.243  1.00  0.00     0.028 C 
HETATM    4  C7  UNL     1      21.833   4.682  49.145  1.00  0.00     0.043 C 
HETATM    5  C8  UNL     1      22.840   4.488  47.970  1.00  0.00     0.138 C 
HETATM    6  C9  UNL     1      23.876   5.383  48.706  1.00  0.00     0.114 C 
HETATM    7  N2  UNL     1      23.528   6.629  48.507  1.00  0.00    -0.228 NA
HETATM    8  C10 UNL     1      22.070   6.939  48.626  1.00  0.00     0.235 C 
HETATM    9  N3  UNL     1      21.156   5.952  48.928  1.00  0.00    -0.246 NA
HETATM   10  N4  UNL     1      24.941   5.031  49.557  1.00  0.00    -0.331 N 
HETATM   11  C17 UNL     1      25.193   3.845  50.338  1.00  0.00     0.164 C 
ENDROOT
BRANCH   1  12
HETATM   12  C3  UNL     1      24.458   2.018  51.715  1.00  0.00     0.041 C 
BRANCH  12  13
HETATM   13  C2  UNL     1      25.242   2.356  52.951  1.00  0.00     0.076 C 
BRANCH  13  14
HETATM   14  C1  UNL     1      26.405   1.404  53.133  1.00  0.00     0.260 C 
HETATM   15  C18 UNL     1      26.058   0.034  52.588  1.00  0.00     0.098 C 
HETATM   16  C19 UNL     1      27.369  -0.720  52.640  1.00  0.00    -0.024 C 
HETATM   17  C20 UNL     1      28.138  -0.468  53.697  1.00  0.00    -0.005 C 
HETATM   18  C21 UNL     1      27.753   0.488  54.770  1.00  0.00     0.198 C 
HETATM   19  O1  UNL     1      26.659   1.241  54.483  1.00  0.00    -0.349 OA
BRANCH  14  20
HETATM   20  N1  UNL     1      27.575   1.950  52.515  1.00  0.00     0.114 N 
HETATM   21  H1  UNL     1      27.416   2.300  51.548  1.00  0.00     0.316 HD
HETATM   22  H2  UNL     1      28.434   1.389  52.638  1.00  0.00     0.316 HD
ENDBRANCH  14  20
ENDBRANCH  13  14
ENDBRANCH  12  13
ENDBRANCH   1  12
BRANCH  10  23
HETATM   23  C11 UNL     1      25.783   6.173  49.491  1.00  0.00     0.037 A 
HETATM   24  C12 UNL     1      25.657   7.264  50.279  1.00  0.00     0.030 A 
HETATM   25  C13 UNL     1      26.524   8.314  50.163  1.00  0.00     0.004 A 
HETATM   26  C14 UNL     1      27.553   8.346  49.269  1.00  0.00     0.019 A 
HETATM   27  C15 UNL     1      27.700   7.231  48.445  1.00  0.00     0.013 A 
HETATM   28 BR1  UNL     1      29.138   7.275  47.195  1.00  0.00    -0.051 Br
HETATM   29  C16 UNL     1      26.803   6.167  48.581  1.00  0.00     0.048 A 
ENDBRANCH  10  23
TORSDOF 5
ENDMDL
