MODEL 1
REMARK VINA RESULT:      -9.6      0.000      0.000
REMARK  3 active torsions:
REMARK  status: ('A' for Active; 'I' for Inactive)
REMARK    1  A    between atoms: O1_1  and  C1_2 
REMARK    2  A    between atoms: C4_6  and  C5_7 
REMARK    3  A    between atoms: C6_9  and  N2_10 
ROOT
HETATM    1  C5  UNL     1      25.780   0.392  52.649  1.00  0.00     0.162 A 
HETATM    2  N1  UNL     1      25.620   1.507  51.887  1.00  0.00    -0.208 NA
HETATM    3  C6  UNL     1      24.419   1.999  51.579  1.00  0.00     0.165 A 
HETATM    4  C11 UNL     1      23.262   1.368  52.039  1.00  0.00     0.153 A 
HETATM    5  O3  UNL     1      21.968   1.591  51.915  1.00  0.00    -0.285 OA
HETATM    6  C12 UNL     1      21.283   0.675  52.560  1.00  0.00     0.182 A 
HETATM    7  N3  UNL     1      19.949   0.463  52.736  1.00  0.00    -0.236 NA
HETATM    8  C13 UNL     1      19.565  -0.593  53.469  1.00  0.00     0.119 A 
HETATM    9  C14 UNL     1      20.414  -1.501  54.071  1.00  0.00     0.020 A 
HETATM   10  C15 UNL     1      21.772  -1.296  53.899  1.00  0.00     0.020 A 
HETATM   11  C16 UNL     1      22.168  -0.215  53.148  1.00  0.00     0.049 A 
HETATM   12  C17 UNL     1      23.439   0.223  52.820  1.00  0.00     0.111 A 
HETATM   13  N4  UNL     1      24.686  -0.224  53.096  1.00  0.00    -0.225 NA
ENDROOT
BRANCH   1  14
HETATM   14  C4  UNL     1      27.126  -0.101  52.956  1.00  0.00     0.016 C 
HETATM   15  C3  UNL     1      28.187   0.837  53.214  1.00  0.00     0.035 C 
HETATM   16  C2  UNL     1      29.352   0.573  53.708  1.00  0.00     0.025 C 
HETATM   17  S1  UNL     1      29.849  -0.962  53.579  1.00  0.00    -0.065 SA
HETATM   18  C1  UNL     1      28.630  -2.018  53.283  1.00  0.00     0.108 C 
HETATM   19  C18 UNL     1      27.326  -1.409  52.988  1.00  0.00     0.059 C 
BRANCH  18  20
HETATM   20  O1  UNL     1      28.693  -3.421  53.282  1.00  0.00    -0.354 OA
HETATM   21  H1  UNL     1      29.139  -3.868  52.472  1.00  0.00     0.218 HD
ENDBRANCH  18  20
ENDBRANCH   1  14
BRANCH   3  22
HETATM   22  N2  UNL     1      24.174   3.151  50.795  1.00  0.00    -0.359 N 
HETATM   23  C7  UNL     1      24.096   3.164  49.360  1.00  0.00     0.151 C 
HETATM   24  C8  UNL     1      22.787   3.728  48.891  1.00  0.00     0.187 C 
HETATM   25  O2  UNL     1      22.221   4.612  49.793  1.00  0.00    -0.388 OA
HETATM   26  C9  UNL     1      23.148   5.320  50.550  1.00  0.00     0.187 C 
HETATM   27  C10 UNL     1      23.983   4.430  51.450  1.00  0.00     0.151 C 
ENDBRANCH   3  22
TORSDOF 3
ENDMDL
MODEL 2
REMARK VINA RESULT:      -8.9      1.372      4.637
REMARK  3 active torsions:
REMARK  status: ('A' for Active; 'I' for Inactive)
REMARK    1  A    between atoms: O1_1  and  C1_2 
REMARK    2  A    between atoms: C4_6  and  C5_7 
REMARK    3  A    between atoms: C6_9  and  N2_10 
ROOT
HETATM    1  C5  UNL     1      26.240   0.646  52.394  1.00  0.00     0.162 A 
HETATM    2  N1  UNL     1      25.038   0.162  52.807  1.00  0.00    -0.208 NA
HETATM    3  C6  UNL     1      23.879   0.707  52.434  1.00  0.00     0.165 A 
HETATM    4  C11 UNL     1      23.864   1.817  51.588  1.00  0.00     0.153 A 
HETATM    5  O3  UNL     1      22.920   2.565  51.051  1.00  0.00    -0.285 OA
HETATM    6  C12 UNL     1      23.453   3.510  50.311  1.00  0.00     0.182 A 
HETATM    7  N3  UNL     1      22.920   4.516  49.563  1.00  0.00    -0.236 NA
HETATM    8  C13 UNL     1      23.760   5.334  48.909  1.00  0.00     0.119 A 
HETATM    9  C14 UNL     1      25.138   5.246  48.925  1.00  0.00     0.020 A 
HETATM   10  C15 UNL     1      25.691   4.227  49.683  1.00  0.00     0.020 A 
HETATM   11  C16 UNL     1      24.833   3.388  50.354  1.00  0.00     0.049 A 
HETATM   12  C17 UNL     1      25.105   2.305  51.170  1.00  0.00     0.111 A 
HETATM   13  N4  UNL     1      26.244   1.705  51.586  1.00  0.00    -0.225 NA
ENDROOT
BRANCH   1  14
HETATM   14  C4  UNL     1      27.482   0.006  52.837  1.00  0.00     0.016 C 
HETATM   15  C3  UNL     1      28.606   0.819  53.219  1.00  0.00     0.035 C 
HETATM   16  C2  UNL     1      29.675   0.427  53.832  1.00  0.00     0.025 C 
HETATM   17  S1  UNL     1      30.009  -1.155  53.738  1.00  0.00    -0.065 SA
HETATM   18  C1  UNL     1      28.719  -2.068  53.300  1.00  0.00     0.108 C 
HETATM   19  C18 UNL     1      27.531  -1.316  52.874  1.00  0.00     0.059 C 
BRANCH  18  20
HETATM   20  O1  UNL     1      28.625  -3.469  53.288  1.00  0.00    -0.354 OA
HETATM   21  H1  UNL     1      29.498  -3.995  53.163  1.00  0.00     0.218 HD
ENDBRANCH  18  20
ENDBRANCH   1  14
BRANCH   3  22
HETATM   22  N2  UNL     1      22.594   0.260  52.822  1.00  0.00    -0.359 N 
HETATM   23  C7  UNL     1      22.224  -1.117  52.999  1.00  0.00     0.151 C 
HETATM   24  C8  UNL     1      21.685  -1.363  54.379  1.00  0.00     0.187 C 
HETATM   25  O2  UNL     1      21.117  -0.238  54.948  1.00  0.00    -0.388 OA
HETATM   26  C9  UNL     1      20.540   0.633  54.030  1.00  0.00     0.187 C 
HETATM   27  C10 UNL     1      21.547   1.233  53.068  1.00  0.00     0.151 C 
ENDBRANCH   3  22
TORSDOF 3
ENDMDL
MODEL 3
REMARK VINA RESULT:      -8.9      2.738      5.617
REMARK  3 active torsions:
REMARK  status: ('A' for Active; 'I' for Inactive)
REMARK    1  A    between atoms: O1_1  and  C1_2 
REMARK    2  A    between atoms: C4_6  and  C5_7 
REMARK    3  A    between atoms: C6_9  and  N2_10 
ROOT
HETATM    1  C5  UNL     1      24.831   2.247  51.524  1.00  0.00     0.162 A 
HETATM    2  N1  UNL     1      25.881   1.626  52.126  1.00  0.00    -0.208 NA
HETATM    3  C6  UNL     1      25.724   0.598  52.962  1.00  0.00     0.165 A 
HETATM    4  C11 UNL     1      24.446   0.117  53.252  1.00  0.00     0.153 A 
HETATM    5  O3  UNL     1      23.965  -0.849  54.010  1.00  0.00    -0.285 OA
HETATM    6  C12 UNL     1      22.654  -0.884  53.928  1.00  0.00     0.182 A 
HETATM    7  N3  UNL     1      21.708  -1.677  54.503  1.00  0.00    -0.236 NA
HETATM    8  C13 UNL     1      20.420  -1.446  54.204  1.00  0.00     0.119 A 
HETATM    9  C14 UNL     1      19.960  -0.462  53.352  1.00  0.00     0.020 A 
HETATM   10  C15 UNL     1      20.913   0.350  52.762  1.00  0.00     0.020 A 
HETATM   11  C16 UNL     1      22.233   0.117  53.066  1.00  0.00     0.049 A 
HETATM   12  C17 UNL     1      23.375   0.762  52.628  1.00  0.00     0.111 A 
HETATM   13  N4  UNL     1      23.604   1.800  51.790  1.00  0.00    -0.225 NA
ENDROOT
BRANCH   1  14
HETATM   14  C4  UNL     1      25.065   3.371  50.614  1.00  0.00     0.016 C 
HETATM   15  C3  UNL     1      23.965   4.213  50.223  1.00  0.00     0.035 C 
HETATM   16  C2  UNL     1      24.037   5.354  49.620  1.00  0.00     0.025 C 
HETATM   17  S1  UNL     1      25.408   5.644  48.807  1.00  0.00    -0.065 SA
HETATM   18  C1  UNL     1      26.650   4.675  49.261  1.00  0.00     0.108 C 
HETATM   19  C18 UNL     1      26.296   3.581  50.176  1.00  0.00     0.059 C 
BRANCH  18  20
HETATM   20  O1  UNL     1      27.998   4.776  48.881  1.00  0.00    -0.354 OA
HETATM   21  H1  UNL     1      28.682   4.246  49.436  1.00  0.00     0.218 HD
ENDBRANCH  18  20
ENDBRANCH   1  14
BRANCH   3  22
HETATM   22  N2  UNL     1      26.765  -0.096  53.623  1.00  0.00    -0.359 N 
HETATM   23  C7  UNL     1      27.338  -1.334  53.173  1.00  0.00     0.151 C 
HETATM   24  C8  UNL     1      28.823  -1.210  52.988  1.00  0.00     0.187 C 
HETATM   25  O2  UNL     1      29.392  -0.238  53.791  1.00  0.00    -0.388 OA
HETATM   26  C9  UNL     1      28.740  -0.054  55.005  1.00  0.00     0.187 C 
HETATM   27  C10 UNL     1      27.319   0.451  54.845  1.00  0.00     0.151 C 
ENDBRANCH   3  22
TORSDOF 3
ENDMDL
MODEL 4
REMARK VINA RESULT:      -8.9      1.470      2.001
REMARK  3 active torsions:
REMARK  status: ('A' for Active; 'I' for Inactive)
REMARK    1  A    between atoms: O1_1  and  C1_2 
REMARK    2  A    between atoms: C4_6  and  C5_7 
REMARK    3  A    between atoms: C6_9  and  N2_10 
ROOT
HETATM    1  C5  UNL     1      25.502   0.939  52.866  1.00  0.00     0.162 A 
HETATM    2  N1  UNL     1      25.259   2.030  52.090  1.00  0.00    -0.208 NA
HETATM    3  C6  UNL     1      24.029   2.389  51.721  1.00  0.00     0.165 A 
HETATM    4  C11 UNL     1      22.925   1.638  52.129  1.00  0.00     0.153 A 
HETATM    5  O3  UNL     1      21.622   1.721  51.943  1.00  0.00    -0.285 OA
HETATM    6  C12 UNL     1      21.009   0.738  52.561  1.00  0.00     0.182 A 
HETATM    7  N3  UNL     1      19.699   0.384  52.674  1.00  0.00    -0.236 NA
HETATM    8  C13 UNL     1      19.396  -0.706  53.395  1.00  0.00     0.119 A 
HETATM    9  C14 UNL     1      20.307  -1.516  54.044  1.00  0.00     0.020 A 
HETATM   10  C15 UNL     1      21.642  -1.167  53.936  1.00  0.00     0.020 A 
HETATM   11  C16 UNL     1      21.956  -0.051  53.197  1.00  0.00     0.049 A 
HETATM   12  C17 UNL     1      23.186   0.520  52.927  1.00  0.00     0.111 A 
HETATM   13  N4  UNL     1      24.460   0.211  53.265  1.00  0.00    -0.225 NA
ENDROOT
BRANCH   1  14
HETATM   14  C4  UNL     1      26.876   0.594  53.241  1.00  0.00     0.016 C 
HETATM   15  C3  UNL     1      27.346  -0.754  53.061  1.00  0.00     0.035 C 
HETATM   16  C2  UNL     1      28.571  -1.164  53.129  1.00  0.00     0.025 C 
HETATM   17  S1  UNL     1      29.595  -0.214  53.949  1.00  0.00    -0.065 SA
HETATM   18  C1  UNL     1      29.044   1.317  54.148  1.00  0.00     0.108 C 
HETATM   19  C18 UNL     1      27.652   1.545  53.738  1.00  0.00     0.059 C 
BRANCH  18  20
HETATM   20  O1  UNL     1      29.746   2.421  54.658  1.00  0.00    -0.354 OA
HETATM   21  H1  UNL     1      30.269   2.994  53.985  1.00  0.00     0.218 HD
ENDBRANCH  18  20
ENDBRANCH   1  14
BRANCH   3  22
HETATM   22  N2  UNL     1      23.700   3.506  50.918  1.00  0.00    -0.359 N 
HETATM   23  C7  UNL     1      23.518   4.844  51.410  1.00  0.00     0.151 C 
HETATM   24  C8  UNL     1      24.433   5.809  50.715  1.00  0.00     0.187 C 
HETATM   25  O2  UNL     1      24.788   5.401  49.442  1.00  0.00    -0.388 OA
HETATM   26  C9  UNL     1      23.815   4.647  48.796  1.00  0.00     0.187 C 
HETATM   27  C10 UNL     1      23.528   3.329  49.489  1.00  0.00     0.151 C 
ENDBRANCH   3  22
TORSDOF 3
ENDMDL
MODEL 5
REMARK VINA RESULT:      -8.9      2.147      5.176
REMARK  3 active torsions:
REMARK  status: ('A' for Active; 'I' for Inactive)
REMARK    1  A    between atoms: O1_1  and  C1_2 
REMARK    2  A    between atoms: C4_6  and  C5_7 
REMARK    3  A    between atoms: C6_9  and  N2_10 
ROOT
HETATM    1  C5  UNL     1      26.289   1.795  51.680  1.00  0.00     0.162 A 
HETATM    2  N1  UNL     1      24.950   1.576  51.767  1.00  0.00    -0.208 NA
HETATM    3  C6  UNL     1      24.054   2.349  51.150  1.00  0.00     0.165 A 
HETATM    4  C11 UNL     1      24.475   3.434  50.379  1.00  0.00     0.153 A 
HETATM    5  O3  UNL     1      23.866   4.361  49.666  1.00  0.00    -0.285 OA
HETATM    6  C12 UNL     1      24.746   5.170  49.122  1.00  0.00     0.182 A 
HETATM    7  N3  UNL     1      24.631   6.262  48.317  1.00  0.00    -0.236 NA
HETATM    8  C13 UNL     1      25.754   6.883  47.925  1.00  0.00     0.119 A 
HETATM    9  C14 UNL     1      27.038   6.509  48.270  1.00  0.00     0.020 A 
HETATM   10  C15 UNL     1      27.167   5.400  49.089  1.00  0.00     0.020 A 
HETATM   11  C16 UNL     1      26.018   4.763  49.493  1.00  0.00     0.049 A 
HETATM   12  C17 UNL     1      25.854   3.650  50.297  1.00  0.00     0.111 A 
HETATM   13  N4  UNL     1      26.709   2.827  50.948  1.00  0.00    -0.225 NA
ENDROOT
BRANCH   1  14
HETATM   14  C4  UNL     1      27.226   0.911  52.380  1.00  0.00     0.016 C 
HETATM   15  C3  UNL     1      28.349   1.475  53.081  1.00  0.00     0.035 C 
HETATM   16  C2  UNL     1      29.126   0.867  53.918  1.00  0.00     0.025 C 
HETATM   17  S1  UNL     1      29.160  -0.749  53.811  1.00  0.00    -0.065 SA
HETATM   18  C1  UNL     1      27.876  -1.375  53.007  1.00  0.00     0.108 C 
HETATM   19  C18 UNL     1      27.007  -0.394  52.344  1.00  0.00     0.059 C 
BRANCH  18  20
HETATM   20  O1  UNL     1      27.519  -2.728  52.883  1.00  0.00    -0.354 OA
HETATM   21  H1  UNL     1      28.130  -3.416  53.339  1.00  0.00     0.218 HD
ENDBRANCH  18  20
ENDBRANCH   1  14
BRANCH   3  22
HETATM   22  N2  UNL     1      22.650   2.183  51.194  1.00  0.00    -0.359 N 
HETATM   23  C7  UNL     1      21.900   1.321  50.322  1.00  0.00     0.151 C 
HETATM   24  C8  UNL     1      21.090   0.329  51.105  1.00  0.00     0.187 C 
HETATM   25  O2  UNL     1      20.756   0.776  52.371  1.00  0.00    -0.388 OA
HETATM   26  C9  UNL     1      20.598   2.154  52.461  1.00  0.00     0.187 C 
HETATM   27  C10 UNL     1      21.877   2.918  52.176  1.00  0.00     0.151 C 
ENDBRANCH   3  22
TORSDOF 3
ENDMDL
MODEL 6
REMARK VINA RESULT:      -8.5      2.377      5.208
REMARK  3 active torsions:
REMARK  status: ('A' for Active; 'I' for Inactive)
REMARK    1  A    between atoms: O1_1  and  C1_2 
REMARK    2  A    between atoms: C4_6  and  C5_7 
REMARK    3  A    between atoms: C6_9  and  N2_10 
ROOT
HETATM    1  C5  UNL     1      25.911   1.947  51.851  1.00  0.00     0.162 A 
HETATM    2  N1  UNL     1      24.635   1.476  51.886  1.00  0.00    -0.208 NA
HETATM    3  C6  UNL     1      23.640   2.049  51.206  1.00  0.00     0.165 A 
HETATM    4  C11 UNL     1      23.884   3.176  50.420  1.00  0.00     0.153 A 
HETATM    5  O3  UNL     1      23.145   3.952  49.651  1.00  0.00    -0.285 OA
HETATM    6  C12 UNL     1      23.880   4.902  49.121  1.00  0.00     0.182 A 
HETATM    7  N3  UNL     1      23.599   5.932  48.276  1.00  0.00    -0.236 NA
HETATM    8  C13 UNL     1      24.601   6.748  47.914  1.00  0.00     0.119 A 
HETATM    9  C14 UNL     1      25.914   6.636  48.327  1.00  0.00     0.020 A 
HETATM   10  C15 UNL     1      26.212   5.592  49.187  1.00  0.00     0.020 A 
HETATM   11  C16 UNL     1      25.187   4.755  49.559  1.00  0.00     0.049 A 
HETATM   12  C17 UNL     1      25.198   3.650  50.392  1.00  0.00     0.111 A 
HETATM   13  N4  UNL     1      26.161   3.022  51.106  1.00  0.00    -0.225 NA
ENDROOT
BRANCH   1  14
HETATM   14  C4  UNL     1      26.963   1.275  52.620  1.00  0.00     0.016 C 
HETATM   15  C3  UNL     1      27.029  -0.162  52.632  1.00  0.00     0.035 C 
HETATM   16  C2  UNL     1      28.005  -0.891  53.066  1.00  0.00     0.025 C 
HETATM   17  S1  UNL     1      29.015  -0.177  54.112  1.00  0.00    -0.065 SA
HETATM   18  C1  UNL     1      28.926   1.460  54.089  1.00  0.00     0.108 C 
HETATM   19  C18 UNL     1      27.831   2.021  53.285  1.00  0.00     0.059 C 
BRANCH  18  20
HETATM   20  O1  UNL     1      29.770   2.373  54.740  1.00  0.00    -0.354 OA
HETATM   21  H1  UNL     1      29.800   2.332  55.766  1.00  0.00     0.218 HD
ENDBRANCH  18  20
ENDBRANCH   1  14
BRANCH   3  22
HETATM   22  N2  UNL     1      22.293   1.617  51.194  1.00  0.00    -0.359 N 
HETATM   23  C7  UNL     1      21.375   1.765  52.289  1.00  0.00     0.151 C 
HETATM   24  C8  UNL     1      20.145   2.517  51.871  1.00  0.00     0.187 C 
HETATM   25  O2  UNL     1      19.864   2.393  50.522  1.00  0.00    -0.388 OA
HETATM   26  C9  UNL     1      20.261   1.181  49.970  1.00  0.00     0.187 C 
HETATM   27  C10 UNL     1      21.763   0.975  50.006  1.00  0.00     0.151 C 
ENDBRANCH   3  22
TORSDOF 3
ENDMDL
MODEL 7
REMARK VINA RESULT:      -8.5      3.076      7.241
REMARK  3 active torsions:
REMARK  status: ('A' for Active; 'I' for Inactive)
REMARK    1  A    between atoms: O1_1  and  C1_2 
REMARK    2  A    between atoms: C4_6  and  C5_7 
REMARK    3  A    between atoms: C6_9  and  N2_10 
ROOT
HETATM    1  C5  UNL     1      22.649   0.790  51.949  1.00  0.00     0.162 A 
HETATM    2  N1  UNL     1      23.599   0.164  52.693  1.00  0.00    -0.208 NA
HETATM    3  C6  UNL     1      24.888   0.506  52.647  1.00  0.00     0.165 A 
HETATM    4  C11 UNL     1      25.311   1.541  51.812  1.00  0.00     0.153 A 
HETATM    5  O3  UNL     1      26.472   2.104  51.543  1.00  0.00    -0.285 OA
HETATM    6  C12 UNL     1      26.320   3.065  50.660  1.00  0.00     0.182 A 
HETATM    7  N3  UNL     1      27.190   3.928  50.067  1.00  0.00    -0.236 NA
HETATM    8  C13 UNL     1      26.703   4.813  49.183  1.00  0.00     0.119 A 
HETATM    9  C14 UNL     1      25.377   4.931  48.816  1.00  0.00     0.020 A 
HETATM   10  C15 UNL     1      24.483   4.058  49.412  1.00  0.00     0.020 A 
HETATM   11  C16 UNL     1      24.980   3.150  50.317  1.00  0.00     0.049 A 
HETATM   12  C17 UNL     1      24.325   2.177  51.051  1.00  0.00     0.111 A 
HETATM   13  N4  UNL     1      23.035   1.781  51.146  1.00  0.00    -0.225 NA
ENDROOT
BRANCH   1  14
HETATM   14  C4  UNL     1      21.247   0.371  52.042  1.00  0.00     0.016 C 
HETATM   15  C3  UNL     1      20.780  -0.294  53.230  1.00  0.00     0.035 C 
HETATM   16  C2  UNL     1      19.551  -0.523  53.558  1.00  0.00     0.025 C 
HETATM   17  S1  UNL     1      18.477  -0.511  52.347  1.00  0.00    -0.065 SA
HETATM   18  C1  UNL     1      19.024   0.248  51.000  1.00  0.00     0.108 C 
HETATM   19  C18 UNL     1      20.445   0.621  51.020  1.00  0.00     0.059 C 
BRANCH  18  20
HETATM   20  O1  UNL     1      18.295   0.577  49.846  1.00  0.00    -0.354 OA
HETATM   21  H1  UNL     1      18.683   1.312  49.242  1.00  0.00     0.218 HD
ENDBRANCH  18  20
ENDBRANCH   1  14
BRANCH   3  22
HETATM   22  N2  UNL     1      25.930  -0.098  53.390  1.00  0.00    -0.359 N 
HETATM   23  C7  UNL     1      26.611  -1.305  53.013  1.00  0.00     0.151 C 
HETATM   24  C8  UNL     1      28.093  -1.086  52.914  1.00  0.00     0.187 C 
HETATM   25  O2  UNL     1      28.545  -0.057  53.720  1.00  0.00    -0.388 OA
HETATM   26  C9  UNL     1      27.809   0.115  54.887  1.00  0.00     0.187 C 
HETATM   27  C10 UNL     1      26.370   0.518  54.627  1.00  0.00     0.151 C 
ENDBRANCH   3  22
TORSDOF 3
ENDMDL
MODEL 8
REMARK VINA RESULT:      -8.5      2.392      3.081
REMARK  3 active torsions:
REMARK  status: ('A' for Active; 'I' for Inactive)
REMARK    1  A    between atoms: O1_1  and  C1_2 
REMARK    2  A    between atoms: C4_6  and  C5_7 
REMARK    3  A    between atoms: C6_9  and  N2_10 
ROOT
HETATM    1  C5  UNL     1      25.864   1.830  51.982  1.00  0.00     0.162 A 
HETATM    2  N1  UNL     1      26.053   3.004  51.321  1.00  0.00    -0.208 NA
HETATM    3  C6  UNL     1      25.076   3.612  50.645  1.00  0.00     0.165 A 
HETATM    4  C11 UNL     1      23.800   3.049  50.595  1.00  0.00     0.153 A 
HETATM    5  O3  UNL     1      22.656   3.385  50.033  1.00  0.00    -0.285 OA
HETATM    6  C12 UNL     1      21.735   2.487  50.298  1.00  0.00     0.182 A 
HETATM    7  N3  UNL     1      20.422   2.374  49.958  1.00  0.00    -0.236 NA
HETATM    8  C13 UNL     1      19.741   1.306  50.401  1.00  0.00     0.119 A 
HETATM    9  C14 UNL     1      20.260   0.293  51.183  1.00  0.00     0.020 A 
HETATM   10  C15 UNL     1      21.595   0.396  51.534  1.00  0.00     0.020 A 
HETATM   11  C16 UNL     1      22.295   1.490  51.082  1.00  0.00     0.049 A 
HETATM   12  C17 UNL     1      23.618   1.843  51.277  1.00  0.00     0.111 A 
HETATM   13  N4  UNL     1      24.652   1.278  51.944  1.00  0.00    -0.225 NA
ENDROOT
BRANCH   1  14
HETATM   14  C4  UNL     1      26.975   1.209  52.709  1.00  0.00     0.016 C 
HETATM   15  C3  UNL     1      27.117  -0.223  52.705  1.00  0.00     0.035 C 
HETATM   16  C2  UNL     1      28.144  -0.903  53.099  1.00  0.00     0.025 C 
HETATM   17  S1  UNL     1      29.149  -0.146  54.118  1.00  0.00    -0.065 SA
HETATM   18  C1  UNL     1      28.974   1.484  54.114  1.00  0.00     0.108 C 
HETATM   19  C18 UNL     1      27.825   1.993  53.353  1.00  0.00     0.059 C 
BRANCH  18  20
HETATM   20  O1  UNL     1      29.790   2.436  54.746  1.00  0.00    -0.354 OA
HETATM   21  H1  UNL     1      30.699   2.635  54.312  1.00  0.00     0.218 HD
ENDBRANCH  18  20
ENDBRANCH   1  14
BRANCH   3  22
HETATM   22  N2  UNL     1      25.197   4.830  49.936  1.00  0.00    -0.359 N 
HETATM   23  C7  UNL     1      24.290   5.938  50.051  1.00  0.00     0.151 C 
HETATM   24  C8  UNL     1      25.012   7.194  50.446  1.00  0.00     0.187 C 
HETATM   25  O2  UNL     1      26.339   7.204  50.056  1.00  0.00    -0.388 OA
HETATM   26  C9  UNL     1      26.591   6.495  48.886  1.00  0.00     0.187 C 
HETATM   27  C10 UNL     1      26.305   5.011  49.018  1.00  0.00     0.151 C 
ENDBRANCH   3  22
TORSDOF 3
ENDMDL
MODEL 9
REMARK VINA RESULT:      -8.4      2.644      6.071
REMARK  3 active torsions:
REMARK  status: ('A' for Active; 'I' for Inactive)
REMARK    1  A    between atoms: O1_1  and  C1_2 
REMARK    2  A    between atoms: C4_6  and  C5_7 
REMARK    3  A    between atoms: C6_9  and  N2_10 
ROOT
HETATM    1  C5  UNL     1      24.557   2.868  51.046  1.00  0.00     0.162 A 
HETATM    2  N1  UNL     1      25.765   2.344  51.386  1.00  0.00    -0.208 NA
HETATM    3  C6  UNL     1      25.891   1.308  52.217  1.00  0.00     0.165 A 
HETATM    4  C11 UNL     1      24.758   0.716  52.777  1.00  0.00     0.153 A 
HETATM    5  O3  UNL     1      24.545  -0.287  53.607  1.00  0.00    -0.285 OA
HETATM    6  C12 UNL     1      23.258  -0.439  53.820  1.00  0.00     0.182 A 
HETATM    7  N3  UNL     1      22.538  -1.310  54.579  1.00  0.00    -0.236 NA
HETATM    8  C13 UNL     1      21.201  -1.195  54.581  1.00  0.00     0.119 A 
HETATM    9  C14 UNL     1      20.477  -0.258  53.872  1.00  0.00     0.020 A 
HETATM   10  C15 UNL     1      21.198   0.634  53.097  1.00  0.00     0.020 A 
HETATM   11  C16 UNL     1      22.568   0.519  53.093  1.00  0.00     0.049 A 
HETATM   12  C17 UNL     1      23.521   1.263  52.421  1.00  0.00     0.111 A 
HETATM   13  N4  UNL     1      23.465   2.315  51.572  1.00  0.00    -0.225 NA
ENDROOT
BRANCH   1  14
HETATM   14  C4  UNL     1      24.482   4.007  50.127  1.00  0.00     0.016 C 
HETATM   15  C3  UNL     1      25.623   4.869  49.966  1.00  0.00     0.035 C 
HETATM   16  C2  UNL     1      25.796   5.764  49.049  1.00  0.00     0.025 C 
HETATM   17  S1  UNL     1      24.454   6.308  48.324  1.00  0.00    -0.065 SA
HETATM   18  C1  UNL     1      23.162   5.317  48.519  1.00  0.00     0.108 C 
HETATM   19  C18 UNL     1      23.354   4.210  49.465  1.00  0.00     0.059 C 
BRANCH  18  20
HETATM   20  O1  UNL     1      21.911   5.407  47.889  1.00  0.00    -0.354 OA
HETATM   21  H1  UNL     1      21.907   5.611  46.882  1.00  0.00     0.218 HD
ENDBRANCH  18  20
ENDBRANCH   1  14
BRANCH   3  22
HETATM   22  N2  UNL     1      27.110   0.711  52.615  1.00  0.00    -0.359 N 
HETATM   23  C7  UNL     1      28.181   1.400  53.279  1.00  0.00     0.151 C 
HETATM   24  C8  UNL     1      28.528   0.738  54.581  1.00  0.00     0.187 C 
HETATM   25  O2  UNL     1      28.229  -0.612  54.602  1.00  0.00    -0.388 OA
HETATM   26  C9  UNL     1      28.326  -1.233  53.362  1.00  0.00     0.187 C 
HETATM   27  C10 UNL     1      27.331  -0.698  52.350  1.00  0.00     0.151 C 
ENDBRANCH   3  22
TORSDOF 3
ENDMDL
