MODEL 1
REMARK VINA RESULT:      -8.3      0.000      0.000
REMARK  0 active torsions:
REMARK  status: ('A' for Active; 'I' for Inactive)
ROOT
HETATM    1  F1  UNL     1      24.117   3.168  53.109  1.00  0.00    -0.209 F 
HETATM    2  C1  UNL     1      24.518   3.458  51.827  1.00  0.00     0.116 C 
HETATM    3  C2  UNL     1      25.640   2.786  51.526  1.00  0.00     0.040 C 
HETATM    4  C3  UNL     1      26.436   2.775  50.278  1.00  0.00     0.004 C 
HETATM    5  C4  UNL     1      26.549   3.826  49.427  1.00  0.00     0.012 C 
HETATM    6  C5  UNL     1      25.968   5.198  49.464  1.00  0.00    -0.024 C 
HETATM    7  C6  UNL     1      26.765   5.695  48.512  1.00  0.00     0.049 C 
HETATM    8  C7  UNL     1      26.547   7.119  48.201  1.00  0.00     0.076 C 
HETATM    9  C8  UNL     1      27.572   7.676  48.921  1.00  0.00     0.030 C 
HETATM   10  C9  UNL     1      27.252   8.833  49.886  1.00  0.00     0.150 C 
HETATM   11  N1  UNL     1      25.909   8.533  50.472  1.00  0.00    -0.380 N 
HETATM   12  C10 UNL     1      24.789   8.272  49.584  1.00  0.00     0.129 A 
HETATM   13  C11 UNL     1      23.607   8.192  50.228  1.00  0.00     0.159 A 
HETATM   14  N2  UNL     1      22.330   8.129  49.802  1.00  0.00    -0.222 NA
HETATM   15  C12 UNL     1      22.150   8.129  48.415  1.00  0.00     0.238 A 
HETATM   16  N3  UNL     1      23.268   8.184  47.668  1.00  0.00    -0.215 NA
HETATM   17  C13 UNL     1      24.477   8.241  48.208  1.00  0.00     0.202 A 
HETATM   18  O1  UNL     1      25.768   8.236  47.510  1.00  0.00    -0.290 OA
HETATM   19  N4  UNL     1      23.995   7.711  51.578  1.00  0.00    -0.348 N 
HETATM   20  C14 UNL     1      24.284   6.367  51.075  1.00  0.00     0.099 C 
HETATM   21  C15 UNL     1      24.875   5.453  50.408  1.00  0.00    -0.007 C 
HETATM   22  C16 UNL     1      23.897   4.353  50.836  1.00  0.00     0.179 C 
HETATM   23 CL1  UNL     1      22.317   4.900  51.242  1.00  0.00    -0.112 Cl
HETATM   24  H8  UNL     1      25.750   8.508  51.496  1.00  0.00     0.160 HD
HETATM   25  H10 UNL     1      23.807   8.606  51.932  1.00  0.00     0.167 HD
ENDROOT
TORSDOF 0
ENDMDL
MODEL 2
REMARK VINA RESULT:      -8.3      4.592      6.790
REMARK  0 active torsions:
REMARK  status: ('A' for Active; 'I' for Inactive)
ROOT
HETATM    1  F1  UNL     1      26.847  -0.090  51.558  1.00  0.00    -0.209 F 
HETATM    2  C1  UNL     1      25.798   0.254  52.376  1.00  0.00     0.116 C 
HETATM    3  C2  UNL     1      25.495  -0.762  53.200  1.00  0.00     0.040 C 
HETATM    4  C3  UNL     1      24.453  -0.860  54.245  1.00  0.00     0.004 C 
HETATM    5  C4  UNL     1      23.256  -0.218  54.204  1.00  0.00     0.012 C 
HETATM    6  C5  UNL     1      22.660   0.702  53.195  1.00  0.00    -0.024 C 
HETATM    7  C6  UNL     1      21.419   0.638  53.688  1.00  0.00     0.049 C 
HETATM    8  C7  UNL     1      20.418   1.433  52.954  1.00  0.00     0.076 C 
HETATM    9  C8  UNL     1      19.840   0.444  52.201  1.00  0.00     0.030 C 
HETATM   10  C9  UNL     1      19.707   0.658  50.681  1.00  0.00     0.150 C 
HETATM   11  N1  UNL     1      20.930   1.404  50.252  1.00  0.00    -0.380 N 
HETATM   12  C10 UNL     1      21.276   2.646  50.923  1.00  0.00     0.129 A 
HETATM   13  C11 UNL     1      22.291   3.306  50.330  1.00  0.00     0.159 A 
HETATM   14  N2  UNL     1      22.817   4.534  50.506  1.00  0.00    -0.222 NA
HETATM   15  C12 UNL     1      22.227   5.311  51.508  1.00  0.00     0.238 A 
HETATM   16  N3  UNL     1      21.213   4.742  52.186  1.00  0.00    -0.215 NA
HETATM   17  C13 UNL     1      20.785   3.516  51.919  1.00  0.00     0.202 A 
HETATM   18  O1  UNL     1      19.741   2.762  52.623  1.00  0.00    -0.290 OA
HETATM   19  N4  UNL     1      23.075   2.214  49.699  1.00  0.00    -0.348 N 
HETATM   20  C14 UNL     1      23.580   1.756  50.994  1.00  0.00     0.099 C 
HETATM   21  C15 UNL     1      23.548   1.264  52.172  1.00  0.00    -0.007 C 
HETATM   22  C16 UNL     1      25.037   1.514  52.437  1.00  0.00     0.179 C 
HETATM   23 CL1  UNL     1      25.726   2.820  51.552  1.00  0.00    -0.112 Cl
HETATM   24  H8  UNL     1      21.540   1.064  49.487  1.00  0.00     0.160 HD
HETATM   25  H10 UNL     1      22.745   2.507  48.823  1.00  0.00     0.167 HD
ENDROOT
TORSDOF 0
ENDMDL
MODEL 3
REMARK VINA RESULT:      -8.1      3.583      5.073
REMARK  0 active torsions:
REMARK  status: ('A' for Active; 'I' for Inactive)
ROOT
HETATM    1  F1  UNL     1      24.590   7.947  50.986  1.00  0.00    -0.209 F 
HETATM    2  C1  UNL     1      25.347   7.391  49.983  1.00  0.00     0.116 C 
HETATM    3  C2  UNL     1      25.337   6.052  50.077  1.00  0.00     0.040 C 
HETATM    4  C3  UNL     1      25.998   5.034  49.231  1.00  0.00     0.004 C 
HETATM    5  C4  UNL     1      27.175   5.220  48.578  1.00  0.00     0.012 C 
HETATM    6  C5  UNL     1      28.093   6.392  48.505  1.00  0.00    -0.024 C 
HETATM    7  C6  UNL     1      29.116   5.713  47.975  1.00  0.00     0.049 C 
HETATM    8  C7  UNL     1      30.328   6.514  47.725  1.00  0.00     0.076 C 
HETATM    9  C8  UNL     1      31.068   6.167  48.825  1.00  0.00     0.030 C 
HETATM   10  C9  UNL     1      31.675   7.290  49.689  1.00  0.00     0.150 C 
HETATM   11  N1  UNL     1      30.678   8.405  49.691  1.00  0.00    -0.380 N 
HETATM   12  C10 UNL     1      30.194   8.928  48.424  1.00  0.00     0.129 A 
HETATM   13  C11 UNL     1      29.442  10.038  48.560  1.00  0.00     0.159 A 
HETATM   14  N2  UNL     1      28.941  10.923  47.676  1.00  0.00    -0.222 NA
HETATM   15  C12 UNL     1      29.222  10.666  46.331  1.00  0.00     0.238 A 
HETATM   16  N3  UNL     1      29.951   9.563  46.073  1.00  0.00    -0.215 NA
HETATM   17  C13 UNL     1      30.389   8.765  47.037  1.00  0.00     0.202 A 
HETATM   18  O1  UNL     1      31.129   7.507  46.886  1.00  0.00    -0.290 OA
HETATM   19  N4  UNL     1      28.847   9.875  49.911  1.00  0.00    -0.348 N 
HETATM   20  C14 UNL     1      27.947   8.820  49.445  1.00  0.00     0.099 C 
HETATM   21  C15 UNL     1      27.591   7.686  48.980  1.00  0.00    -0.007 C 
HETATM   22  C16 UNL     1      26.104   8.056  48.908  1.00  0.00     0.179 C 
HETATM   23 CL1  UNL     1      25.780   9.737  48.726  1.00  0.00    -0.112 Cl
HETATM   24  H8  UNL     1      30.322   8.820  50.571  1.00  0.00     0.160 HD
HETATM   25  H10 UNL     1      29.444  10.580  50.240  1.00  0.00     0.167 HD
ENDROOT
TORSDOF 0
ENDMDL
MODEL 4
REMARK VINA RESULT:      -8.1      4.024      5.497
REMARK  0 active torsions:
REMARK  status: ('A' for Active; 'I' for Inactive)
ROOT
HETATM    1  F1  UNL     1      24.771  -0.874  55.507  1.00  0.00    -0.209 F 
HETATM    2  C1  UNL     1      25.163  -0.495  54.245  1.00  0.00     0.116 C 
HETATM    3  C2  UNL     1      26.469  -0.184  54.235  1.00  0.00     0.040 C 
HETATM    4  C3  UNL     1      27.330   0.271  53.121  1.00  0.00     0.004 C 
HETATM    5  C4  UNL     1      26.898   1.009  52.065  1.00  0.00     0.012 C 
HETATM    6  C5  UNL     1      25.553   1.546  51.716  1.00  0.00    -0.024 C 
HETATM    7  C6  UNL     1      25.996   2.380  50.770  1.00  0.00     0.049 C 
HETATM    8  C7  UNL     1      24.951   3.184  50.112  1.00  0.00     0.076 C 
HETATM    9  C8  UNL     1      25.102   4.366  50.791  1.00  0.00     0.030 C 
HETATM   10  C9  UNL     1      23.856   5.021  51.417  1.00  0.00     0.150 C 
HETATM   11  N1  UNL     1      22.992   3.902  51.905  1.00  0.00    -0.380 N 
HETATM   12  C10 UNL     1      22.615   2.843  50.983  1.00  0.00     0.129 A 
HETATM   13  C11 UNL     1      21.697   1.997  51.493  1.00  0.00     0.159 A 
HETATM   14  N2  UNL     1      20.964   1.003  50.955  1.00  0.00    -0.222 NA
HETATM   15  C12 UNL     1      21.177   0.755  49.595  1.00  0.00     0.238 A 
HETATM   16  N3  UNL     1      22.094   1.530  48.985  1.00  0.00    -0.215 NA
HETATM   17  C13 UNL     1      22.756   2.481  49.627  1.00  0.00     0.202 A 
HETATM   18  O1  UNL     1      23.820   3.342  49.097  1.00  0.00    -0.290 OA
HETATM   19  N4  UNL     1      21.964   2.057  52.953  1.00  0.00    -0.348 N 
HETATM   20  C14 UNL     1      23.201   1.289  52.813  1.00  0.00     0.099 C 
HETATM   21  C15 UNL     1      24.395   1.022  52.447  1.00  0.00    -0.007 C 
HETATM   22  C16 UNL     1      24.367  -0.404  53.009  1.00  0.00     0.179 C 
HETATM   23 CL1  UNL     1      22.804  -1.121  53.099  1.00  0.00    -0.112 Cl
HETATM   24  H8  UNL     1      22.650   3.858  52.882  1.00  0.00     0.160 HD
HETATM   25  H10 UNL     1      21.137   2.573  53.065  1.00  0.00     0.167 HD
ENDROOT
TORSDOF 0
ENDMDL
MODEL 5
REMARK VINA RESULT:      -8.0      3.859      5.699
REMARK  0 active torsions:
REMARK  status: ('A' for Active; 'I' for Inactive)
ROOT
HETATM    1  F1  UNL     1      25.925   0.238  53.741  1.00  0.00    -0.209 F 
HETATM    2  C1  UNL     1      24.603   0.451  53.435  1.00  0.00     0.116 C 
HETATM    3  C2  UNL     1      23.938  -0.715  53.397  1.00  0.00     0.040 C 
HETATM    4  C3  UNL     1      22.512  -0.987  53.113  1.00  0.00     0.004 C 
HETATM    5  C4  UNL     1      21.733  -0.239  52.290  1.00  0.00     0.012 C 
HETATM    6  C5  UNL     1      22.028   0.980  51.484  1.00  0.00    -0.024 C 
HETATM    7  C6  UNL     1      20.915   0.911  50.746  1.00  0.00     0.049 C 
HETATM    8  C7  UNL     1      20.773   1.976  49.737  1.00  0.00     0.076 C 
HETATM    9  C8  UNL     1      21.187   1.297  48.621  1.00  0.00     0.030 C 
HETATM   10  C9  UNL     1      22.274   1.932  47.733  1.00  0.00     0.150 C 
HETATM   11  N1  UNL     1      23.215   2.636  48.657  1.00  0.00    -0.380 N 
HETATM   12  C10 UNL     1      22.688   3.604  49.605  1.00  0.00     0.129 A 
HETATM   13  C11 UNL     1      23.649   4.292  50.252  1.00  0.00     0.159 A 
HETATM   14  N2  UNL     1      23.622   5.364  51.068  1.00  0.00    -0.222 NA
HETATM   15  C12 UNL     1      22.355   5.893  51.336  1.00  0.00     0.238 A 
HETATM   16  N3  UNL     1      21.312   5.268  50.758  1.00  0.00    -0.215 NA
HETATM   17  C13 UNL     1      21.469   4.213  49.971  1.00  0.00     0.202 A 
HETATM   18  O1  UNL     1      20.418   3.407  49.338  1.00  0.00    -0.290 OA
HETATM   19  N4  UNL     1      24.788   3.340  50.266  1.00  0.00    -0.348 N 
HETATM   20  C14 UNL     1      24.139   2.495  51.269  1.00  0.00     0.099 C 
HETATM   21  C15 UNL     1      23.270   1.706  51.770  1.00  0.00    -0.007 C 
HETATM   22  C16 UNL     1      23.901   1.718  53.167  1.00  0.00     0.179 C 
HETATM   23 CL1  UNL     1      24.795   3.138  53.551  1.00  0.00    -0.112 Cl
HETATM   24  H8  UNL     1      24.235   2.457  48.642  1.00  0.00     0.160 HD
HETATM   25  H10 UNL     1      25.238   3.895  49.594  1.00  0.00     0.167 HD
ENDROOT
TORSDOF 0
ENDMDL
MODEL 6
REMARK VINA RESULT:      -7.9      4.660      6.065
REMARK  0 active torsions:
REMARK  status: ('A' for Active; 'I' for Inactive)
ROOT
HETATM    1  F1  UNL     1      18.648  -0.574  53.781  1.00  0.00    -0.209 F 
HETATM    2  C1  UNL     1      19.939  -0.549  53.313  1.00  0.00     0.116 C 
HETATM    3  C2  UNL     1      20.772  -1.107  54.207  1.00  0.00     0.040 C 
HETATM    4  C3  UNL     1      22.237  -1.305  54.148  1.00  0.00     0.004 C 
HETATM    5  C4  UNL     1      23.100  -0.485  53.495  1.00  0.00     0.012 C 
HETATM    6  C5  UNL     1      22.878   0.758  52.702  1.00  0.00    -0.024 C 
HETATM    7  C6  UNL     1      24.166   1.119  52.678  1.00  0.00     0.049 C 
HETATM    8  C7  UNL     1      24.443   2.380  51.966  1.00  0.00     0.076 C 
HETATM    9  C8  UNL     1      24.542   3.234  53.034  1.00  0.00     0.030 C 
HETATM   10  C9  UNL     1      23.712   4.532  53.017  1.00  0.00     0.150 C 
HETATM   11  N1  UNL     1      22.413   4.194  52.357  1.00  0.00    -0.380 N 
HETATM   12  C10 UNL     1      22.426   3.569  51.045  1.00  0.00     0.129 A 
HETATM   13  C11 UNL     1      21.202   3.479  50.487  1.00  0.00     0.159 A 
HETATM   14  N2  UNL     1      20.774   3.133  49.257  1.00  0.00    -0.222 NA
HETATM   15  C12 UNL     1      21.772   2.773  48.345  1.00  0.00     0.238 A 
HETATM   16  N3  UNL     1      23.038   2.804  48.802  1.00  0.00    -0.215 NA
HETATM   17  C13 UNL     1      23.333   3.163  50.043  1.00  0.00     0.202 A 
HETATM   18  O1  UNL     1      24.655   3.174  50.679  1.00  0.00    -0.290 OA
HETATM   19  N4  UNL     1      20.303   3.398  51.667  1.00  0.00    -0.348 N 
HETATM   20  C14 UNL     1      20.725   2.029  51.962  1.00  0.00     0.099 C 
HETATM   21  C15 UNL     1      21.506   1.075  52.296  1.00  0.00    -0.007 C 
HETATM   22  C16 UNL     1      20.460  -0.018  52.042  1.00  0.00     0.179 C 
HETATM   23 CL1  UNL     1      19.258   0.380  50.876  1.00  0.00    -0.112 Cl
HETATM   24  H8  UNL     1      21.501   4.394  52.806  1.00  0.00     0.160 HD
HETATM   25  H10 UNL     1      20.010   4.316  51.484  1.00  0.00     0.167 HD
ENDROOT
TORSDOF 0
ENDMDL
MODEL 7
REMARK VINA RESULT:      -7.7      2.582      3.424
REMARK  0 active torsions:
REMARK  status: ('A' for Active; 'I' for Inactive)
ROOT
HETATM    1  F1  UNL     1      24.153   0.293  53.894  1.00  0.00    -0.209 F 
HETATM    2  C1  UNL     1      24.546   0.858  52.704  1.00  0.00     0.116 C 
HETATM    3  C2  UNL     1      25.886   0.929  52.640  1.00  0.00     0.040 C 
HETATM    4  C3  UNL     1      26.760   1.453  51.568  1.00  0.00     0.004 C 
HETATM    5  C4  UNL     1      26.425   2.465  50.726  1.00  0.00     0.012 C 
HETATM    6  C5  UNL     1      25.191   3.294  50.614  1.00  0.00    -0.024 C 
HETATM    7  C6  UNL     1      25.738   4.220  49.820  1.00  0.00     0.049 C 
HETATM    8  C7  UNL     1      24.833   5.318  49.434  1.00  0.00     0.076 C 
HETATM    9  C8  UNL     1      25.243   6.280  50.321  1.00  0.00     0.030 C 
HETATM   10  C9  UNL     1      24.178   6.995  51.176  1.00  0.00     0.150 C 
HETATM   11  N1  UNL     1      23.142   5.968  51.504  1.00  0.00    -0.380 N 
HETATM   12  C10 UNL     1      22.522   5.216  50.425  1.00  0.00     0.129 A 
HETATM   13  C11 UNL     1      21.487   4.455  50.834  1.00  0.00     0.159 A 
HETATM   14  N2  UNL     1      20.550   3.745  50.175  1.00  0.00    -0.222 NA
HETATM   15  C12 UNL     1      20.643   3.762  48.780  1.00  0.00     0.238 A 
HETATM   16  N3  UNL     1      21.659   4.476  48.258  1.00  0.00    -0.215 NA
HETATM   17  C13 UNL     1      22.523   5.134  49.017  1.00  0.00     0.202 A 
HETATM   18  O1  UNL     1      23.704   5.887  48.578  1.00  0.00    -0.290 OA
HETATM   19  N4  UNL     1      21.833   4.152  52.246  1.00  0.00    -0.348 N 
HETATM   20  C14 UNL     1      22.893   3.226  51.844  1.00  0.00     0.099 C 
HETATM   21  C15 UNL     1      23.993   2.837  51.326  1.00  0.00    -0.007 C 
HETATM   22  C16 UNL     1      23.720   1.351  51.589  1.00  0.00     0.179 C 
HETATM   23 CL1  UNL     1      22.056   0.919  51.672  1.00  0.00    -0.112 Cl
HETATM   24  H8  UNL     1      22.848   5.777  52.478  1.00  0.00     0.160 HD
HETATM   25  H10 UNL     1      21.127   4.770  52.534  1.00  0.00     0.167 HD
ENDROOT
TORSDOF 0
ENDMDL
MODEL 8
REMARK VINA RESULT:      -7.6      4.468      6.568
REMARK  0 active torsions:
REMARK  status: ('A' for Active; 'I' for Inactive)
ROOT
HETATM    1  F1  UNL     1      19.852   2.583  53.109  1.00  0.00    -0.209 F 
HETATM    2  C1  UNL     1      20.801   1.650  52.767  1.00  0.00     0.116 C 
HETATM    3  C2  UNL     1      20.558   0.486  53.391  1.00  0.00     0.040 C 
HETATM    4  C3  UNL     1      21.296  -0.795  53.335  1.00  0.00     0.004 C 
HETATM    5  C4  UNL     1      22.634  -0.905  53.133  1.00  0.00     0.012 C 
HETATM    6  C5  UNL     1      23.692   0.123  52.921  1.00  0.00    -0.024 C 
HETATM    7  C6  UNL     1      24.717  -0.713  53.121  1.00  0.00     0.049 C 
HETATM    8  C7  UNL     1      26.051  -0.094  53.017  1.00  0.00     0.076 C 
HETATM    9  C8  UNL     1      26.333   0.079  54.347  1.00  0.00     0.030 C 
HETATM   10  C9  UNL     1      26.788   1.470  54.828  1.00  0.00     0.150 C 
HETATM   11  N1  UNL     1      26.025   2.468  54.016  1.00  0.00    -0.380 N 
HETATM   12  C10 UNL     1      26.064   2.381  52.566  1.00  0.00     0.129 A 
HETATM   13  C11 UNL     1      25.486   3.435  51.955  1.00  0.00     0.159 A 
HETATM   14  N2  UNL     1      25.439   3.841  50.671  1.00  0.00    -0.222 NA
HETATM   15  C12 UNL     1      26.099   3.024  49.749  1.00  0.00     0.238 A 
HETATM   16  N3  UNL     1      26.697   1.925  50.246  1.00  0.00    -0.215 NA
HETATM   17  C13 UNL     1      26.672   1.630  51.538  1.00  0.00     0.202 A 
HETATM   18  O1  UNL     1      27.222   0.437  52.193  1.00  0.00    -0.290 OA
HETATM   19  N4  UNL     1      24.467   3.874  52.942  1.00  0.00    -0.348 N 
HETATM   20  C14 UNL     1      23.618   2.716  52.661  1.00  0.00     0.099 C 
HETATM   21  C15 UNL     1      23.265   1.490  52.608  1.00  0.00    -0.007 C 
HETATM   22  C16 UNL     1      21.957   1.783  51.864  1.00  0.00     0.179 C 
HETATM   23 CL1  UNL     1      21.968   3.214  50.906  1.00  0.00    -0.112 Cl
HETATM   24  H8  UNL     1      25.470   3.223  54.456  1.00  0.00     0.160 HD
HETATM   25  H10 UNL     1      25.024   4.656  53.143  1.00  0.00     0.167 HD
ENDROOT
TORSDOF 0
ENDMDL
MODEL 9
REMARK VINA RESULT:      -7.5      4.634      7.081
REMARK  0 active torsions:
REMARK  status: ('A' for Active; 'I' for Inactive)
ROOT
HETATM    1  F1  UNL     1      23.690   5.975  48.371  1.00  0.00    -0.209 F 
HETATM    2  C1  UNL     1      23.464   4.621  48.426  1.00  0.00     0.116 C 
HETATM    3  C2  UNL     1      22.550   4.262  47.510  1.00  0.00     0.040 C 
HETATM    4  C3  UNL     1      21.991   2.929  47.196  1.00  0.00     0.004 C 
HETATM    5  C4  UNL     1      21.832   1.927  48.099  1.00  0.00     0.012 C 
HETATM    6  C5  UNL     1      22.138   1.849  49.556  1.00  0.00    -0.024 C 
HETATM    7  C6  UNL     1      21.435   0.732  49.769  1.00  0.00     0.049 C 
HETATM    8  C7  UNL     1      21.438   0.253  51.163  1.00  0.00     0.076 C 
HETATM    9  C8  UNL     1      20.222   0.732  51.578  1.00  0.00     0.030 C 
HETATM   10  C9  UNL     1      20.159   1.556  52.878  1.00  0.00     0.150 C 
HETATM   11  N1  UNL     1      21.416   2.365  52.925  1.00  0.00    -0.380 N 
HETATM   12  C10 UNL     1      22.699   1.693  52.798  1.00  0.00     0.129 A 
HETATM   13  C11 UNL     1      23.750   2.503  53.033  1.00  0.00     0.159 A 
HETATM   14  N2  UNL     1      25.070   2.278  53.183  1.00  0.00    -0.222 NA
HETATM   15  C12 UNL     1      25.477   0.946  53.063  1.00  0.00     0.238 A 
HETATM   16  N3  UNL     1      24.510   0.046  52.804  1.00  0.00    -0.215 NA
HETATM   17  C13 UNL     1      23.237   0.394  52.676  1.00  0.00     0.202 A 
HETATM   18  O1  UNL     1      22.105  -0.473  52.330  1.00  0.00    -0.290 OA
HETATM   19  N4  UNL     1      23.235   3.839  52.640  1.00  0.00    -0.348 N 
HETATM   20  C14 UNL     1      23.285   3.499  51.218  1.00  0.00     0.099 C 
HETATM   21  C15 UNL     1      22.991   2.893  50.133  1.00  0.00    -0.007 C 
HETATM   22  C16 UNL     1      24.068   3.610  49.310  1.00  0.00     0.179 C 
HETATM   23 CL1  UNL     1      25.431   4.155  50.210  1.00  0.00    -0.112 Cl
HETATM   24  H8  UNL     1      21.402   3.393  53.049  1.00  0.00     0.160 HD
HETATM   25  H10 UNL     1      23.194   4.084  53.589  1.00  0.00     0.167 HD
ENDROOT
TORSDOF 0
ENDMDL
