MODEL 1
REMARK VINA RESULT:      -7.0      0.000      0.000
REMARK  11 active torsions:
REMARK  status: ('A' for Active; 'I' for Inactive)
REMARK    1  A    between atoms: C5_7  and  C6_8 
REMARK    2  A    between atoms: C6_8  and  C7_9 
REMARK    3  A    between atoms: C7_9  and  O2_10 
REMARK    4  A    between atoms: O2_10  and  C8_11 
REMARK    5  A    between atoms: C10_13  and  N2_14 
REMARK    6  A    between atoms: N2_14  and  C11_15 
REMARK    7  A    between atoms: C12_16  and  C13_17 
REMARK    8  A    between atoms: C13_17  and  C14_18 
REMARK    9  A    between atoms: C14_18  and  C15_19 
REMARK   10  A    between atoms: C15_19  and  C16_21 
REMARK   11  A    between atoms: C16_21  and  N3_22 
ROOT
HETATM    1  C8  UNL     1      23.760  -0.640  53.882  1.00  0.00     0.079 A 
HETATM    2  C9  UNL     1      23.430   0.616  53.492  1.00  0.00     0.043 A 
HETATM    3  C10 UNL     1      22.028   0.144  53.385  1.00  0.00     0.120 A 
HETATM    4  C17 UNL     1      21.219  -0.010  54.574  1.00  0.00     0.698 A 
HETATM    5  N4  UNL     1      21.582  -1.172  54.942  1.00  0.00     0.036 NA
HETATM    6  C18 UNL     1      22.474  -1.255  53.832  1.00  0.00     0.293 A 
ENDROOT
BRANCH   3   7
HETATM    7  N2  UNL     1      21.457   0.155  52.091  1.00  0.00    -0.385 N 
HETATM    8  H16 UNL     1      21.380  -0.858  51.740  1.00  0.00     0.159 HD
BRANCH   7   9
HETATM    9  C11 UNL     1      20.890   0.390  50.870  1.00  0.00     0.066 C 
HETATM   10  C12 UNL     1      21.125   1.068  49.700  1.00  0.00     0.059 C 
BRANCH  10  11
HETATM   11  C13 UNL     1      22.258   1.951  49.177  1.00  0.00    -0.014 C 
BRANCH  11  12
HETATM   12  C14 UNL     1      23.231   2.379  50.147  1.00  0.00     0.021 C 
BRANCH  12  13
HETATM   13  C15 UNL     1      23.610   3.822  50.611  1.00  0.00     0.043 C 
HETATM   14 CL1  UNL     1      22.755   3.972  52.165  1.00  0.00    -0.083 Cl
BRANCH  13  15
HETATM   15  C16 UNL     1      24.462   4.544  49.712  1.00  0.00     0.078 C 
BRANCH  15  16
HETATM   16  N3  UNL     1      24.976   5.360  50.820  1.00  0.00    -0.311 N 
HETATM   17  H22 UNL     1      24.323   4.634  51.253  1.00  0.00     0.123 HD
HETATM   18  H23 UNL     1      24.286   4.578  51.187  1.00  0.00     0.123 HD
ENDBRANCH  15  16
ENDBRANCH  13  15
ENDBRANCH  12  13
ENDBRANCH  11  12
ENDBRANCH  10  11
ENDBRANCH   7   9
ENDBRANCH   3   7
BRANCH   1  19
HETATM   19  O2  UNL     1      25.137  -0.880  54.174  1.00  0.00    -0.353 OA
BRANCH  19  20
HETATM   20  C7  UNL     1      25.829  -1.433  53.046  1.00  0.00     0.177 C 
BRANCH  20  21
HETATM   21  C6  UNL     1      26.958  -0.531  52.662  1.00  0.00     0.062 C 
BRANCH  21  22
HETATM   22  C5  UNL     1      27.605   0.042  53.875  1.00  0.00     0.230 C 
HETATM   23  C2  UNL     1      29.066   0.335  53.575  1.00  0.00     0.039 C 
HETATM   24  C1  UNL     1      29.916  -0.891  53.720  1.00  0.00     0.014 C 
HETATM   25  C3  UNL     1      29.469   1.422  54.569  1.00  0.00     0.176 C 
HETATM   26  O1  UNL     1      28.912   2.610  54.128  1.00  0.00    -0.362 OA
HETATM   27  C4  UNL     1      27.609   2.427  53.649  1.00  0.00     0.438 C 
HETATM   28  N1  UNL     1      26.999   1.293  54.287  1.00  0.00     0.111 N 
HETATM   29  H9  UNL     1      26.898   1.404  55.307  1.00  0.00     0.319 HD
ENDBRANCH  21  22
ENDBRANCH  20  21
ENDBRANCH  19  20
ENDBRANCH   1  19
TORSDOF 11
ENDMDL
MODEL 2
REMARK VINA RESULT:      -6.8      2.880      6.191
REMARK  11 active torsions:
REMARK  status: ('A' for Active; 'I' for Inactive)
REMARK    1  A    between atoms: C5_7  and  C6_8 
REMARK    2  A    between atoms: C6_8  and  C7_9 
REMARK    3  A    between atoms: C7_9  and  O2_10 
REMARK    4  A    between atoms: O2_10  and  C8_11 
REMARK    5  A    between atoms: C10_13  and  N2_14 
REMARK    6  A    between atoms: N2_14  and  C11_15 
REMARK    7  A    between atoms: C12_16  and  C13_17 
REMARK    8  A    between atoms: C13_17  and  C14_18 
REMARK    9  A    between atoms: C14_18  and  C15_19 
REMARK   10  A    between atoms: C15_19  and  C16_21 
REMARK   11  A    between atoms: C16_21  and  N3_22 
ROOT
HETATM    1  C8  UNL     1      25.799   0.433  52.891  1.00  0.00     0.079 A 
HETATM    2  C9  UNL     1      26.666   0.382  51.850  1.00  0.00     0.043 A 
HETATM    3  C10 UNL     1      26.960   1.812  52.109  1.00  0.00     0.120 A 
HETATM    4  C17 UNL     1      27.838   2.188  53.195  1.00  0.00     0.698 A 
HETATM    5  N4  UNL     1      27.012   2.184  54.162  1.00  0.00     0.036 NA
HETATM    6  C18 UNL     1      25.963   1.797  53.275  1.00  0.00     0.293 A 
ENDROOT
BRANCH   3   7
HETATM    7  N2  UNL     1      26.604   2.723  51.088  1.00  0.00    -0.385 N 
HETATM    8  H16 UNL     1      27.451   2.864  50.441  1.00  0.00     0.159 HD
BRANCH   7   9
HETATM    9  C11 UNL     1      26.055   3.602  50.197  1.00  0.00     0.066 C 
HETATM   10  C12 UNL     1      26.421   4.528  49.252  1.00  0.00     0.059 C 
BRANCH  10  11
HETATM   11  C13 UNL     1      27.755   5.035  48.703  1.00  0.00    -0.014 C 
BRANCH  11  12
HETATM   12  C14 UNL     1      27.737   6.338  48.093  1.00  0.00     0.021 C 
BRANCH  12  13
HETATM   13  C15 UNL     1      26.932   7.616  48.494  1.00  0.00     0.043 C 
HETATM   14 CL1  UNL     1      25.456   7.474  47.509  1.00  0.00    -0.083 Cl
BRANCH  13  15
HETATM   15  C16 UNL     1      27.575   8.462  49.456  1.00  0.00     0.078 C 
BRANCH  15  16
HETATM   16  N3  UNL     1      26.622   8.042  50.493  1.00  0.00    -0.311 N 
HETATM   17  H22 UNL     1      27.112   7.156  50.153  1.00  0.00     0.123 HD
HETATM   18  H23 UNL     1      27.174   7.176  50.085  1.00  0.00     0.123 HD
ENDBRANCH  15  16
ENDBRANCH  13  15
ENDBRANCH  12  13
ENDBRANCH  11  12
ENDBRANCH  10  11
ENDBRANCH   7   9
ENDBRANCH   3   7
BRANCH   1  19
HETATM   19  O2  UNL     1      25.097  -0.771  53.203  1.00  0.00    -0.353 OA
BRANCH  19  20
HETATM   20  C7  UNL     1      24.089  -0.553  54.199  1.00  0.00     0.177 C 
BRANCH  20  21
HETATM   21  C6  UNL     1      22.760  -0.982  53.666  1.00  0.00     0.062 C 
BRANCH  21  22
HETATM   22  C5  UNL     1      21.827   0.177  53.591  1.00  0.00     0.230 C 
HETATM   23  C2  UNL     1      21.433   0.413  52.143  1.00  0.00     0.039 C 
HETATM   24  C1  UNL     1      22.466   1.218  51.414  1.00  0.00     0.014 C 
HETATM   25  C3  UNL     1      20.092   1.142  52.206  1.00  0.00     0.176 C 
HETATM   26  O1  UNL     1      19.131   0.205  52.545  1.00  0.00    -0.362 OA
HETATM   27  C4  UNL     1      19.591  -0.681  53.527  1.00  0.00     0.438 C 
HETATM   28  N1  UNL     1      20.601  -0.051  54.332  1.00  0.00     0.111 N 
HETATM   29  H9  UNL     1      20.257   0.771  54.851  1.00  0.00     0.319 HD
ENDBRANCH  21  22
ENDBRANCH  20  21
ENDBRANCH  19  20
ENDBRANCH   1  19
TORSDOF 11
ENDMDL
MODEL 3
REMARK VINA RESULT:      -6.7      2.317      2.999
REMARK  11 active torsions:
REMARK  status: ('A' for Active; 'I' for Inactive)
REMARK    1  A    between atoms: C5_7  and  C6_8 
REMARK    2  A    between atoms: C6_8  and  C7_9 
REMARK    3  A    between atoms: C7_9  and  O2_10 
REMARK    4  A    between atoms: O2_10  and  C8_11 
REMARK    5  A    between atoms: C10_13  and  N2_14 
REMARK    6  A    between atoms: N2_14  and  C11_15 
REMARK    7  A    between atoms: C12_16  and  C13_17 
REMARK    8  A    between atoms: C13_17  and  C14_18 
REMARK    9  A    between atoms: C14_18  and  C15_19 
REMARK   10  A    between atoms: C15_19  and  C16_21 
REMARK   11  A    between atoms: C16_21  and  N3_22 
ROOT
HETATM    1  C8  UNL     1      23.253  -0.048  53.176  1.00  0.00     0.079 A 
HETATM    2  C9  UNL     1      22.509   1.085  53.189  1.00  0.00     0.043 A 
HETATM    3  C10 UNL     1      21.361   0.247  53.613  1.00  0.00     0.120 A 
HETATM    4  C17 UNL     1      21.246  -0.187  54.987  1.00  0.00     0.698 A 
HETATM    5  N4  UNL     1      21.987  -1.220  54.958  1.00  0.00     0.036 NA
HETATM    6  C18 UNL     1      22.263  -0.994  53.577  1.00  0.00     0.293 A 
ENDROOT
BRANCH   3   7
HETATM    7  N2  UNL     1      20.273   0.167  52.712  1.00  0.00    -0.385 N 
HETATM    8  H16 UNL     1      20.531   0.697  51.813  1.00  0.00     0.159 HD
BRANCH   7   9
HETATM    9  C11 UNL     1      19.125  -0.039  51.999  1.00  0.00     0.066 C 
HETATM   10  C12 UNL     1      18.481   0.399  50.870  1.00  0.00     0.059 C 
BRANCH  10  11
HETATM   11  C13 UNL     1      18.800   1.417  49.775  1.00  0.00    -0.014 C 
BRANCH  11  12
HETATM   12  C14 UNL     1      18.388   2.772  50.027  1.00  0.00     0.021 C 
BRANCH  12  13
HETATM   13  C15 UNL     1      18.257   3.540  51.382  1.00  0.00     0.043 C 
HETATM   14 CL1  UNL     1      19.936   3.581  51.973  1.00  0.00    -0.083 Cl
BRANCH  13  15
HETATM   15  C16 UNL     1      16.925   3.945  51.723  1.00  0.00     0.078 C 
BRANCH  15  16
HETATM   16  N3  UNL     1      16.803   4.681  50.458  1.00  0.00    -0.311 N 
HETATM   17  H22 UNL     1      17.272   5.344  51.152  1.00  0.00     0.123 HD
HETATM   18  H23 UNL     1      17.283   5.302  51.236  1.00  0.00     0.123 HD
ENDBRANCH  15  16
ENDBRANCH  13  15
ENDBRANCH  12  13
ENDBRANCH  11  12
ENDBRANCH  10  11
ENDBRANCH   7   9
ENDBRANCH   3   7
BRANCH   1  19
HETATM   19  O2  UNL     1      24.626   0.089  52.803  1.00  0.00    -0.353 OA
BRANCH  19  20
HETATM   20  C7  UNL     1      25.430  -0.964  53.352  1.00  0.00     0.177 C 
BRANCH  20  21
HETATM   21  C6  UNL     1      26.860  -0.748  52.971  1.00  0.00     0.062 C 
BRANCH  21  22
HETATM   22  C5  UNL     1      27.594  -0.052  54.064  1.00  0.00     0.230 C 
HETATM   23  C2  UNL     1      28.969   0.359  53.564  1.00  0.00     0.039 C 
HETATM   24  C1  UNL     1      29.949  -0.771  53.647  1.00  0.00     0.014 C 
HETATM   25  C3  UNL     1      29.384   1.532  54.452  1.00  0.00     0.176 C 
HETATM   26  O1  UNL     1      28.659   2.636  54.038  1.00  0.00    -0.362 OA
HETATM   27  C4  UNL     1      27.331   2.307  53.741  1.00  0.00     0.438 C 
HETATM   28  N1  UNL     1      26.922   1.157  54.499  1.00  0.00     0.111 N 
HETATM   29  H9  UNL     1      26.940   1.312  55.519  1.00  0.00     0.319 HD
ENDBRANCH  21  22
ENDBRANCH  20  21
ENDBRANCH  19  20
ENDBRANCH   1  19
TORSDOF 11
ENDMDL
MODEL 4
REMARK VINA RESULT:      -6.7      2.939      4.626
REMARK  11 active torsions:
REMARK  status: ('A' for Active; 'I' for Inactive)
REMARK    1  A    between atoms: C5_7  and  C6_8 
REMARK    2  A    between atoms: C6_8  and  C7_9 
REMARK    3  A    between atoms: C7_9  and  O2_10 
REMARK    4  A    between atoms: O2_10  and  C8_11 
REMARK    5  A    between atoms: C10_13  and  N2_14 
REMARK    6  A    between atoms: N2_14  and  C11_15 
REMARK    7  A    between atoms: C12_16  and  C13_17 
REMARK    8  A    between atoms: C13_17  and  C14_18 
REMARK    9  A    between atoms: C14_18  and  C15_19 
REMARK   10  A    between atoms: C15_19  and  C16_21 
REMARK   11  A    between atoms: C16_21  and  N3_22 
ROOT
HETATM    1  C8  UNL     1      23.263   0.321  52.845  1.00  0.00     0.079 A 
HETATM    2  C9  UNL     1      22.573   1.480  52.708  1.00  0.00     0.043 A 
HETATM    3  C10 UNL     1      21.331   0.678  52.826  1.00  0.00     0.120 A 
HETATM    4  C17 UNL     1      20.878   0.225  54.123  1.00  0.00     0.698 A 
HETATM    5  N4  UNL     1      21.572  -0.834  54.245  1.00  0.00     0.036 NA
HETATM    6  C18 UNL     1      22.176  -0.595  52.975  1.00  0.00     0.293 A 
ENDROOT
BRANCH   3   7
HETATM    7  N2  UNL     1      20.488   0.652  51.691  1.00  0.00    -0.385 N 
HETATM    8  H16 UNL     1      21.100   0.630  50.808  1.00  0.00     0.159 HD
BRANCH   7   9
HETATM    9  C11 UNL     1      19.504   0.621  50.743  1.00  0.00     0.066 C 
HETATM   10  C12 UNL     1      18.157   0.391  50.615  1.00  0.00     0.059 C 
BRANCH  10  11
HETATM   11  C13 UNL     1      17.027   0.043  51.584  1.00  0.00    -0.014 C 
BRANCH  11  12
HETATM   12  C14 UNL     1      17.344  -0.910  52.614  1.00  0.00     0.021 C 
BRANCH  12  13
HETATM   13  C15 UNL     1      16.686  -2.291  52.933  1.00  0.00     0.043 C 
HETATM   14 CL1  UNL     1      15.027  -2.085  52.324  1.00  0.00    -0.083 Cl
BRANCH  13  15
HETATM   15  C16 UNL     1      17.547  -3.239  53.578  1.00  0.00     0.078 C 
BRANCH  15  16
HETATM   16  N3  UNL     1      18.419  -2.156  54.051  1.00  0.00    -0.311 N 
HETATM   17  H22 UNL     1      18.938  -2.638  53.252  1.00  0.00     0.123 HD
HETATM   18  H23 UNL     1      18.888  -2.709  53.217  1.00  0.00     0.123 HD
ENDBRANCH  15  16
ENDBRANCH  13  15
ENDBRANCH  12  13
ENDBRANCH  11  12
ENDBRANCH  10  11
ENDBRANCH   7   9
ENDBRANCH   3   7
BRANCH   1  19
HETATM   19  O2  UNL     1      24.688   0.414  52.813  1.00  0.00    -0.353 OA
BRANCH  19  20
HETATM   20  C7  UNL     1      25.307  -0.738  53.400  1.00  0.00     0.177 C 
BRANCH  20  21
HETATM   21  C6  UNL     1      26.767  -0.739  53.078  1.00  0.00     0.062 C 
BRANCH  21  22
HETATM   22  C5  UNL     1      27.538  -0.036  54.141  1.00  0.00     0.230 C 
HETATM   23  C2  UNL     1      28.912   0.331  53.606  1.00  0.00     0.039 C 
HETATM   24  C1  UNL     1      29.866  -0.821  53.698  1.00  0.00     0.014 C 
HETATM   25  C3  UNL     1      29.371   1.513  54.458  1.00  0.00     0.176 C 
HETATM   26  O1  UNL     1      28.665   2.625  54.032  1.00  0.00    -0.362 OA
HETATM   27  C4  UNL     1      27.324   2.321  53.768  1.00  0.00     0.438 C 
HETATM   28  N1  UNL     1      26.903   1.199  54.560  1.00  0.00     0.111 N 
HETATM   29  H9  UNL     1      26.944   1.377  55.575  1.00  0.00     0.319 HD
ENDBRANCH  21  22
ENDBRANCH  20  21
ENDBRANCH  19  20
ENDBRANCH   1  19
TORSDOF 11
ENDMDL
MODEL 5
REMARK VINA RESULT:      -6.6      2.080      5.854
REMARK  11 active torsions:
REMARK  status: ('A' for Active; 'I' for Inactive)
REMARK    1  A    between atoms: C5_7  and  C6_8 
REMARK    2  A    between atoms: C6_8  and  C7_9 
REMARK    3  A    between atoms: C7_9  and  O2_10 
REMARK    4  A    between atoms: O2_10  and  C8_11 
REMARK    5  A    between atoms: C10_13  and  N2_14 
REMARK    6  A    between atoms: N2_14  and  C11_15 
REMARK    7  A    between atoms: C12_16  and  C13_17 
REMARK    8  A    between atoms: C13_17  and  C14_18 
REMARK    9  A    between atoms: C14_18  and  C15_19 
REMARK   10  A    between atoms: C15_19  and  C16_21 
REMARK   11  A    between atoms: C16_21  and  N3_22 
ROOT
HETATM    1  C8  UNL     1      25.638   0.472  52.881  1.00  0.00     0.079 A 
HETATM    2  C9  UNL     1      26.601   0.402  51.930  1.00  0.00     0.043 A 
HETATM    3  C10 UNL     1      26.969   1.792  52.294  1.00  0.00     0.120 A 
HETATM    4  C17 UNL     1      27.756   2.048  53.480  1.00  0.00     0.698 A 
HETATM    5  N4  UNL     1      26.836   2.063  54.359  1.00  0.00     0.036 NA
HETATM    6  C18 UNL     1      25.859   1.800  53.353  1.00  0.00     0.293 A 
ENDROOT
BRANCH   3   7
HETATM    7  N2  UNL     1      26.786   2.775  51.293  1.00  0.00    -0.385 N 
HETATM    8  H16 UNL     1      27.622   3.450  51.318  1.00  0.00     0.159 HD
BRANCH   7   9
HETATM    9  C11 UNL     1      26.422   3.609  50.274  1.00  0.00     0.066 C 
HETATM   10  C12 UNL     1      25.329   3.955  49.521  1.00  0.00     0.059 C 
BRANCH  10  11
HETATM   11  C13 UNL     1      23.862   3.525  49.492  1.00  0.00    -0.014 C 
BRANCH  11  12
HETATM   12  C14 UNL     1      22.927   4.409  50.135  1.00  0.00     0.021 C 
BRANCH  12  13
HETATM   13  C15 UNL     1      22.459   4.454  51.625  1.00  0.00     0.043 C 
HETATM   14 CL1  UNL     1      20.685   4.472  51.479  1.00  0.00    -0.083 Cl
BRANCH  13  15
HETATM   15  C16 UNL     1      23.516   4.473  52.592  1.00  0.00     0.078 C 
BRANCH  15  16
HETATM   16  N3  UNL     1      23.831   5.867  52.252  1.00  0.00    -0.311 N 
HETATM   17  H22 UNL     1      24.127   5.274  51.414  1.00  0.00     0.123 HD
HETATM   18  H23 UNL     1      24.110   5.183  51.430  1.00  0.00     0.123 HD
ENDBRANCH  15  16
ENDBRANCH  13  15
ENDBRANCH  12  13
ENDBRANCH  11  12
ENDBRANCH  10  11
ENDBRANCH   7   9
ENDBRANCH   3   7
BRANCH   1  19
HETATM   19  O2  UNL     1      24.823  -0.689  53.057  1.00  0.00    -0.353 OA
BRANCH  19  20
HETATM   20  C7  UNL     1      23.694  -0.419  53.898  1.00  0.00     0.177 C 
BRANCH  20  21
HETATM   21  C6  UNL     1      22.453  -0.946  53.251  1.00  0.00     0.062 C 
BRANCH  21  22
HETATM   22  C5  UNL     1      21.419   0.121  53.155  1.00  0.00     0.230 C 
HETATM   23  C2  UNL     1      20.830   0.126  51.754  1.00  0.00     0.039 C 
HETATM   24  C1  UNL     1      21.690   0.894  50.796  1.00  0.00     0.014 C 
HETATM   25  C3  UNL     1      19.447   0.759  51.903  1.00  0.00     0.176 C 
HETATM   26  O1  UNL     1      18.623  -0.188  52.485  1.00  0.00    -0.362 OA
HETATM   27  C4  UNL     1      19.277  -0.895  53.501  1.00  0.00     0.438 C 
HETATM   28  N1  UNL     1      20.319  -0.088  54.076  1.00  0.00     0.111 N 
HETATM   29  H9  UNL     1      19.969   0.771  54.527  1.00  0.00     0.319 HD
ENDBRANCH  21  22
ENDBRANCH  20  21
ENDBRANCH  19  20
ENDBRANCH   1  19
TORSDOF 11
ENDMDL
MODEL 6
REMARK VINA RESULT:      -6.5      4.949      7.730
REMARK  11 active torsions:
REMARK  status: ('A' for Active; 'I' for Inactive)
REMARK    1  A    between atoms: C5_7  and  C6_8 
REMARK    2  A    between atoms: C6_8  and  C7_9 
REMARK    3  A    between atoms: C7_9  and  O2_10 
REMARK    4  A    between atoms: O2_10  and  C8_11 
REMARK    5  A    between atoms: C10_13  and  N2_14 
REMARK    6  A    between atoms: N2_14  and  C11_15 
REMARK    7  A    between atoms: C12_16  and  C13_17 
REMARK    8  A    between atoms: C13_17  and  C14_18 
REMARK    9  A    between atoms: C14_18  and  C15_19 
REMARK   10  A    between atoms: C15_19  and  C16_21 
REMARK   11  A    between atoms: C16_21  and  N3_22 
ROOT
HETATM    1  C8  UNL     1      26.906   4.388  49.267  1.00  0.00     0.079 A 
HETATM    2  C9  UNL     1      26.706   3.053  49.390  1.00  0.00     0.043 A 
HETATM    3  C10 UNL     1      25.495   3.374  50.183  1.00  0.00     0.120 A 
HETATM    4  C17 UNL     1      24.279   3.785  49.517  1.00  0.00     0.698 A 
HETATM    5  N4  UNL     1      24.512   5.028  49.374  1.00  0.00     0.036 NA
HETATM    6  C18 UNL     1      25.783   4.871  50.003  1.00  0.00     0.293 A 
ENDROOT
BRANCH   3   7
HETATM    7  N2  UNL     1      25.503   2.968  51.538  1.00  0.00    -0.385 N 
HETATM    8  H16 UNL     1      26.395   3.344  52.005  1.00  0.00     0.159 HD
BRANCH   7   9
HETATM    9  C11 UNL     1      25.309   2.485  52.801  1.00  0.00     0.066 C 
HETATM   10  C12 UNL     1      26.005   1.939  53.851  1.00  0.00     0.059 C 
BRANCH  10  11
HETATM   11  C13 UNL     1      27.474   1.604  54.109  1.00  0.00    -0.014 C 
BRANCH  11  12
HETATM   12  C14 UNL     1      27.774   0.222  54.372  1.00  0.00     0.021 C 
BRANCH  12  13
HETATM   13  C15 UNL     1      28.210  -0.909  53.385  1.00  0.00     0.043 C 
HETATM   14 CL1  UNL     1      29.986  -0.861  53.493  1.00  0.00    -0.083 Cl
BRANCH  13  15
HETATM   15  C16 UNL     1      27.133  -1.592  52.732  1.00  0.00     0.078 C 
BRANCH  15  16
HETATM   16  N3  UNL     1      27.789  -2.887  52.956  1.00  0.00    -0.311 N 
HETATM   17  H22 UNL     1      28.550  -2.142  53.034  1.00  0.00     0.123 HD
HETATM   18  H23 UNL     1      28.514  -2.056  53.020  1.00  0.00     0.123 HD
ENDBRANCH  15  16
ENDBRANCH  13  15
ENDBRANCH  12  13
ENDBRANCH  11  12
ENDBRANCH  10  11
ENDBRANCH   7   9
ENDBRANCH   3   7
BRANCH   1  19
HETATM   19  O2  UNL     1      28.053   4.801  48.523  1.00  0.00    -0.353 OA
BRANCH  19  20
HETATM   20  C7  UNL     1      28.006   6.199  48.209  1.00  0.00     0.177 C 
BRANCH  20  21
HETATM   21  C6  UNL     1      29.348   6.647  47.725  1.00  0.00     0.062 C 
BRANCH  21  22
HETATM   22  C5  UNL     1      30.417   6.200  48.660  1.00  0.00     0.230 C 
HETATM   23  C2  UNL     1      31.652   5.814  47.863  1.00  0.00     0.039 C 
HETATM   24  C1  UNL     1      31.553   4.415  47.334  1.00  0.00     0.014 C 
HETATM   25  C3  UNL     1      32.821   5.967  48.836  1.00  0.00     0.176 C 
HETATM   26  O1  UNL     1      33.064   7.322  48.975  1.00  0.00    -0.362 OA
HETATM   27  C4  UNL     1      31.877   8.060  49.051  1.00  0.00     0.438 C 
HETATM   28  N1  UNL     1      30.819   7.245  49.582  1.00  0.00     0.111 N 
HETATM   29  H9  UNL     1      30.996   6.921  50.545  1.00  0.00     0.319 HD
ENDBRANCH  21  22
ENDBRANCH  20  21
ENDBRANCH  19  20
ENDBRANCH   1  19
TORSDOF 11
ENDMDL
MODEL 7
REMARK VINA RESULT:      -6.5      1.492      2.057
REMARK  11 active torsions:
REMARK  status: ('A' for Active; 'I' for Inactive)
REMARK    1  A    between atoms: C5_7  and  C6_8 
REMARK    2  A    between atoms: C6_8  and  C7_9 
REMARK    3  A    between atoms: C7_9  and  O2_10 
REMARK    4  A    between atoms: O2_10  and  C8_11 
REMARK    5  A    between atoms: C10_13  and  N2_14 
REMARK    6  A    between atoms: N2_14  and  C11_15 
REMARK    7  A    between atoms: C12_16  and  C13_17 
REMARK    8  A    between atoms: C13_17  and  C14_18 
REMARK    9  A    between atoms: C14_18  and  C15_19 
REMARK   10  A    between atoms: C15_19  and  C16_21 
REMARK   11  A    between atoms: C16_21  and  N3_22 
ROOT
HETATM    1  C8  UNL     1      23.532   0.718  52.950  1.00  0.00     0.079 A 
HETATM    2  C9  UNL     1      23.766   1.992  52.551  1.00  0.00     0.043 A 
HETATM    3  C10 UNL     1      22.506   1.910  51.774  1.00  0.00     0.120 A 
HETATM    4  C17 UNL     1      21.230   2.048  52.440  1.00  0.00     0.698 A 
HETATM    5  N4  UNL     1      21.058   0.853  52.843  1.00  0.00     0.036 NA
HETATM    6  C18 UNL     1      22.306   0.470  52.266  1.00  0.00     0.293 A 
ENDROOT
BRANCH   3   7
HETATM    7  N2  UNL     1      22.626   2.003  50.367  1.00  0.00    -0.385 N 
HETATM    8  H16 UNL     1      23.172   1.148  50.012  1.00  0.00     0.159 HD
BRANCH   7   9
HETATM    9  C11 UNL     1      22.618   2.280  49.029  1.00  0.00     0.066 C 
HETATM   10  C12 UNL     1      22.660   3.342  48.162  1.00  0.00     0.059 C 
BRANCH  10  11
HETATM   11  C13 UNL     1      22.760   4.859  48.323  1.00  0.00    -0.014 C 
BRANCH  11  12
HETATM   12  C14 UNL     1      24.067   5.383  48.620  1.00  0.00     0.021 C 
BRANCH  12  13
HETATM   13  C15 UNL     1      25.061   4.996  49.763  1.00  0.00     0.043 C 
HETATM   14 CL1  UNL     1      24.105   5.300  51.233  1.00  0.00    -0.083 Cl
BRANCH  13  15
HETATM   15  C16 UNL     1      26.350   4.553  49.321  1.00  0.00     0.078 C 
BRANCH  15  16
HETATM   16  N3  UNL     1      26.075   3.196  49.811  1.00  0.00    -0.311 N 
HETATM   17  H22 UNL     1      25.501   3.320  48.920  1.00  0.00     0.123 HD
HETATM   18  H23 UNL     1      25.513   3.406  48.883  1.00  0.00     0.123 HD
ENDBRANCH  15  16
ENDBRANCH  13  15
ENDBRANCH  12  13
ENDBRANCH  11  12
ENDBRANCH  10  11
ENDBRANCH   7   9
ENDBRANCH   3   7
BRANCH   1  19
HETATM   19  O2  UNL     1      24.498   0.131  53.824  1.00  0.00    -0.353 OA
BRANCH  19  20
HETATM   20  C7  UNL     1      25.254  -0.893  53.165  1.00  0.00     0.177 C 
BRANCH  20  21
HETATM   21  C6  UNL     1      26.578  -0.342  52.743  1.00  0.00     0.062 C 
BRANCH  21  22
HETATM   22  C5  UNL     1      27.344   0.145  53.924  1.00  0.00     0.230 C 
HETATM   23  C2  UNL     1      28.813   0.270  53.555  1.00  0.00     0.039 C 
HETATM   24  C1  UNL     1      29.522  -1.047  53.657  1.00  0.00     0.014 C 
HETATM   25  C3  UNL     1      29.386   1.296  54.531  1.00  0.00     0.176 C 
HETATM   26  O1  UNL     1      28.948   2.543  54.118  1.00  0.00    -0.362 OA
HETATM   27  C4  UNL     1      27.612   2.515  53.702  1.00  0.00     0.438 C 
HETATM   28  N1  UNL     1      26.906   1.455  54.366  1.00  0.00     0.111 N 
HETATM   29  H9  UNL     1      26.867   1.569  55.390  1.00  0.00     0.319 HD
ENDBRANCH  21  22
ENDBRANCH  20  21
ENDBRANCH  19  20
ENDBRANCH   1  19
TORSDOF 11
ENDMDL
MODEL 8
REMARK VINA RESULT:      -6.4      2.620      5.885
REMARK  11 active torsions:
REMARK  status: ('A' for Active; 'I' for Inactive)
REMARK    1  A    between atoms: C5_7  and  C6_8 
REMARK    2  A    between atoms: C6_8  and  C7_9 
REMARK    3  A    between atoms: C7_9  and  O2_10 
REMARK    4  A    between atoms: O2_10  and  C8_11 
REMARK    5  A    between atoms: C10_13  and  N2_14 
REMARK    6  A    between atoms: N2_14  and  C11_15 
REMARK    7  A    between atoms: C12_16  and  C13_17 
REMARK    8  A    between atoms: C13_17  and  C14_18 
REMARK    9  A    between atoms: C14_18  and  C15_19 
REMARK   10  A    between atoms: C15_19  and  C16_21 
REMARK   11  A    between atoms: C16_21  and  N3_22 
ROOT
HETATM    1  C8  UNL     1      26.812   0.459  52.605  1.00  0.00     0.079 A 
HETATM    2  C9  UNL     1      26.335   1.200  53.634  1.00  0.00     0.043 A 
HETATM    3  C10 UNL     1      26.744   0.095  54.535  1.00  0.00     0.120 A 
HETATM    4  C17 UNL     1      28.132  -0.059  54.912  1.00  0.00     0.698 A 
HETATM    5  N4  UNL     1      28.564  -0.715  53.912  1.00  0.00     0.036 NA
HETATM    6  C18 UNL     1      27.264  -0.689  53.322  1.00  0.00     0.293 A 
ENDROOT
BRANCH   3   7
HETATM    7  N2  UNL     1      25.705  -0.574  55.223  1.00  0.00    -0.385 N 
HETATM    8  H16 UNL     1      26.108  -1.001  56.123  1.00  0.00     0.159 HD
BRANCH   7   9
HETATM    9  C11 UNL     1      24.569  -1.146  55.721  1.00  0.00     0.066 C 
HETATM   10  C12 UNL     1      23.267  -1.405  55.373  1.00  0.00     0.059 C 
BRANCH  10  11
HETATM   11  C13 UNL     1      22.416  -1.156  54.128  1.00  0.00    -0.014 C 
BRANCH  11  12
HETATM   12  C14 UNL     1      21.744   0.114  54.060  1.00  0.00     0.021 C 
BRANCH  12  13
HETATM   13  C15 UNL     1      21.637   1.125  52.873  1.00  0.00     0.043 C 
HETATM   14 CL1  UNL     1      23.190   0.907  52.032  1.00  0.00    -0.083 Cl
BRANCH  13  15
HETATM   15  C16 UNL     1      20.416   1.874  52.823  1.00  0.00     0.078 C 
BRANCH  15  16
HETATM   16  N3  UNL     1      19.658   0.658  52.501  1.00  0.00    -0.311 N 
HETATM   17  H22 UNL     1      20.033   1.037  51.576  1.00  0.00     0.123 HD
HETATM   18  H23 UNL     1      20.083   1.116  51.589  1.00  0.00     0.123 HD
ENDBRANCH  15  16
ENDBRANCH  13  15
ENDBRANCH  12  13
ENDBRANCH  11  12
ENDBRANCH  10  11
ENDBRANCH   7   9
ENDBRANCH   3   7
BRANCH   1  19
HETATM   19  O2  UNL     1      26.704   1.027  51.299  1.00  0.00    -0.353 OA
BRANCH  19  20
HETATM   20  C7  UNL     1      26.716   2.460  51.344  1.00  0.00     0.177 C 
BRANCH  20  21
HETATM   21  C6  UNL     1      26.399   3.004  49.987  1.00  0.00     0.062 C 
BRANCH  21  22
HETATM   22  C5  UNL     1      26.247   4.484  50.039  1.00  0.00     0.230 C 
HETATM   23  C2  UNL     1      26.615   5.075  48.688  1.00  0.00     0.039 C 
HETATM   24  C1  UNL     1      28.097   5.249  48.546  1.00  0.00     0.014 C 
HETATM   25  C3  UNL     1      25.882   6.415  48.624  1.00  0.00     0.176 C 
HETATM   26  O1  UNL     1      24.546   6.140  48.387  1.00  0.00    -0.362 OA
HETATM   27  C4  UNL     1      24.102   5.036  49.125  1.00  0.00     0.438 C 
HETATM   28  N1  UNL     1      24.884   4.891  50.322  1.00  0.00     0.111 N 
HETATM   29  H9  UNL     1      24.802   5.694  50.963  1.00  0.00     0.319 HD
ENDBRANCH  21  22
ENDBRANCH  20  21
ENDBRANCH  19  20
ENDBRANCH   1  19
TORSDOF 11
ENDMDL
MODEL 9
REMARK VINA RESULT:      -6.4      2.309      4.202
REMARK  11 active torsions:
REMARK  status: ('A' for Active; 'I' for Inactive)
REMARK    1  A    between atoms: C5_7  and  C6_8 
REMARK    2  A    between atoms: C6_8  and  C7_9 
REMARK    3  A    between atoms: C7_9  and  O2_10 
REMARK    4  A    between atoms: O2_10  and  C8_11 
REMARK    5  A    between atoms: C10_13  and  N2_14 
REMARK    6  A    between atoms: N2_14  and  C11_15 
REMARK    7  A    between atoms: C12_16  and  C13_17 
REMARK    8  A    between atoms: C13_17  and  C14_18 
REMARK    9  A    between atoms: C14_18  and  C15_19 
REMARK   10  A    between atoms: C15_19  and  C16_21 
REMARK   11  A    between atoms: C16_21  and  N3_22 
ROOT
HETATM    1  C8  UNL     1      23.509   3.117  51.666  1.00  0.00     0.079 A 
HETATM    2  C9  UNL     1      23.338   2.701  50.388  1.00  0.00     0.043 A 
HETATM    3  C10 UNL     1      21.966   3.259  50.459  1.00  0.00     0.120 A 
HETATM    4  C17 UNL     1      21.753   4.683  50.328  1.00  0.00     0.698 A 
HETATM    5  N4  UNL     1      21.963   5.052  51.527  1.00  0.00     0.036 NA
HETATM    6  C18 UNL     1      22.230   3.702  51.904  1.00  0.00     0.293 A 
ENDROOT
BRANCH   3   7
HETATM    7  N2  UNL     1      20.903   2.332  50.349  1.00  0.00    -0.385 N 
HETATM    8  H16 UNL     1      20.040   2.843  49.962  1.00  0.00     0.159 HD
BRANCH   7   9
HETATM    9  C11 UNL     1      20.026   1.285  50.315  1.00  0.00     0.066 C 
HETATM   10  C12 UNL     1      19.395   0.397  51.150  1.00  0.00     0.059 C 
BRANCH  10  11
HETATM   11  C13 UNL     1      19.378   0.168  52.661  1.00  0.00    -0.014 C 
BRANCH  11  12
HETATM   12  C14 UNL     1      20.641   0.300  53.339  1.00  0.00     0.021 C 
BRANCH  12  13
HETATM   13  C15 UNL     1      21.848  -0.691  53.401  1.00  0.00     0.043 C 
HETATM   14 CL1  UNL     1      21.284  -1.925  54.553  1.00  0.00    -0.083 Cl
BRANCH  13  15
HETATM   15  C16 UNL     1      22.968  -0.334  52.581  1.00  0.00     0.078 C 
BRANCH  15  16
HETATM   16  N3  UNL     1      23.645   0.276  53.733  1.00  0.00    -0.311 N 
HETATM   17  H22 UNL     1      23.054  -0.526  54.116  1.00  0.00     0.123 HD
HETATM   18  H23 UNL     1      23.007  -0.570  54.047  1.00  0.00     0.123 HD
ENDBRANCH  15  16
ENDBRANCH  13  15
ENDBRANCH  12  13
ENDBRANCH  11  12
ENDBRANCH  10  11
ENDBRANCH   7   9
ENDBRANCH   3   7
BRANCH   1  19
HETATM   19  O2  UNL     1      24.778   2.850  52.265  1.00  0.00    -0.353 OA
BRANCH  19  20
HETATM   20  C7  UNL     1      25.827   2.815  51.288  1.00  0.00     0.177 C 
BRANCH  20  21
HETATM   21  C6  UNL     1      26.711   1.637  51.548  1.00  0.00     0.062 C 
BRANCH  21  22
HETATM   22  C5  UNL     1      26.812   1.371  53.009  1.00  0.00     0.230 C 
HETATM   23  C2  UNL     1      27.745   0.194  53.243  1.00  0.00     0.039 C 
HETATM   24  C1  UNL     1      27.037  -1.115  53.069  1.00  0.00     0.014 C 
HETATM   25  C3  UNL     1      28.262   0.370  54.670  1.00  0.00     0.176 C 
HETATM   26  O1  UNL     1      29.197   1.391  54.644  1.00  0.00    -0.362 OA
HETATM   27  C4  UNL     1      28.793   2.447  53.819  1.00  0.00     0.438 C 
HETATM   28  N1  UNL     1      27.359   2.497  53.741  1.00  0.00     0.111 N 
HETATM   29  H9  UNL     1      26.906   2.677  54.650  1.00  0.00     0.319 HD
ENDBRANCH  21  22
ENDBRANCH  20  21
ENDBRANCH  19  20
ENDBRANCH   1  19
TORSDOF 11
ENDMDL
