MODEL 1
REMARK VINA RESULT:      -6.8      0.000      0.000
REMARK  4 active torsions:
REMARK  status: ('A' for Active; 'I' for Inactive)
REMARK    1  A    between atoms: C10_13  and  O1_14 
REMARK    2  A    between atoms: O1_14  and  C11_15 
REMARK    3  A    between atoms: C11_15  and  C12_16 
REMARK    4  A    between atoms: C12_16  and  O2_17 
ROOT
HETATM    1  C1  UNL     1      18.591   0.046  51.200  1.00  0.00     0.017 C 
HETATM    2  C2  UNL     1      19.681   0.496  51.532  1.00  0.00    -0.082 C 
HETATM    3  C3  UNL     1      20.980   1.006  51.916  1.00  0.00    -0.004 A 
HETATM    4  C4  UNL     1      21.563   1.312  53.030  1.00  0.00     0.025 A 
HETATM    5  C5  UNL     1      22.797   1.714  52.352  1.00  0.00     0.077 A 
HETATM    6  C6  UNL     1      22.124   1.376  51.078  1.00  0.00     0.087 A 
HETATM    7  N1  UNL     1      23.164   3.076  52.481  1.00  0.00    -0.379 N 
HETATM    8  C7  UNL     1      23.515   4.419  52.570  1.00  0.00     0.454 C 
HETATM    9  N2  UNL     1      24.128   4.659  51.481  1.00  0.00    -0.335 NA
HETATM   10  N3  UNL     1      24.334   3.675  50.489  1.00  0.00    -0.324 N 
HETATM   11  C8  UNL     1      25.417   2.832  50.821  1.00  0.00     0.108 C 
HETATM   12  C9  UNL     1      25.853   1.782  51.482  1.00  0.00     0.055 C 
HETATM   13  C10 UNL     1      25.205   0.828  52.365  1.00  0.00     0.074 C 
HETATM   14  C14 UNL     1      23.914   0.786  52.742  1.00  0.00    -0.019 C 
HETATM   15  C15 UNL     1      23.580  -0.334  53.669  1.00  0.00     0.049 C 
HETATM   16  H5  UNL     1      23.461   3.146  53.482  1.00  0.00     0.157 HD
HETATM   17  H7  UNL     1      23.752   3.607  49.642  1.00  0.00     0.184 HD
ENDROOT
BRANCH  13  18
HETATM   18  O1  UNL     1      26.028  -0.164  52.882  1.00  0.00    -0.349 OA
BRANCH  18  19
HETATM   19  C11 UNL     1      27.390   0.088  53.053  1.00  0.00     0.201 C 
BRANCH  19  20
HETATM   20  C12 UNL     1      27.624   0.314  54.522  1.00  0.00     0.193 C 
BRANCH  20  21
HETATM   21  O2  UNL     1      28.595   1.250  54.780  1.00  0.00    -0.394 OA
HETATM   22  C13 UNL     1      28.681   2.143  53.730  1.00  0.00     0.201 C 
ENDBRANCH  20  21
ENDBRANCH  19  20
ENDBRANCH  18  19
ENDBRANCH  13  18
TORSDOF 4
ENDMDL
MODEL 2
REMARK VINA RESULT:      -6.6      3.121      5.698
REMARK  4 active torsions:
REMARK  status: ('A' for Active; 'I' for Inactive)
REMARK    1  A    between atoms: C10_13  and  O1_14 
REMARK    2  A    between atoms: O1_14  and  C11_15 
REMARK    3  A    between atoms: C11_15  and  C12_16 
REMARK    4  A    between atoms: C12_16  and  O2_17 
ROOT
HETATM    1  C1  UNL     1      29.340  -1.726  53.129  1.00  0.00     0.017 C 
HETATM    2  C2  UNL     1      28.233  -1.251  53.350  1.00  0.00    -0.082 C 
HETATM    3  C3  UNL     1      26.928  -0.676  53.592  1.00  0.00    -0.004 A 
HETATM    4  C4  UNL     1      26.393   0.054  54.517  1.00  0.00     0.025 A 
HETATM    5  C5  UNL     1      25.094   0.077  53.842  1.00  0.00     0.077 A 
HETATM    6  C6  UNL     1      25.703  -0.768  52.792  1.00  0.00     0.087 A 
HETATM    7  N1  UNL     1      24.020  -0.530  54.538  1.00  0.00    -0.379 N 
HETATM    8  C7  UNL     1      22.965  -1.157  55.194  1.00  0.00     0.454 C 
HETATM    9  N2  UNL     1      22.219  -1.587  54.257  1.00  0.00    -0.335 NA
HETATM   10  N3  UNL     1      22.523  -1.394  52.892  1.00  0.00    -0.324 N 
HETATM   11  C8  UNL     1      22.172  -0.094  52.467  1.00  0.00     0.108 C 
HETATM   12  C9  UNL     1      22.497   1.177  52.376  1.00  0.00     0.055 C 
HETATM   13  C10 UNL     1      23.665   1.933  52.794  1.00  0.00     0.074 C 
HETATM   14  C14 UNL     1      24.770   1.481  53.415  1.00  0.00    -0.019 C 
HETATM   15  C15 UNL     1      25.786   2.535  53.706  1.00  0.00     0.049 C 
HETATM   16  H5  UNL     1      23.841   0.135  55.325  1.00  0.00     0.157 HD
HETATM   17  H7  UNL     1      22.946  -2.128  52.306  1.00  0.00     0.184 HD
ENDROOT
BRANCH  13  18
HETATM   18  O1  UNL     1      23.629   3.292  52.515  1.00  0.00    -0.349 OA
BRANCH  18  19
HETATM   19  C11 UNL     1      23.306   3.725  51.228  1.00  0.00     0.201 C 
BRANCH  19  20
HETATM   20  C12 UNL     1      24.570   4.242  50.597  1.00  0.00     0.193 C 
BRANCH  20  21
HETATM   21  O2  UNL     1      25.139   3.356  49.716  1.00  0.00    -0.394 OA
HETATM   22  C13 UNL     1      26.514   3.384  49.837  1.00  0.00     0.201 C 
ENDBRANCH  20  21
ENDBRANCH  19  20
ENDBRANCH  18  19
ENDBRANCH  13  18
TORSDOF 4
ENDMDL
MODEL 3
REMARK VINA RESULT:      -6.5      1.860      3.979
REMARK  4 active torsions:
REMARK  status: ('A' for Active; 'I' for Inactive)
REMARK    1  A    between atoms: C10_13  and  O1_14 
REMARK    2  A    between atoms: O1_14  and  C11_15 
REMARK    3  A    between atoms: C11_15  and  C12_16 
REMARK    4  A    between atoms: C12_16  and  O2_17 
ROOT
HETATM    1  C1  UNL     1      23.950   6.908  51.136  1.00  0.00     0.017 C 
HETATM    2  C2  UNL     1      23.832   5.689  51.130  1.00  0.00    -0.082 C 
HETATM    3  C3  UNL     1      23.703   4.248  51.143  1.00  0.00    -0.004 A 
HETATM    4  C4  UNL     1      24.116   3.274  50.398  1.00  0.00     0.025 A 
HETATM    5  C5  UNL     1      23.473   2.266  51.243  1.00  0.00     0.077 A 
HETATM    6  C6  UNL     1      22.992   3.381  52.087  1.00  0.00     0.087 A 
HETATM    7  N1  UNL     1      22.447   1.503  50.632  1.00  0.00    -0.379 N 
HETATM    8  C7  UNL     1      21.412   0.774  50.056  1.00  0.00     0.454 C 
HETATM    9  N2  UNL     1      20.634   0.505  51.025  1.00  0.00    -0.335 NA
HETATM   10  N3  UNL     1      20.895   0.922  52.350  1.00  0.00    -0.324 N 
HETATM   11  C8  UNL     1      21.838   0.078  52.976  1.00  0.00     0.108 C 
HETATM   12  C9  UNL     1      23.101  -0.229  53.177  1.00  0.00     0.055 C 
HETATM   13  C10 UNL     1      24.348   0.343  52.699  1.00  0.00     0.074 C 
HETATM   14  C14 UNL     1      24.521   1.397  51.881  1.00  0.00    -0.019 C 
HETATM   15  C15 UNL     1      25.948   1.718  51.586  1.00  0.00     0.049 C 
HETATM   16  H5  UNL     1      22.972   0.891  49.966  1.00  0.00     0.157 HD
HETATM   17  H7  UNL     1      20.438   1.740  52.776  1.00  0.00     0.184 HD
ENDROOT
BRANCH  13  18
HETATM   18  O1  UNL     1      25.504  -0.284  53.147  1.00  0.00    -0.349 OA
BRANCH  18  19
HETATM   19  C11 UNL     1      25.691  -0.494  54.514  1.00  0.00     0.201 C 
BRANCH  19  20
HETATM   20  C12 UNL     1      26.878   0.328  54.936  1.00  0.00     0.193 C 
BRANCH  20  21
HETATM   21  O2  UNL     1      28.045  -0.394  54.994  1.00  0.00    -0.394 OA
HETATM   22  C13 UNL     1      28.993   0.174  54.166  1.00  0.00     0.201 C 
ENDBRANCH  20  21
ENDBRANCH  19  20
ENDBRANCH  18  19
ENDBRANCH  13  18
TORSDOF 4
ENDMDL
MODEL 4
REMARK VINA RESULT:      -6.5      2.273      4.845
REMARK  4 active torsions:
REMARK  status: ('A' for Active; 'I' for Inactive)
REMARK    1  A    between atoms: C10_13  and  O1_14 
REMARK    2  A    between atoms: O1_14  and  C11_15 
REMARK    3  A    between atoms: C11_15  and  C12_16 
REMARK    4  A    between atoms: C12_16  and  O2_17 
ROOT
HETATM    1  C1  UNL     1      28.076   6.332  48.205  1.00  0.00     0.017 C 
HETATM    2  C2  UNL     1      27.313   5.510  48.697  1.00  0.00    -0.082 C 
HETATM    3  C3  UNL     1      26.420   4.545  49.301  1.00  0.00    -0.004 A 
HETATM    4  C4  UNL     1      26.281   3.259  49.261  1.00  0.00     0.025 A 
HETATM    5  C5  UNL     1      25.142   3.286  50.180  1.00  0.00     0.077 A 
HETATM    6  C6  UNL     1      25.294   4.757  50.215  1.00  0.00     0.087 A 
HETATM    7  N1  UNL     1      23.907   2.833  49.654  1.00  0.00    -0.379 N 
HETATM    8  C7  UNL     1      22.680   2.427  49.139  1.00  0.00     0.454 C 
HETATM    9  N2  UNL     1      21.822   3.107  49.787  1.00  0.00    -0.335 NA
HETATM   10  N3  UNL     1      22.185   4.036  50.787  1.00  0.00    -0.324 N 
HETATM   11  C8  UNL     1      22.475   3.388  52.007  1.00  0.00     0.108 C 
HETATM   12  C9  UNL     1      23.352   2.749  52.751  1.00  0.00     0.055 C 
HETATM   13  C10 UNL     1      24.736   2.362  52.539  1.00  0.00     0.074 C 
HETATM   14  C14 UNL     1      25.505   2.582  51.458  1.00  0.00    -0.019 C 
HETATM   15  C15 UNL     1      26.892   2.043  51.571  1.00  0.00     0.049 C 
HETATM   16  H5  UNL     1      24.054   1.802  49.558  1.00  0.00     0.157 HD
HETATM   17  H7  UNL     1      22.222   5.052  50.617  1.00  0.00     0.184 HD
ENDROOT
BRANCH  13  18
HETATM   18  O1  UNL     1      25.333   1.679  53.590  1.00  0.00    -0.349 OA
BRANCH  18  19
HETATM   19  C11 UNL     1      24.977   0.354  53.845  1.00  0.00     0.201 C 
BRANCH  19  20
HETATM   20  C12 UNL     1      25.989  -0.206  54.807  1.00  0.00     0.193 C 
BRANCH  20  21
HETATM   21  O2  UNL     1      27.185  -0.523  54.213  1.00  0.00    -0.394 OA
HETATM   22  C13 UNL     1      28.214   0.164  54.825  1.00  0.00     0.201 C 
ENDBRANCH  20  21
ENDBRANCH  19  20
ENDBRANCH  18  19
ENDBRANCH  13  18
TORSDOF 4
ENDMDL
MODEL 5
REMARK VINA RESULT:      -6.4      2.285      5.644
REMARK  4 active torsions:
REMARK  status: ('A' for Active; 'I' for Inactive)
REMARK    1  A    between atoms: C10_13  and  O1_14 
REMARK    2  A    between atoms: O1_14  and  C11_15 
REMARK    3  A    between atoms: C11_15  and  C12_16 
REMARK    4  A    between atoms: C12_16  and  O2_17 
ROOT
HETATM    1  C1  UNL     1      28.638   0.234  54.916  1.00  0.00     0.017 C 
HETATM    2  C2  UNL     1      27.707   0.588  54.203  1.00  0.00    -0.082 C 
HETATM    3  C3  UNL     1      26.594   1.006  53.379  1.00  0.00    -0.004 A 
HETATM    4  C4  UNL     1      25.955   0.516  52.366  1.00  0.00     0.025 A 
HETATM    5  C5  UNL     1      25.050   1.665  52.296  1.00  0.00     0.077 A 
HETATM    6  C6  UNL     1      25.788   2.229  53.446  1.00  0.00     0.087 A 
HETATM    7  N1  UNL     1      25.118   2.441  51.113  1.00  0.00    -0.379 N 
HETATM    8  C7  UNL     1      25.203   3.234  49.972  1.00  0.00     0.454 C 
HETATM    9  N2  UNL     1      24.895   4.401  50.373  1.00  0.00    -0.335 NA
HETATM   10  N3  UNL     1      24.561   4.682  51.717  1.00  0.00    -0.324 N 
HETATM   11  C8  UNL     1      23.226   4.319  51.999  1.00  0.00     0.108 C 
HETATM   12  C9  UNL     1      22.371   3.376  52.332  1.00  0.00     0.055 C 
HETATM   13  C10 UNL     1      22.520   1.959  52.613  1.00  0.00     0.074 C 
HETATM   14  C14 UNL     1      23.646   1.222  52.602  1.00  0.00    -0.019 C 
HETATM   15  C15 UNL     1      23.441  -0.218  52.937  1.00  0.00     0.049 C 
HETATM   16  H5  UNL     1      24.692   1.813  50.393  1.00  0.00     0.157 HD
HETATM   17  H7  UNL     1      25.228   5.099  52.381  1.00  0.00     0.184 HD
ENDROOT
BRANCH  13  18
HETATM   18  O1  UNL     1      21.348   1.286  52.933  1.00  0.00    -0.349 OA
BRANCH  18  19
HETATM   19  C11 UNL     1      20.185   1.541  52.206  1.00  0.00     0.201 C 
BRANCH  19  20
HETATM   20  C12 UNL     1      20.150   0.567  51.059  1.00  0.00     0.193 C 
BRANCH  20  21
HETATM   21  O2  UNL     1      20.159   1.178  49.829  1.00  0.00    -0.394 OA
HETATM   22  C13 UNL     1      21.385   0.996  49.220  1.00  0.00     0.201 C 
ENDBRANCH  20  21
ENDBRANCH  19  20
ENDBRANCH  18  19
ENDBRANCH  13  18
TORSDOF 4
ENDMDL
MODEL 6
REMARK VINA RESULT:      -6.2      2.868      5.975
REMARK  4 active torsions:
REMARK  status: ('A' for Active; 'I' for Inactive)
REMARK    1  A    between atoms: C10_13  and  O1_14 
REMARK    2  A    between atoms: O1_14  and  C11_15 
REMARK    3  A    between atoms: C11_15  and  C12_16 
REMARK    4  A    between atoms: C12_16  and  O2_17 
ROOT
HETATM    1  C1  UNL     1      26.726   0.049  54.938  1.00  0.00     0.017 C 
HETATM    2  C2  UNL     1      25.980   0.630  54.160  1.00  0.00    -0.082 C 
HETATM    3  C3  UNL     1      25.083   1.321  53.259  1.00  0.00    -0.004 A 
HETATM    4  C4  UNL     1      24.347   0.988  52.248  1.00  0.00     0.025 A 
HETATM    5  C5  UNL     1      23.864   2.358  52.063  1.00  0.00     0.077 A 
HETATM    6  C6  UNL     1      24.716   2.739  53.211  1.00  0.00     0.087 A 
HETATM    7  N1  UNL     1      24.211   2.980  50.839  1.00  0.00    -0.379 N 
HETATM    8  C7  UNL     1      24.578   3.616  49.657  1.00  0.00     0.454 C 
HETATM    9  N2  UNL     1      24.654   4.847  49.969  1.00  0.00    -0.335 NA
HETATM   10  N3  UNL     1      24.394   5.320  51.274  1.00  0.00    -0.324 N 
HETATM   11  C8  UNL     1      23.007   5.427  51.513  1.00  0.00     0.108 C 
HETATM   12  C9  UNL     1      21.885   4.837  51.862  1.00  0.00     0.055 C 
HETATM   13  C10 UNL     1      21.559   3.472  52.238  1.00  0.00     0.074 C 
HETATM   14  C14 UNL     1      22.385   2.414  52.327  1.00  0.00    -0.019 C 
HETATM   15  C15 UNL     1      21.717   1.146  52.741  1.00  0.00     0.049 C 
HETATM   16  H5  UNL     1      23.623   2.471  50.139  1.00  0.00     0.157 HD
HETATM   17  H7  UNL     1      25.143   5.550  51.943  1.00  0.00     0.184 HD
ENDROOT
BRANCH  13  18
HETATM   18  O1  UNL     1      20.225   3.238  52.542  1.00  0.00    -0.349 OA
BRANCH  18  19
HETATM   19  C11 UNL     1      19.232   3.629  51.642  1.00  0.00     0.201 C 
BRANCH  19  20
HETATM   20  C12 UNL     1      18.316   2.452  51.446  1.00  0.00     0.193 C 
BRANCH  20  21
HETATM   21  O2  UNL     1      18.869   1.456  50.680  1.00  0.00    -0.394 OA
HETATM   22  C13 UNL     1      18.395   0.225  51.090  1.00  0.00     0.201 C 
ENDBRANCH  20  21
ENDBRANCH  19  20
ENDBRANCH  18  19
ENDBRANCH  13  18
TORSDOF 4
ENDMDL
MODEL 7
REMARK VINA RESULT:      -6.1      3.016      5.752
REMARK  4 active torsions:
REMARK  status: ('A' for Active; 'I' for Inactive)
REMARK    1  A    between atoms: C10_13  and  O1_14 
REMARK    2  A    between atoms: O1_14  and  C11_15 
REMARK    3  A    between atoms: C11_15  and  C12_16 
REMARK    4  A    between atoms: C12_16  and  O2_17 
ROOT
HETATM    1  C1  UNL     1      26.772   4.444  48.968  1.00  0.00     0.017 C 
HETATM    2  C2  UNL     1      26.644   3.699  49.931  1.00  0.00    -0.082 C 
HETATM    3  C3  UNL     1      26.476   2.806  51.058  1.00  0.00    -0.004 A 
HETATM    4  C4  UNL     1      26.078   2.925  52.284  1.00  0.00     0.025 A 
HETATM    5  C5  UNL     1      26.276   1.501  52.557  1.00  0.00     0.077 A 
HETATM    6  C6  UNL     1      26.742   1.369  51.159  1.00  0.00     0.087 A 
HETATM    7  N1  UNL     1      27.249   1.184  53.536  1.00  0.00    -0.379 N 
HETATM    8  C7  UNL     1      28.229   0.858  54.469  1.00  0.00     0.454 C 
HETATM    9  N2  UNL     1      28.671  -0.271  54.084  1.00  0.00    -0.335 NA
HETATM   10  N3  UNL     1      28.176  -0.933  52.939  1.00  0.00    -0.324 N 
HETATM   11  C8  UNL     1      26.958  -1.591  53.214  1.00  0.00     0.108 C 
HETATM   12  C9  UNL     1      25.650  -1.519  53.328  1.00  0.00     0.055 C 
HETATM   13  C10 UNL     1      24.701  -0.430  53.171  1.00  0.00     0.074 C 
HETATM   14  C14 UNL     1      24.951   0.851  52.845  1.00  0.00    -0.019 C 
HETATM   15  C15 UNL     1      23.736   1.715  52.771  1.00  0.00     0.049 C 
HETATM   16  H5  UNL     1      26.797   1.492  54.428  1.00  0.00     0.157 HD
HETATM   17  H7  UNL     1      28.665  -0.919  52.032  1.00  0.00     0.184 HD
ENDROOT
BRANCH  13  18
HETATM   18  O1  UNL     1      23.369  -0.761  53.385  1.00  0.00    -0.349 OA
BRANCH  18  19
HETATM   19  C11 UNL     1      22.938  -1.095  54.670  1.00  0.00     0.201 C 
BRANCH  19  20
HETATM   20  C12 UNL     1      21.460  -0.822  54.732  1.00  0.00     0.193 C 
BRANCH  20  21
HETATM   21  O2  UNL     1      20.852  -0.844  53.501  1.00  0.00    -0.394 OA
HETATM   22  C13 UNL     1      20.114   0.308  53.317  1.00  0.00     0.201 C 
ENDBRANCH  20  21
ENDBRANCH  19  20
ENDBRANCH  18  19
ENDBRANCH  13  18
TORSDOF 4
ENDMDL
MODEL 8
REMARK VINA RESULT:      -6.0     10.507     12.414
REMARK  4 active torsions:
REMARK  status: ('A' for Active; 'I' for Inactive)
REMARK    1  A    between atoms: C10_13  and  O1_14 
REMARK    2  A    between atoms: O1_14  and  C11_15 
REMARK    3  A    between atoms: C11_15  and  C12_16 
REMARK    4  A    between atoms: C12_16  and  O2_17 
ROOT
HETATM    1  C1  UNL     1      32.044  -0.263  47.061  1.00  0.00     0.017 C 
HETATM    2  C2  UNL     1      32.373   0.917  47.040  1.00  0.00    -0.082 C 
HETATM    3  C3  UNL     1      32.757   2.311  46.992  1.00  0.00    -0.004 A 
HETATM    4  C4  UNL     1      33.834   2.985  47.239  1.00  0.00     0.025 A 
HETATM    5  C5  UNL     1      33.198   4.257  46.896  1.00  0.00     0.077 A 
HETATM    6  C6  UNL     1      31.964   3.487  46.625  1.00  0.00     0.087 A 
HETATM    7  N1  UNL     1      33.086   5.201  47.946  1.00  0.00    -0.379 N 
HETATM    8  C7  UNL     1      32.936   6.122  48.978  1.00  0.00     0.454 C 
HETATM    9  N2  UNL     1      31.878   6.763  48.681  1.00  0.00    -0.335 NA
HETATM   10  N3  UNL     1      31.122   6.489  47.519  1.00  0.00    -0.324 N 
HETATM   11  C8  UNL     1      31.706   7.079  46.378  1.00  0.00     0.108 C 
HETATM   12  C9  UNL     1      32.596   7.004  45.413  1.00  0.00     0.055 C 
HETATM   13  C10 UNL     1      33.592   6.007  45.060  1.00  0.00     0.074 C 
HETATM   14  C14 UNL     1      33.858   4.841  45.678  1.00  0.00    -0.019 C 
HETATM   15  C15 UNL     1      34.957   4.050  45.050  1.00  0.00     0.049 C 
HETATM   16  H5  UNL     1      34.074   5.512  48.092  1.00  0.00     0.157 HD
HETATM   17  H7  UNL     1      30.259   5.927  47.536  1.00  0.00     0.184 HD
ENDROOT
BRANCH  13  18
HETATM   18  O1  UNL     1      34.364   6.301  43.944  1.00  0.00    -0.349 OA
BRANCH  18  19
HETATM   19  C11 UNL     1      33.764   6.869  42.819  1.00  0.00     0.201 C 
BRANCH  19  20
HETATM   20  C12 UNL     1      33.806   5.842  41.721  1.00  0.00     0.193 C 
BRANCH  20  21
HETATM   21  O2  UNL     1      33.014   4.748  41.970  1.00  0.00    -0.394 OA
HETATM   22  C13 UNL     1      33.216   3.787  41.000  1.00  0.00     0.201 C 
ENDBRANCH  20  21
ENDBRANCH  19  20
ENDBRANCH  18  19
ENDBRANCH  13  18
TORSDOF 4
ENDMDL
MODEL 9
REMARK VINA RESULT:      -5.9      2.130      4.552
REMARK  4 active torsions:
REMARK  status: ('A' for Active; 'I' for Inactive)
REMARK    1  A    between atoms: C10_13  and  O1_14 
REMARK    2  A    between atoms: O1_14  and  C11_15 
REMARK    3  A    between atoms: C11_15  and  C12_16 
REMARK    4  A    between atoms: C12_16  and  O2_17 
ROOT
HETATM    1  C1  UNL     1      24.897   8.496  49.906  1.00  0.00     0.017 C 
HETATM    2  C2  UNL     1      24.691   7.291  49.983  1.00  0.00    -0.082 C 
HETATM    3  C3  UNL     1      24.466   5.866  50.089  1.00  0.00    -0.004 A 
HETATM    4  C4  UNL     1      24.532   4.854  49.284  1.00  0.00     0.025 A 
HETATM    5  C5  UNL     1      24.132   3.911  50.329  1.00  0.00     0.077 A 
HETATM    6  C6  UNL     1      24.045   5.069  51.245  1.00  0.00     0.087 A 
HETATM    7  N1  UNL     1      22.907   3.231  50.120  1.00  0.00    -0.379 N 
HETATM    8  C7  UNL     1      21.687   2.586  49.944  1.00  0.00     0.454 C 
HETATM    9  N2  UNL     1      21.258   2.390  51.126  1.00  0.00    -0.335 NA
HETATM   10  N3  UNL     1      21.975   2.795  52.274  1.00  0.00    -0.324 N 
HETATM   11  C8  UNL     1      23.006   1.881  52.582  1.00  0.00     0.108 C 
HETATM   12  C9  UNL     1      24.237   1.471  52.365  1.00  0.00     0.055 C 
HETATM   13  C10 UNL     1      25.294   1.933  51.481  1.00  0.00     0.074 C 
HETATM   14  C14 UNL     1      25.264   2.963  50.615  1.00  0.00    -0.019 C 
HETATM   15  C15 UNL     1      26.531   3.162  49.853  1.00  0.00     0.049 C 
HETATM   16  H5  UNL     1      23.132   2.572  49.340  1.00  0.00     0.157 HD
HETATM   17  H7  UNL     1      21.750   3.652  52.798  1.00  0.00     0.184 HD
ENDROOT
BRANCH  13  18
HETATM   18  O1  UNL     1      26.481   1.217  51.543  1.00  0.00    -0.349 OA
BRANCH  18  19
HETATM   19  C11 UNL     1      26.544   0.047  52.302  1.00  0.00     0.201 C 
BRANCH  19  20
HETATM   20  C12 UNL     1      27.799   0.114  53.128  1.00  0.00     0.193 C 
BRANCH  20  21
HETATM   21  O2  UNL     1      27.645  -0.399  54.393  1.00  0.00    -0.394 OA
HETATM   22  C13 UNL     1      26.540   0.165  54.999  1.00  0.00     0.201 C 
ENDBRANCH  20  21
ENDBRANCH  19  20
ENDBRANCH  18  19
ENDBRANCH  13  18
TORSDOF 4
ENDMDL
