MODEL 1
REMARK VINA RESULT:      -9.3      0.000      0.000
REMARK  7 active torsions:
REMARK  status: ('A' for Active; 'I' for Inactive)
REMARK    1  A    between atoms: C7_11  and  N3_12 
REMARK    2  A    between atoms: N3_12  and  C8_13 
REMARK    3  A    between atoms: C12_17  and  C13_18 
REMARK    4  A    between atoms: N4_24  and  C18_25 
REMARK    5  A    between atoms: C18_25  and  C19_26 
REMARK    6  A    between atoms: C19_26  and  C20_27 
REMARK    7  A    between atoms: C20_27  and  N5_28 
ROOT
HETATM    1  O1  UNL     1      18.906   1.806  49.347  1.00  0.00    -0.271 OA
HETATM    2  C1  UNL     1      19.329   0.999  50.234  1.00  0.00     0.248 C 
HETATM    3  C2  UNL     1      18.350   0.114  50.932  1.00  0.00     0.279 C 
HETATM    4  O2  UNL     1      18.797  -0.089  52.275  1.00  0.00    -0.340 OA
HETATM    5  C3  UNL     1      20.142  -0.147  52.605  1.00  0.00     0.098 A 
HETATM    6  C4  UNL     1      20.526  -0.725  53.795  1.00  0.00     0.071 A 
HETATM    7  C5  UNL     1      21.864  -0.777  54.111  1.00  0.00     0.075 A 
HETATM    8  N1  UNL     1      22.220  -1.353  55.290  1.00  0.00    -0.241 NA
HETATM    9  C6  UNL     1      23.510  -1.437  55.662  1.00  0.00     0.236 A 
HETATM   10  N2  UNL     1      24.462  -0.962  54.884  1.00  0.00    -0.224 NA
HETATM   11  C7  UNL     1      24.201  -0.381  53.711  1.00  0.00     0.142 A 
HETATM   12  C15 UNL     1      22.884  -0.288  53.319  1.00  0.00     0.041 A 
HETATM   13  C16 UNL     1      22.436   0.277  52.144  1.00  0.00     0.050 A 
HETATM   14  C17 UNL     1      21.117   0.359  51.771  1.00  0.00     0.071 A 
HETATM   15  N4  UNL     1      20.724   0.956  50.541  1.00  0.00    -0.314 N 
ENDROOT
BRANCH  11  16
HETATM   16  N3  UNL     1      25.193   0.141  52.850  1.00  0.00    -0.340 N 
HETATM   17  H5  UNL     1      25.005   0.387  51.869  1.00  0.00     0.167 HD
BRANCH  16  18
HETATM   18  C8  UNL     1      26.551   0.409  53.148  1.00  0.00     0.034 A 
HETATM   19  C9  UNL     1      27.036   1.670  53.411  1.00  0.00     0.029 A 
HETATM   20  C10 UNL     1      28.352   1.967  53.694  1.00  0.00     0.003 A 
HETATM   21  C11 UNL     1      29.284   0.951  53.726  1.00  0.00     0.010 A 
HETATM   22  C12 UNL     1      28.864  -0.323  53.474  1.00  0.00    -0.028 A 
HETATM   23  C14 UNL     1      27.536  -0.546  53.199  1.00  0.00     0.039 A 
BRANCH  22  24
HETATM   24  C13 UNL     1      29.820  -1.448  53.496  1.00  0.00     0.261 C 
HETATM   25  F1  UNL     1      29.102  -2.602  53.316  1.00  0.00    -0.251 F 
ENDBRANCH  22  24
ENDBRANCH  16  18
ENDBRANCH  11  16
BRANCH  15  26
HETATM   26  C18 UNL     1      21.656   1.506  49.616  1.00  0.00     0.134 C 
BRANCH  26  27
HETATM   27  C19 UNL     1      22.179   2.870  50.015  1.00  0.00     0.050 C 
BRANCH  27  28
HETATM   28  C20 UNL     1      23.648   3.020  49.771  1.00  0.00     0.274 C 
BRANCH  28  29
HETATM   29  N5  UNL     1      24.192   4.309  50.051  1.00  0.00     0.092 N 
HETATM   30  C21 UNL     1      23.684   4.947  51.225  1.00  0.00     0.298 C 
HETATM   31  C22 UNL     1      23.979   6.433  51.198  1.00  0.00     0.198 C 
HETATM   32  O3  UNL     1      25.180   6.727  50.545  1.00  0.00    -0.388 OA
HETATM   33  C23 UNL     1      25.179   6.344  49.210  1.00  0.00     0.198 C 
HETATM   34  C24 UNL     1      24.231   5.200  48.929  1.00  0.00     0.298 C 
ENDBRANCH  28  29
ENDBRANCH  27  28
ENDBRANCH  26  27
ENDBRANCH  15  26
TORSDOF 7
ENDMDL
MODEL 2
REMARK VINA RESULT:      -9.1      3.342      6.244
REMARK  7 active torsions:
REMARK  status: ('A' for Active; 'I' for Inactive)
REMARK    1  A    between atoms: C7_11  and  N3_12 
REMARK    2  A    between atoms: N3_12  and  C8_13 
REMARK    3  A    between atoms: C12_17  and  C13_18 
REMARK    4  A    between atoms: N4_24  and  C18_25 
REMARK    5  A    between atoms: C18_25  and  C19_26 
REMARK    6  A    between atoms: C19_26  and  C20_27 
REMARK    7  A    between atoms: C20_27  and  N5_28 
ROOT
HETATM    1  O1  UNL     1      28.918   1.590  52.969  1.00  0.00    -0.271 OA
HETATM    2  C1  UNL     1      27.872   1.158  53.550  1.00  0.00     0.248 C 
HETATM    3  C2  UNL     1      28.019   0.209  54.692  1.00  0.00     0.279 C 
HETATM    4  O2  UNL     1      26.909  -0.692  54.682  1.00  0.00    -0.340 OA
HETATM    5  C3  UNL     1      25.647  -0.304  54.261  1.00  0.00     0.098 A 
HETATM    6  C4  UNL     1      24.547  -1.049  54.628  1.00  0.00     0.071 A 
HETATM    7  C5  UNL     1      23.300  -0.652  54.204  1.00  0.00     0.075 A 
HETATM    8  N1  UNL     1      22.230  -1.403  54.581  1.00  0.00    -0.241 NA
HETATM    9  C6  UNL     1      20.982  -1.073  54.202  1.00  0.00     0.236 A 
HETATM   10  N2  UNL     1      20.769  -0.008  53.455  1.00  0.00    -0.224 NA
HETATM   11  C7  UNL     1      21.762   0.783  53.042  1.00  0.00     0.142 A 
HETATM   12  C15 UNL     1      23.045   0.456  53.422  1.00  0.00     0.041 A 
HETATM   13  C16 UNL     1      24.183   1.159  53.088  1.00  0.00     0.050 A 
HETATM   14  C17 UNL     1      25.454   0.816  53.479  1.00  0.00     0.071 A 
HETATM   15  N4  UNL     1      26.587   1.588  53.098  1.00  0.00    -0.314 N 
ENDROOT
BRANCH  11  16
HETATM   16  N3  UNL     1      21.575   1.932  52.240  1.00  0.00    -0.340 N 
HETATM   17  H5  UNL     1      21.374   2.860  52.635  1.00  0.00     0.167 HD
BRANCH  16  18
HETATM   18  C8  UNL     1      21.623   2.024  50.828  1.00  0.00     0.034 A 
HETATM   19  C9  UNL     1      21.590   0.929  49.993  1.00  0.00     0.029 A 
HETATM   20  C10 UNL     1      21.647   0.983  48.617  1.00  0.00     0.003 A 
HETATM   21  C11 UNL     1      21.743   2.207  47.990  1.00  0.00     0.010 A 
HETATM   22  C12 UNL     1      21.778   3.331  48.764  1.00  0.00    -0.028 A 
HETATM   23  C14 UNL     1      21.718   3.203  50.131  1.00  0.00     0.039 A 
BRANCH  22  24
HETATM   24  C13 UNL     1      21.880   4.667  48.143  1.00  0.00     0.261 C 
HETATM   25  F1  UNL     1      23.158   4.802  47.664  1.00  0.00    -0.251 F 
ENDBRANCH  22  24
ENDBRANCH  16  18
ENDBRANCH  11  16
BRANCH  15  26
HETATM   26  C18 UNL     1      26.488   2.759  52.293  1.00  0.00     0.134 C 
BRANCH  26  27
HETATM   27  C19 UNL     1      26.471   2.477  50.806  1.00  0.00     0.050 C 
BRANCH  27  28
HETATM   28  C20 UNL     1      25.393   3.227  50.087  1.00  0.00     0.274 C 
BRANCH  28  29
HETATM   29  N5  UNL     1      25.819   4.387  49.374  1.00  0.00     0.092 N 
HETATM   30  C21 UNL     1      27.181   4.375  48.940  1.00  0.00     0.298 C 
HETATM   31  C22 UNL     1      27.646   5.776  48.596  1.00  0.00     0.198 C 
HETATM   32  O3  UNL     1      26.616   6.568  48.079  1.00  0.00    -0.388 OA
HETATM   33  C23 UNL     1      25.574   6.755  48.979  1.00  0.00     0.198 C 
HETATM   34  C24 UNL     1      25.459   5.633  49.986  1.00  0.00     0.298 C 
ENDBRANCH  28  29
ENDBRANCH  27  28
ENDBRANCH  26  27
ENDBRANCH  15  26
TORSDOF 7
ENDMDL
MODEL 3
REMARK VINA RESULT:      -9.1      3.128      7.643
REMARK  7 active torsions:
REMARK  status: ('A' for Active; 'I' for Inactive)
REMARK    1  A    between atoms: C7_11  and  N3_12 
REMARK    2  A    between atoms: N3_12  and  C8_13 
REMARK    3  A    between atoms: C12_17  and  C13_18 
REMARK    4  A    between atoms: N4_24  and  C18_25 
REMARK    5  A    between atoms: C18_25  and  C19_26 
REMARK    6  A    between atoms: C19_26  and  C20_27 
REMARK    7  A    between atoms: C20_27  and  N5_28 
ROOT
HETATM    1  O1  UNL     1      27.548   2.529  51.872  1.00  0.00    -0.271 OA
HETATM    2  C1  UNL     1      26.551   2.801  51.131  1.00  0.00     0.248 C 
HETATM    3  C2  UNL     1      26.790   3.194  49.711  1.00  0.00     0.279 C 
HETATM    4  O2  UNL     1      25.788   4.135  49.323  1.00  0.00    -0.340 OA
HETATM    5  C3  UNL     1      24.494   4.083  49.818  1.00  0.00     0.098 A 
HETATM    6  C4  UNL     1      23.481   4.730  49.146  1.00  0.00     0.071 A 
HETATM    7  C5  UNL     1      22.201   4.670  49.648  1.00  0.00     0.075 A 
HETATM    8  N1  UNL     1      21.217   5.316  48.966  1.00  0.00    -0.241 NA
HETATM    9  C6  UNL     1      19.944   5.299  49.401  1.00  0.00     0.236 A 
HETATM   10  N2  UNL     1      19.622   4.650  50.502  1.00  0.00    -0.224 NA
HETATM   11  C7  UNL     1      20.525   3.990  51.231  1.00  0.00     0.142 A 
HETATM   12  C15 UNL     1      21.833   4.000  50.798  1.00  0.00     0.041 A 
HETATM   13  C16 UNL     1      22.889   3.374  51.424  1.00  0.00     0.050 A 
HETATM   14  C17 UNL     1      24.186   3.395  50.974  1.00  0.00     0.071 A 
HETATM   15  N4  UNL     1      25.230   2.725  51.671  1.00  0.00    -0.314 N 
ENDROOT
BRANCH  11  16
HETATM   16  N3  UNL     1      20.220   3.284  52.417  1.00  0.00    -0.340 N 
HETATM   17  H5  UNL     1      20.193   3.734  53.341  1.00  0.00     0.167 HD
BRANCH  16  18
HETATM   18  C8  UNL     1      19.914   1.909  52.556  1.00  0.00     0.034 A 
HETATM   19  C9  UNL     1      18.845   1.302  51.936  1.00  0.00     0.029 A 
HETATM   20  C10 UNL     1      18.513  -0.030  52.058  1.00  0.00     0.003 A 
HETATM   21  C11 UNL     1      19.285  -0.851  52.852  1.00  0.00     0.010 A 
HETATM   22  C12 UNL     1      20.361  -0.308  53.493  1.00  0.00    -0.028 A 
HETATM   23  C14 UNL     1      20.633   1.028  53.326  1.00  0.00     0.039 A 
BRANCH  22  24
HETATM   24  C13 UNL     1      21.222  -1.142  54.356  1.00  0.00     0.261 C 
HETATM   25  F1  UNL     1      21.773  -0.321  55.305  1.00  0.00    -0.251 F 
ENDBRANCH  22  24
ENDBRANCH  16  18
ENDBRANCH  11  16
BRANCH  15  26
HETATM   26  C18 UNL     1      25.011   1.991  52.871  1.00  0.00     0.134 C 
BRANCH  26  27
HETATM   27  C19 UNL     1      24.839   0.503  52.653  1.00  0.00     0.050 C 
BRANCH  27  28
HETATM   28  C20 UNL     1      25.593  -0.319  53.651  1.00  0.00     0.274 C 
BRANCH  28  29
HETATM   29  N5  UNL     1      27.015  -0.216  53.588  1.00  0.00     0.092 N 
HETATM   30  C21 UNL     1      27.685  -1.339  53.010  1.00  0.00     0.298 C 
HETATM   31  C22 UNL     1      29.156  -1.331  53.376  1.00  0.00     0.198 C 
HETATM   32  O3  UNL     1      29.666  -0.035  53.507  1.00  0.00    -0.388 OA
HETATM   33  C23 UNL     1      29.048   0.689  54.519  1.00  0.00     0.198 C 
HETATM   34  C24 UNL     1      27.639   0.218  54.802  1.00  0.00     0.298 C 
ENDBRANCH  28  29
ENDBRANCH  27  28
ENDBRANCH  26  27
ENDBRANCH  15  26
TORSDOF 7
ENDMDL
MODEL 4
REMARK VINA RESULT:      -9.0      3.115      6.553
REMARK  7 active torsions:
REMARK  status: ('A' for Active; 'I' for Inactive)
REMARK    1  A    between atoms: C7_11  and  N3_12 
REMARK    2  A    between atoms: N3_12  and  C8_13 
REMARK    3  A    between atoms: C12_17  and  C13_18 
REMARK    4  A    between atoms: N4_24  and  C18_25 
REMARK    5  A    between atoms: C18_25  and  C19_26 
REMARK    6  A    between atoms: C19_26  and  C20_27 
REMARK    7  A    between atoms: C20_27  and  N5_28 
ROOT
HETATM    1  O1  UNL     1      22.107  -1.465  54.587  1.00  0.00    -0.271 OA
HETATM    2  C1  UNL     1      21.668  -0.627  53.736  1.00  0.00     0.248 C 
HETATM    3  C2  UNL     1      20.202  -0.575  53.463  1.00  0.00     0.279 C 
HETATM    4  O2  UNL     1      20.007  -0.228  52.090  1.00  0.00    -0.340 OA
HETATM    5  C3  UNL     1      20.869   0.621  51.413  1.00  0.00     0.098 A 
HETATM    6  C4  UNL     1      20.449   1.235  50.254  1.00  0.00     0.071 A 
HETATM    7  C5  UNL     1      21.314   2.075  49.592  1.00  0.00     0.075 A 
HETATM    8  N1  UNL     1      20.876   2.671  48.450  1.00  0.00    -0.241 NA
HETATM    9  C6  UNL     1      21.669   3.504  47.753  1.00  0.00     0.236 A 
HETATM   10  N2  UNL     1      22.895   3.763  48.165  1.00  0.00    -0.224 NA
HETATM   11  C7  UNL     1      23.403   3.222  49.274  1.00  0.00     0.142 A 
HETATM   12  C15 UNL     1      22.601   2.366  49.998  1.00  0.00     0.041 A 
HETATM   13  C16 UNL     1      22.962   1.722  51.162  1.00  0.00     0.050 A 
HETATM   14  C17 UNL     1      22.146   0.873  51.869  1.00  0.00     0.071 A 
HETATM   15  N4  UNL     1      22.584   0.241  53.066  1.00  0.00    -0.314 N 
ENDROOT
BRANCH  11  16
HETATM   16  N3  UNL     1      24.710   3.473  49.749  1.00  0.00    -0.340 N 
HETATM   17  H5  UNL     1      25.122   2.963  50.542  1.00  0.00     0.167 HD
BRANCH  16  18
HETATM   18  C8  UNL     1      25.646   4.415  49.260  1.00  0.00     0.034 A 
HETATM   19  C9  UNL     1      26.977   4.128  49.053  1.00  0.00     0.029 A 
HETATM   20  C10 UNL     1      27.916   5.023  48.590  1.00  0.00     0.003 A 
HETATM   21  C11 UNL     1      27.535   6.316  48.299  1.00  0.00     0.010 A 
HETATM   22  C12 UNL     1      26.227   6.663  48.483  1.00  0.00    -0.028 A 
HETATM   23  C14 UNL     1      25.345   5.718  48.949  1.00  0.00     0.039 A 
BRANCH  22  24
HETATM   24  C13 UNL     1      25.765   8.034  48.187  1.00  0.00     0.261 C 
HETATM   25  F1  UNL     1      26.650   8.583  47.295  1.00  0.00    -0.251 F 
ENDBRANCH  22  24
ENDBRANCH  16  18
ENDBRANCH  11  16
BRANCH  15  26
HETATM   26  C18 UNL     1      23.883   0.439  53.614  1.00  0.00     0.134 C 
BRANCH  26  27
HETATM   27  C19 UNL     1      24.904  -0.576  53.145  1.00  0.00     0.050 C 
BRANCH  27  28
HETATM   28  C20 UNL     1      26.064   0.054  52.439  1.00  0.00     0.274 C 
BRANCH  28  29
HETATM   29  N5  UNL     1      27.053   0.643  53.281  1.00  0.00     0.092 N 
HETATM   30  C21 UNL     1      27.364   2.010  52.998  1.00  0.00     0.298 C 
HETATM   31  C22 UNL     1      28.687   2.400  53.627  1.00  0.00     0.198 C 
HETATM   32  O3  UNL     1      28.925   1.725  54.828  1.00  0.00    -0.388 OA
HETATM   33  C23 UNL     1      29.005   0.348  54.668  1.00  0.00     0.198 C 
HETATM   34  C24 UNL     1      28.232  -0.150  53.467  1.00  0.00     0.298 C 
ENDBRANCH  28  29
ENDBRANCH  27  28
ENDBRANCH  26  27
ENDBRANCH  15  26
TORSDOF 7
ENDMDL
MODEL 5
REMARK VINA RESULT:      -9.0      3.361      7.033
REMARK  7 active torsions:
REMARK  status: ('A' for Active; 'I' for Inactive)
REMARK    1  A    between atoms: C7_11  and  N3_12 
REMARK    2  A    between atoms: N3_12  and  C8_13 
REMARK    3  A    between atoms: C12_17  and  C13_18 
REMARK    4  A    between atoms: N4_24  and  C18_25 
REMARK    5  A    between atoms: C18_25  and  C19_26 
REMARK    6  A    between atoms: C19_26  and  C20_27 
REMARK    7  A    between atoms: C20_27  and  N5_28 
ROOT
HETATM    1  O1  UNL     1      24.110  -0.531  54.284  1.00  0.00    -0.271 OA
HETATM    2  C1  UNL     1      23.318   0.017  53.453  1.00  0.00     0.248 C 
HETATM    3  C2  UNL     1      22.012  -0.644  53.155  1.00  0.00     0.279 C 
HETATM    4  O2  UNL     1      21.672  -0.386  51.791  1.00  0.00    -0.340 OA
HETATM    5  C3  UNL     1      22.010   0.800  51.157  1.00  0.00     0.098 A 
HETATM    6  C4  UNL     1      21.343   1.173  50.010  1.00  0.00     0.071 A 
HETATM    7  C5  UNL     1      21.687   2.352  49.391  1.00  0.00     0.075 A 
HETATM    8  N1  UNL     1      21.014   2.699  48.261  1.00  0.00    -0.241 NA
HETATM    9  C6  UNL     1      21.299   3.838  47.605  1.00  0.00     0.236 A 
HETATM   10  N2  UNL     1      22.242   4.647  48.048  1.00  0.00    -0.224 NA
HETATM   11  C7  UNL     1      22.950   4.382  49.147  1.00  0.00     0.142 A 
HETATM   12  C15 UNL     1      22.669   3.218  49.829  1.00  0.00     0.041 A 
HETATM   13  C16 UNL     1      23.298   2.790  50.978  1.00  0.00     0.050 A 
HETATM   14  C17 UNL     1      23.001   1.626  51.643  1.00  0.00     0.071 A 
HETATM   15  N4  UNL     1      23.692   1.245  52.827  1.00  0.00    -0.314 N 
ENDROOT
BRANCH  11  16
HETATM   16  N3  UNL     1      23.969   5.222  49.653  1.00  0.00    -0.340 N 
HETATM   17  H5  UNL     1      23.809   5.894  50.415  1.00  0.00     0.167 HD
BRANCH  16  18
HETATM   18  C8  UNL     1      25.319   5.300  49.235  1.00  0.00     0.034 A 
HETATM   19  C9  UNL     1      26.197   4.241  49.301  1.00  0.00     0.029 A 
HETATM   20  C10 UNL     1      27.519   4.285  48.915  1.00  0.00     0.003 A 
HETATM   21  C11 UNL     1      28.040   5.461  48.417  1.00  0.00     0.010 A 
HETATM   22  C12 UNL     1      27.219   6.547  48.325  1.00  0.00    -0.028 A 
HETATM   23  C14 UNL     1      25.911   6.431  48.730  1.00  0.00     0.039 A 
BRANCH  22  24
HETATM   24  C13 UNL     1      27.725   7.830  47.799  1.00  0.00     0.261 C 
HETATM   25  F1  UNL     1      29.095   7.788  47.859  1.00  0.00    -0.251 F 
ENDBRANCH  22  24
ENDBRANCH  16  18
ENDBRANCH  11  16
BRANCH  15  26
HETATM   26  C18 UNL     1      24.729   2.031  53.404  1.00  0.00     0.134 C 
BRANCH  26  27
HETATM   27  C19 UNL     1      26.091   1.793  52.786  1.00  0.00     0.050 C 
BRANCH  27  28
HETATM   28  C20 UNL     1      27.092   1.278  53.773  1.00  0.00     0.274 C 
BRANCH  28  29
HETATM   29  N5  UNL     1      27.470  -0.088  53.613  1.00  0.00     0.092 N 
HETATM   30  C21 UNL     1      28.848  -0.376  53.866  1.00  0.00     0.298 C 
HETATM   31  C22 UNL     1      29.235  -1.712  53.265  1.00  0.00     0.198 C 
HETATM   32  O3  UNL     1      28.179  -2.628  53.276  1.00  0.00    -0.388 OA
HETATM   33  C23 UNL     1      27.090  -2.207  52.523  1.00  0.00     0.198 C 
HETATM   34  C24 UNL     1      27.005  -0.702  52.404  1.00  0.00     0.298 C 
ENDBRANCH  28  29
ENDBRANCH  27  28
ENDBRANCH  26  27
ENDBRANCH  15  26
TORSDOF 7
ENDMDL
MODEL 6
REMARK VINA RESULT:      -9.0      3.427      6.898
REMARK  7 active torsions:
REMARK  status: ('A' for Active; 'I' for Inactive)
REMARK    1  A    between atoms: C7_11  and  N3_12 
REMARK    2  A    between atoms: N3_12  and  C8_13 
REMARK    3  A    between atoms: C12_17  and  C13_18 
REMARK    4  A    between atoms: N4_24  and  C18_25 
REMARK    5  A    between atoms: C18_25  and  C19_26 
REMARK    6  A    between atoms: C19_26  and  C20_27 
REMARK    7  A    between atoms: C20_27  and  N5_28 
ROOT
HETATM    1  O1  UNL     1      22.582  -0.218  53.289  1.00  0.00    -0.271 OA
HETATM    2  C1  UNL     1      22.076   0.928  53.069  1.00  0.00     0.248 C 
HETATM    3  C2  UNL     1      20.599   1.101  53.188  1.00  0.00     0.279 C 
HETATM    4  O2  UNL     1      20.176   2.079  52.235  1.00  0.00    -0.340 OA
HETATM    5  C3  UNL     1      20.974   3.156  51.879  1.00  0.00     0.098 A 
HETATM    6  C4  UNL     1      20.402   4.260  51.286  1.00  0.00     0.071 A 
HETATM    7  C5  UNL     1      21.205   5.322  50.937  1.00  0.00     0.075 A 
HETATM    8  N1  UNL     1      20.617   6.401  50.354  1.00  0.00    -0.241 NA
HETATM    9  C6  UNL     1      21.342   7.473  49.988  1.00  0.00     0.236 A 
HETATM   10  N2  UNL     1      22.645   7.501  50.191  1.00  0.00    -0.224 NA
HETATM   11  C7  UNL     1      23.300   6.486  50.756  1.00  0.00     0.142 A 
HETATM   12  C15 UNL     1      22.570   5.381  51.135  1.00  0.00     0.041 A 
HETATM   13  C16 UNL     1      23.081   4.248  51.732  1.00  0.00     0.050 A 
HETATM   14  C17 UNL     1      22.335   3.157  52.103  1.00  0.00     0.071 A 
HETATM   15  N4  UNL     1      22.929   2.019  52.716  1.00  0.00    -0.314 N 
ENDROOT
BRANCH  11  16
HETATM   16  N3  UNL     1      24.694   6.476  50.989  1.00  0.00    -0.340 N 
HETATM   17  H5  UNL     1      25.109   6.735  51.894  1.00  0.00     0.167 HD
BRANCH  16  18
HETATM   18  C8  UNL     1      25.725   6.135  50.081  1.00  0.00     0.034 A 
HETATM   19  C9  UNL     1      26.087   4.838  49.796  1.00  0.00     0.029 A 
HETATM   20  C10 UNL     1      27.093   4.471  48.927  1.00  0.00     0.003 A 
HETATM   21  C11 UNL     1      27.813   5.448  48.273  1.00  0.00     0.010 A 
HETATM   22  C12 UNL     1      27.500   6.755  48.513  1.00  0.00    -0.028 A 
HETATM   23  C14 UNL     1      26.486   7.047  49.393  1.00  0.00     0.039 A 
BRANCH  22  24
HETATM   24  C13 UNL     1      28.240   7.841  47.839  1.00  0.00     0.261 C 
HETATM   25  F1  UNL     1      28.338   7.510  46.512  1.00  0.00    -0.251 F 
ENDBRANCH  22  24
ENDBRANCH  16  18
ENDBRANCH  11  16
BRANCH  15  26
HETATM   26  C18 UNL     1      24.324   1.927  52.987  1.00  0.00     0.134 C 
BRANCH  26  27
HETATM   27  C19 UNL     1      25.131   1.348  51.844  1.00  0.00     0.050 C 
BRANCH  27  28
HETATM   28  C20 UNL     1      26.555   1.807  51.850  1.00  0.00     0.274 C 
BRANCH  28  29
HETATM   29  N5  UNL     1      27.295   1.510  53.033  1.00  0.00     0.092 N 
HETATM   30  C21 UNL     1      28.363   2.413  53.331  1.00  0.00     0.298 C 
HETATM   31  C22 UNL     1      29.330   1.792  54.319  1.00  0.00     0.198 C 
HETATM   32  O3  UNL     1      28.694   0.931  55.218  1.00  0.00    -0.388 OA
HETATM   33  C23 UNL     1      28.086  -0.151  54.594  1.00  0.00     0.198 C 
HETATM   34  C24 UNL     1      27.696   0.141  53.162  1.00  0.00     0.298 C 
ENDBRANCH  28  29
ENDBRANCH  27  28
ENDBRANCH  26  27
ENDBRANCH  15  26
TORSDOF 7
ENDMDL
MODEL 7
REMARK VINA RESULT:      -9.0      3.203      6.102
REMARK  7 active torsions:
REMARK  status: ('A' for Active; 'I' for Inactive)
REMARK    1  A    between atoms: C7_11  and  N3_12 
REMARK    2  A    between atoms: N3_12  and  C8_13 
REMARK    3  A    between atoms: C12_17  and  C13_18 
REMARK    4  A    between atoms: N4_24  and  C18_25 
REMARK    5  A    between atoms: C18_25  and  C19_26 
REMARK    6  A    between atoms: C19_26  and  C20_27 
REMARK    7  A    between atoms: C20_27  and  N5_28 
ROOT
HETATM    1  O1  UNL     1      29.032   0.920  52.782  1.00  0.00    -0.271 OA
HETATM    2  C1  UNL     1      27.963   0.712  53.438  1.00  0.00     0.248 C 
HETATM    3  C2  UNL     1      28.058   0.379  54.890  1.00  0.00     0.279 C 
HETATM    4  O2  UNL     1      26.992  -0.513  55.224  1.00  0.00    -0.340 OA
HETATM    5  C3  UNL     1      25.752  -0.446  54.608  1.00  0.00     0.098 A 
HETATM    6  C4  UNL     1      24.660  -1.031  55.211  1.00  0.00     0.071 A 
HETATM    7  C5  UNL     1      23.435  -0.957  54.589  1.00  0.00     0.075 A 
HETATM    8  N1  UNL     1      22.372  -1.541  55.204  1.00  0.00    -0.241 NA
HETATM    9  C6  UNL     1      21.145  -1.506  54.652  1.00  0.00     0.236 A 
HETATM   10  N2  UNL     1      20.947  -0.900  53.499  1.00  0.00    -0.224 NA
HETATM   11  C7  UNL     1      21.935  -0.302  52.829  1.00  0.00     0.142 A 
HETATM   12  C15 UNL     1      23.196  -0.330  53.382  1.00  0.00     0.041 A 
HETATM   13  C16 UNL     1      24.326   0.235  52.831  1.00  0.00     0.050 A 
HETATM   14  C17 UNL     1      25.576   0.196  53.400  1.00  0.00     0.071 A 
HETATM   15  N4  UNL     1      26.701   0.802  52.775  1.00  0.00    -0.314 N 
ENDROOT
BRANCH  11  16
HETATM   16  N3  UNL     1      21.764   0.357  51.590  1.00  0.00    -0.340 N 
HETATM   17  H5  UNL     1      21.952  -0.098  50.687  1.00  0.00     0.167 HD
BRANCH  16  18
HETATM   18  C8  UNL     1      21.332   1.686  51.365  1.00  0.00     0.034 A 
HETATM   19  C9  UNL     1      20.145   2.005  50.745  1.00  0.00     0.029 A 
HETATM   20  C10 UNL     1      19.700   3.286  50.500  1.00  0.00     0.003 A 
HETATM   21  C11 UNL     1      20.473   4.358  50.891  1.00  0.00     0.010 A 
HETATM   22  C12 UNL     1      21.663   4.108  51.513  1.00  0.00    -0.028 A 
HETATM   23  C14 UNL     1      22.044   2.805  51.724  1.00  0.00     0.039 A 
BRANCH  22  24
HETATM   24  C13 UNL     1      22.530   5.219  51.952  1.00  0.00     0.261 C 
HETATM   25  F1  UNL     1      23.340   4.740  52.949  1.00  0.00    -0.251 F 
ENDBRANCH  22  24
ENDBRANCH  16  18
ENDBRANCH  11  16
BRANCH  15  26
HETATM   26  C18 UNL     1      26.617   1.485  51.529  1.00  0.00     0.134 C 
BRANCH  26  27
HETATM   27  C19 UNL     1      26.320   2.964  51.662  1.00  0.00     0.050 C 
BRANCH  27  28
HETATM   28  C20 UNL     1      25.586   3.516  50.481  1.00  0.00     0.274 C 
BRANCH  28  29
HETATM   29  N5  UNL     1      26.179   4.657  49.863  1.00  0.00     0.092 N 
HETATM   30  C21 UNL     1      25.265   5.677  49.454  1.00  0.00     0.298 C 
HETATM   31  C22 UNL     1      25.915   6.609  48.451  1.00  0.00     0.198 C 
HETATM   32  O3  UNL     1      27.286   6.764  48.678  1.00  0.00    -0.388 OA
HETATM   33  C23 UNL     1      27.992   5.573  48.561  1.00  0.00     0.198 C 
HETATM   34  C24 UNL     1      27.141   4.356  48.844  1.00  0.00     0.298 C 
ENDBRANCH  28  29
ENDBRANCH  27  28
ENDBRANCH  26  27
ENDBRANCH  15  26
TORSDOF 7
ENDMDL
MODEL 8
REMARK VINA RESULT:      -8.8      5.548      9.167
REMARK  7 active torsions:
REMARK  status: ('A' for Active; 'I' for Inactive)
REMARK    1  A    between atoms: C7_11  and  N3_12 
REMARK    2  A    between atoms: N3_12  and  C8_13 
REMARK    3  A    between atoms: C12_17  and  C13_18 
REMARK    4  A    between atoms: N4_24  and  C18_25 
REMARK    5  A    between atoms: C18_25  and  C19_26 
REMARK    6  A    between atoms: C19_26  and  C20_27 
REMARK    7  A    between atoms: C20_27  and  N5_28 
ROOT
HETATM    1  O1  UNL     1      23.820   3.519  49.983  1.00  0.00    -0.271 OA
HETATM    2  C1  UNL     1      24.607   4.503  49.810  1.00  0.00     0.248 C 
HETATM    3  C2  UNL     1      24.080   5.889  49.982  1.00  0.00     0.279 C 
HETATM    4  O2  UNL     1      24.760   6.752  49.069  1.00  0.00    -0.340 OA
HETATM    5  C3  UNL     1      26.086   6.554  48.714  1.00  0.00     0.098 A 
HETATM    6  C4  UNL     1      26.807   7.593  48.168  1.00  0.00     0.071 A 
HETATM    7  C5  UNL     1      28.122   7.383  47.820  1.00  0.00     0.075 A 
HETATM    8  N1  UNL     1      28.813   8.425  47.284  1.00  0.00    -0.241 NA
HETATM    9  C6  UNL     1      30.102   8.289  46.922  1.00  0.00     0.236 A 
HETATM   10  N2  UNL     1      30.724   7.138  47.081  1.00  0.00    -0.224 NA
HETATM   11  C7  UNL     1      30.120   6.067  47.599  1.00  0.00     0.142 A 
HETATM   12  C15 UNL     1      28.800   6.191  47.974  1.00  0.00     0.041 A 
HETATM   13  C16 UNL     1      28.026   5.192  48.524  1.00  0.00     0.050 A 
HETATM   14  C17 UNL     1      26.711   5.338  48.892  1.00  0.00     0.071 A 
HETATM   15  N4  UNL     1      25.970   4.262  49.456  1.00  0.00    -0.314 N 
ENDROOT
BRANCH  11  16
HETATM   16  N3  UNL     1      30.752   4.816  47.785  1.00  0.00    -0.340 N 
HETATM   17  H5  UNL     1      30.228   3.948  47.955  1.00  0.00     0.167 HD
BRANCH  16  18
HETATM   18  C8  UNL     1      32.139   4.532  47.776  1.00  0.00     0.034 A 
HETATM   19  C9  UNL     1      32.673   3.366  47.276  1.00  0.00     0.029 A 
HETATM   20  C10 UNL     1      34.015   3.053  47.263  1.00  0.00     0.003 A 
HETATM   21  C11 UNL     1      34.925   3.952  47.778  1.00  0.00     0.010 A 
HETATM   22  C12 UNL     1      34.458   5.129  48.288  1.00  0.00    -0.028 A 
HETATM   23  C14 UNL     1      33.105   5.374  48.269  1.00  0.00     0.039 A 
BRANCH  22  24
HETATM   24  C13 UNL     1      35.389   6.126  48.852  1.00  0.00     0.261 C 
HETATM   25  F1  UNL     1      34.726   7.326  48.901  1.00  0.00    -0.251 F 
ENDBRANCH  22  24
ENDBRANCH  16  18
ENDBRANCH  11  16
BRANCH  15  26
HETATM   26  C18 UNL     1      26.528   2.971  49.678  1.00  0.00     0.134 C 
BRANCH  26  27
HETATM   27  C19 UNL     1      26.794   2.665  51.137  1.00  0.00     0.050 C 
BRANCH  27  28
HETATM   28  C20 UNL     1      26.297   1.313  51.544  1.00  0.00     0.274 C 
BRANCH  28  29
HETATM   29  N5  UNL     1      26.872   0.776  52.734  1.00  0.00     0.092 N 
HETATM   30  C21 UNL     1      25.937   0.317  53.713  1.00  0.00     0.298 C 
HETATM   31  C22 UNL     1      26.604   0.180  55.068  1.00  0.00     0.198 C 
HETATM   32  O3  UNL     1      27.949  -0.189  54.965  1.00  0.00    -0.388 OA
HETATM   33  C23 UNL     1      28.718   0.749  54.288  1.00  0.00     0.198 C 
HETATM   34  C24 UNL     1      27.910   1.576  53.313  1.00  0.00     0.298 C 
ENDBRANCH  28  29
ENDBRANCH  27  28
ENDBRANCH  26  27
ENDBRANCH  15  26
TORSDOF 7
ENDMDL
MODEL 9
REMARK VINA RESULT:      -8.7      3.053      5.427
REMARK  7 active torsions:
REMARK  status: ('A' for Active; 'I' for Inactive)
REMARK    1  A    between atoms: C7_11  and  N3_12 
REMARK    2  A    between atoms: N3_12  and  C8_13 
REMARK    3  A    between atoms: C12_17  and  C13_18 
REMARK    4  A    between atoms: N4_24  and  C18_25 
REMARK    5  A    between atoms: C18_25  and  C19_26 
REMARK    6  A    between atoms: C19_26  and  C20_27 
REMARK    7  A    between atoms: C20_27  and  N5_28 
ROOT
HETATM    1  O1  UNL     1      20.216  -1.179  53.858  1.00  0.00    -0.271 OA
HETATM    2  C1  UNL     1      21.487  -1.138  53.834  1.00  0.00     0.248 C 
HETATM    3  C2  UNL     1      22.257  -2.045  54.735  1.00  0.00     0.279 C 
HETATM    4  O2  UNL     1      23.458  -1.380  55.133  1.00  0.00    -0.340 OA
HETATM    5  C3  UNL     1      24.129  -0.504  54.294  1.00  0.00     0.098 A 
HETATM    6  C4  UNL     1      25.450  -0.200  54.542  1.00  0.00     0.071 A 
HETATM    7  C5  UNL     1      26.104   0.671  53.703  1.00  0.00     0.075 A 
HETATM    8  N1  UNL     1      27.408   0.954  53.967  1.00  0.00    -0.241 NA
HETATM    9  C6  UNL     1      28.108   1.797  53.187  1.00  0.00     0.236 A 
HETATM   10  N2  UNL     1      27.542   2.369  52.143  1.00  0.00    -0.224 NA
HETATM   11  C7  UNL     1      26.268   2.147  51.812  1.00  0.00     0.142 A 
HETATM   12  C15 UNL     1      25.539   1.285  52.603  1.00  0.00     0.041 A 
HETATM   13  C16 UNL     1      24.218   0.942  52.408  1.00  0.00     0.050 A 
HETATM   14  C17 UNL     1      23.510   0.080  53.208  1.00  0.00     0.071 A 
HETATM   15  N4  UNL     1      22.146  -0.231  52.948  1.00  0.00    -0.314 N 
ENDROOT
BRANCH  11  16
HETATM   16  N3  UNL     1      25.625   2.740  50.702  1.00  0.00    -0.340 N 
HETATM   17  H5  UNL     1      24.774   2.348  50.277  1.00  0.00     0.167 HD
BRANCH  16  18
HETATM   18  C8  UNL     1      26.002   3.911  50.002  1.00  0.00     0.034 A 
HETATM   19  C9  UNL     1      27.125   3.995  49.211  1.00  0.00     0.029 A 
HETATM   20  C10 UNL     1      27.528   5.121  48.526  1.00  0.00     0.003 A 
HETATM   21  C11 UNL     1      26.774   6.272  48.613  1.00  0.00     0.010 A 
HETATM   22  C12 UNL     1      25.646   6.253  49.382  1.00  0.00    -0.028 A 
HETATM   23  C14 UNL     1      25.306   5.094  50.038  1.00  0.00     0.039 A 
BRANCH  22  24
HETATM   24  C13 UNL     1      24.802   7.458  49.509  1.00  0.00     0.261 C 
HETATM   25  F1  UNL     1      25.608   8.480  49.942  1.00  0.00    -0.251 F 
ENDBRANCH  22  24
ENDBRANCH  16  18
ENDBRANCH  11  16
BRANCH  15  26
HETATM   26  C18 UNL     1      21.423   0.321  51.853  1.00  0.00     0.134 C 
BRANCH  26  27
HETATM   27  C19 UNL     1      20.691   1.603  52.190  1.00  0.00     0.050 C 
BRANCH  27  28
HETATM   28  C20 UNL     1      20.413   2.445  50.984  1.00  0.00     0.274 C 
BRANCH  28  29
HETATM   29  N5  UNL     1      20.789   3.817  51.088  1.00  0.00     0.092 N 
HETATM   30  C21 UNL     1      20.391   4.646  49.994  1.00  0.00     0.298 C 
HETATM   31  C22 UNL     1      21.185   5.937  49.983  1.00  0.00     0.198 C 
HETATM   32  O3  UNL     1      21.525   6.365  51.270  1.00  0.00    -0.388 OA
HETATM   33  C23 UNL     1      22.333   5.460  51.946  1.00  0.00     0.198 C 
HETATM   34  C24 UNL     1      22.154   4.038  51.463  1.00  0.00     0.298 C 
ENDBRANCH  28  29
ENDBRANCH  27  28
ENDBRANCH  26  27
ENDBRANCH  15  26
TORSDOF 7
ENDMDL
