MODEL 1
REMARK VINA RESULT:      -7.3      0.000      0.000
REMARK  8 active torsions:
REMARK  status: ('A' for Active; 'I' for Inactive)
REMARK    1  A    between atoms: C2_2  and  C3_3 
REMARK    2  A    between atoms: C6_6  and  S1_7 
REMARK    3  A    between atoms: S1_7  and  C8_9 
REMARK    4  A    between atoms: S1_7  and  O2_14 
REMARK    5  A    between atoms: C8_9  and  C9_10 
REMARK    6  A    between atoms: C10_11  and  C11_12 
REMARK    7  A    between atoms: C11_12  and  O1_13 
REMARK    8  A    between atoms: C16_21  and  O3_22 
ROOT
HETATM    1  C3  UNL     1      21.619   0.284  52.407  1.00  0.00    -0.024 A 
HETATM    2  C4  UNL     1      22.935   0.400  52.796  1.00  0.00     0.026 A 
HETATM    3  C5  UNL     1      23.530  -0.218  53.877  1.00  0.00     0.029 A 
HETATM    4  C6  UNL     1      24.865   0.053  54.097  1.00  0.00     0.112 A 
HETATM    5  N1  UNL     1      25.310  -0.599  55.216  1.00  0.00    -0.234 NA
HETATM    6  C13 UNL     1      24.527  -1.387  55.966  1.00  0.00     0.234 A 
HETATM    7  N2  UNL     1      23.209  -1.619  55.695  1.00  0.00    -0.241 NA
HETATM    8  C14 UNL     1      22.676  -1.017  54.609  1.00  0.00     0.074 A 
HETATM    9  C15 UNL     1      21.355  -1.181  54.285  1.00  0.00     0.069 A 
HETATM   10  C16 UNL     1      20.804  -0.542  53.189  1.00  0.00     0.074 A 
ENDROOT
BRANCH   4  11
HETATM   11  S1  UNL     1      25.940   0.961  53.163  1.00  0.00    -0.099 SA
HETATM   12  C7  UNL     1      25.379   2.372  52.552  1.00  0.00     0.104 C 
BRANCH  11  13
HETATM   13  C8  UNL     1      26.776   0.041  51.968  1.00  0.00     0.113 C 
BRANCH  13  14
HETATM   14  C9  UNL     1      26.412  -1.409  52.243  1.00  0.00    -0.018 C 
HETATM   15  C10 UNL     1      27.210  -2.350  52.658  1.00  0.00    -0.004 C 
BRANCH  15  16
HETATM   16  C11 UNL     1      28.653  -2.329  52.984  1.00  0.00     0.191 C 
BRANCH  16  17
HETATM   17  O1  UNL     1      28.996  -3.590  53.510  1.00  0.00    -0.397 OA
HETATM   18  H16 UNL     1      28.324  -3.853  54.174  1.00  0.00     0.209 HD
ENDBRANCH  16  17
ENDBRANCH  15  16
ENDBRANCH  13  14
ENDBRANCH  11  13
BRANCH  11  19
HETATM   19  O2  UNL     1      27.214   1.290  54.250  1.00  0.00    -0.341 OA
HETATM   20  C12 UNL     1      28.401   1.472  53.568  1.00  0.00     0.218 C 
ENDBRANCH  11  19
ENDBRANCH   4  11
BRANCH   1  21
HETATM   21  C2  UNL     1      21.070   0.992  51.220  1.00  0.00     0.037 C 
HETATM   22  C1  UNL     1      22.207   1.422  50.288  1.00  0.00     0.010 C 
ENDBRANCH   1  21
BRANCH  10  23
HETATM   23  O3  UNL     1      19.470  -0.692  52.837  1.00  0.00    -0.360 OA
HETATM   24  H22 UNL     1      19.189  -1.300  52.079  1.00  0.00     0.217 HD
ENDBRANCH  10  23
TORSDOF 8
ENDMDL
MODEL 2
REMARK VINA RESULT:      -7.1      1.710      3.289
REMARK  8 active torsions:
REMARK  status: ('A' for Active; 'I' for Inactive)
REMARK    1  A    between atoms: C2_2  and  C3_3 
REMARK    2  A    between atoms: C6_6  and  S1_7 
REMARK    3  A    between atoms: S1_7  and  C8_9 
REMARK    4  A    between atoms: S1_7  and  O2_14 
REMARK    5  A    between atoms: C8_9  and  C9_10 
REMARK    6  A    between atoms: C10_11  and  C11_12 
REMARK    7  A    between atoms: C11_12  and  O1_13 
REMARK    8  A    between atoms: C16_21  and  O3_22 
ROOT
HETATM    1  C3  UNL     1      22.349   0.619  51.964  1.00  0.00    -0.024 A 
HETATM    2  C4  UNL     1      23.553   0.460  52.614  1.00  0.00     0.026 A 
HETATM    3  C5  UNL     1      23.773  -0.258  53.771  1.00  0.00     0.029 A 
HETATM    4  C6  UNL     1      25.061  -0.271  54.265  1.00  0.00     0.112 A 
HETATM    5  N1  UNL     1      25.123  -0.992  55.428  1.00  0.00    -0.234 NA
HETATM    6  C13 UNL     1      24.057  -1.592  55.977  1.00  0.00     0.234 A 
HETATM    7  N2  UNL     1      22.804  -1.545  55.438  1.00  0.00    -0.241 NA
HETATM    8  C14 UNL     1      22.641  -0.854  54.288  1.00  0.00     0.074 A 
HETATM    9  C15 UNL     1      21.410  -0.741  53.698  1.00  0.00     0.069 A 
HETATM   10  C16 UNL     1      21.239  -0.010  52.536  1.00  0.00     0.074 A 
ENDROOT
BRANCH   4  11
HETATM   11  S1  UNL     1      26.469   0.383  53.600  1.00  0.00    -0.099 SA
HETATM   12  C7  UNL     1      27.831   0.274  54.501  1.00  0.00     0.104 C 
BRANCH  11  13
HETATM   13  C8  UNL     1      26.264   1.967  52.952  1.00  0.00     0.113 C 
BRANCH  13  14
HETATM   14  C9  UNL     1      26.782   1.893  51.524  1.00  0.00    -0.018 C 
HETATM   15  C10 UNL     1      26.389   2.610  50.512  1.00  0.00    -0.004 C 
BRANCH  15  16
HETATM   16  C11 UNL     1      25.366   3.674  50.412  1.00  0.00     0.191 C 
BRANCH  16  17
HETATM   17  O1  UNL     1      26.025   4.917  50.478  1.00  0.00    -0.397 OA
HETATM   18  H16 UNL     1      25.365   5.635  50.374  1.00  0.00     0.209 HD
ENDBRANCH  16  17
ENDBRANCH  15  16
ENDBRANCH  13  14
ENDBRANCH  11  13
BRANCH  11  19
HETATM   19  O2  UNL     1      26.673  -0.517  52.165  1.00  0.00    -0.341 OA
HETATM   20  C12 UNL     1      26.861  -1.855  52.452  1.00  0.00     0.218 C 
ENDBRANCH  11  19
ENDBRANCH   4  11
BRANCH   1  21
HETATM   21  C2  UNL     1      22.213   1.416  50.715  1.00  0.00     0.037 C 
HETATM   22  C1  UNL     1      21.885   2.874  51.051  1.00  0.00     0.010 C 
ENDBRANCH   1  21
BRANCH  10  23
HETATM   23  O3  UNL     1      20.003   0.119  51.917  1.00  0.00    -0.360 OA
HETATM   24  H22 UNL     1      19.248   0.634  52.350  1.00  0.00     0.217 HD
ENDBRANCH  10  23
TORSDOF 8
ENDMDL
MODEL 3
REMARK VINA RESULT:      -7.1      2.907      5.066
REMARK  8 active torsions:
REMARK  status: ('A' for Active; 'I' for Inactive)
REMARK    1  A    between atoms: C2_2  and  C3_3 
REMARK    2  A    between atoms: C6_6  and  S1_7 
REMARK    3  A    between atoms: S1_7  and  C8_9 
REMARK    4  A    between atoms: S1_7  and  O2_14 
REMARK    5  A    between atoms: C8_9  and  C9_10 
REMARK    6  A    between atoms: C10_11  and  C11_12 
REMARK    7  A    between atoms: C11_12  and  O1_13 
REMARK    8  A    between atoms: C16_21  and  O3_22 
ROOT
HETATM    1  C3  UNL     1      22.530  -0.469  54.188  1.00  0.00    -0.024 A 
HETATM    2  C4  UNL     1      22.914   0.350  53.149  1.00  0.00     0.026 A 
HETATM    3  C5  UNL     1      24.208   0.629  52.758  1.00  0.00     0.029 A 
HETATM    4  C6  UNL     1      24.368   1.496  51.697  1.00  0.00     0.112 A 
HETATM    5  N1  UNL     1      25.698   1.704  51.443  1.00  0.00    -0.234 NA
HETATM    6  C13 UNL     1      26.679   1.123  52.147  1.00  0.00     0.234 A 
HETATM    7  N2  UNL     1      26.457   0.269  53.188  1.00  0.00    -0.241 NA
HETATM    8  C14 UNL     1      25.173   0.001  53.518  1.00  0.00     0.074 A 
HETATM    9  C15 UNL     1      24.869  -0.827  54.565  1.00  0.00     0.069 A 
HETATM   10  C16 UNL     1      23.555  -1.078  54.919  1.00  0.00     0.074 A 
ENDROOT
BRANCH   4  11
HETATM   11  S1  UNL     1      23.197   2.205  50.708  1.00  0.00    -0.099 SA
HETATM   12  C7  UNL     1      21.913   1.276  50.302  1.00  0.00     0.104 C 
BRANCH  11  13
HETATM   13  C8  UNL     1      23.846   3.024  49.336  1.00  0.00     0.113 C 
BRANCH  13  14
HETATM   14  C9  UNL     1      24.135   4.441  49.806  1.00  0.00    -0.018 C 
HETATM   15  C10 UNL     1      25.277   5.062  49.758  1.00  0.00    -0.004 C 
BRANCH  15  16
HETATM   16  C11 UNL     1      26.601   4.628  49.261  1.00  0.00     0.191 C 
BRANCH  16  17
HETATM   17  O1  UNL     1      27.264   3.966  50.314  1.00  0.00    -0.397 OA
HETATM   18  H16 UNL     1      26.826   4.195  51.161  1.00  0.00     0.209 HD
ENDBRANCH  16  17
ENDBRANCH  15  16
ENDBRANCH  13  14
ENDBRANCH  11  13
BRANCH  11  19
HETATM   19  O2  UNL     1      22.658   3.532  51.636  1.00  0.00    -0.341 OA
HETATM   20  C12 UNL     1      21.311   3.412  51.917  1.00  0.00     0.218 C 
ENDBRANCH  11  19
ENDBRANCH   4  11
BRANCH   1  21
HETATM   21  C2  UNL     1      21.103  -0.709  54.532  1.00  0.00     0.037 C 
HETATM   22  C1  UNL     1      20.196  -0.216  53.400  1.00  0.00     0.010 C 
ENDBRANCH   1  21
BRANCH  10  23
HETATM   23  O3  UNL     1      23.219  -1.914  55.975  1.00  0.00    -0.360 OA
HETATM   24  H22 UNL     1      23.850  -2.635  56.298  1.00  0.00     0.217 HD
ENDBRANCH  10  23
TORSDOF 8
ENDMDL
MODEL 4
REMARK VINA RESULT:      -6.9      2.709      5.938
REMARK  8 active torsions:
REMARK  status: ('A' for Active; 'I' for Inactive)
REMARK    1  A    between atoms: C2_2  and  C3_3 
REMARK    2  A    between atoms: C6_6  and  S1_7 
REMARK    3  A    between atoms: S1_7  and  C8_9 
REMARK    4  A    between atoms: S1_7  and  O2_14 
REMARK    5  A    between atoms: C8_9  and  C9_10 
REMARK    6  A    between atoms: C10_11  and  C11_12 
REMARK    7  A    between atoms: C11_12  and  O1_13 
REMARK    8  A    between atoms: C16_21  and  O3_22 
ROOT
HETATM    1  C3  UNL     1      25.750   0.353  52.736  1.00  0.00    -0.024 A 
HETATM    2  C4  UNL     1      24.451   0.750  52.508  1.00  0.00     0.026 A 
HETATM    3  C5  UNL     1      23.335   0.357  53.219  1.00  0.00     0.029 A 
HETATM    4  C6  UNL     1      22.120   0.863  52.806  1.00  0.00     0.112 A 
HETATM    5  N1  UNL     1      21.104   0.366  53.579  1.00  0.00    -0.234 NA
HETATM    6  C13 UNL     1      21.305  -0.490  54.592  1.00  0.00     0.234 A 
HETATM    7  N2  UNL     1      22.536  -0.953  54.955  1.00  0.00    -0.241 NA
HETATM    8  C14 UNL     1      23.604  -0.520  54.249  1.00  0.00     0.074 A 
HETATM    9  C15 UNL     1      24.869  -0.958  54.537  1.00  0.00     0.069 A 
HETATM   10  C16 UNL     1      25.958  -0.536  53.796  1.00  0.00     0.074 A 
ENDROOT
BRANCH   4  11
HETATM   11  S1  UNL     1      21.786   2.000  51.602  1.00  0.00    -0.099 SA
HETATM   12  C7  UNL     1      22.152   1.576  50.064  1.00  0.00     0.104 C 
BRANCH  11  13
HETATM   13  C8  UNL     1      22.344   3.590  51.970  1.00  0.00     0.113 C 
BRANCH  13  14
HETATM   14  C9  UNL     1      23.451   3.876  50.968  1.00  0.00    -0.018 C 
HETATM   15  C10 UNL     1      23.944   5.039  50.659  1.00  0.00    -0.004 C 
BRANCH  15  16
HETATM   16  C11 UNL     1      23.615   6.396  51.147  1.00  0.00     0.191 C 
BRANCH  16  17
HETATM   17  O1  UNL     1      24.404   6.650  52.287  1.00  0.00    -0.397 OA
HETATM   18  H16 UNL     1      24.750   7.567  52.239  1.00  0.00     0.209 HD
ENDBRANCH  16  17
ENDBRANCH  15  16
ENDBRANCH  13  14
ENDBRANCH  11  13
BRANCH  11  19
HETATM   19  O2  UNL     1      20.100   2.223  51.736  1.00  0.00    -0.341 OA
HETATM   20  C12 UNL     1      19.790   3.568  51.783  1.00  0.00     0.218 C 
ENDBRANCH  11  19
ENDBRANCH   4  11
BRANCH   1  21
HETATM   21  C2  UNL     1      26.890   0.835  51.911  1.00  0.00     0.037 C 
HETATM   22  C1  UNL     1      26.705   2.316  51.565  1.00  0.00     0.010 C 
ENDBRANCH   1  21
BRANCH  10  23
HETATM   23  O3  UNL     1      27.250  -0.964  54.067  1.00  0.00    -0.360 OA
HETATM   24  H22 UNL     1      28.050  -0.545  53.613  1.00  0.00     0.217 HD
ENDBRANCH  10  23
TORSDOF 8
ENDMDL
MODEL 5
REMARK VINA RESULT:      -6.7      2.947      5.871
REMARK  8 active torsions:
REMARK  status: ('A' for Active; 'I' for Inactive)
REMARK    1  A    between atoms: C2_2  and  C3_3 
REMARK    2  A    between atoms: C6_6  and  S1_7 
REMARK    3  A    between atoms: S1_7  and  C8_9 
REMARK    4  A    between atoms: S1_7  and  O2_14 
REMARK    5  A    between atoms: C8_9  and  C9_10 
REMARK    6  A    between atoms: C10_11  and  C11_12 
REMARK    7  A    between atoms: C11_12  and  O1_13 
REMARK    8  A    between atoms: C16_21  and  O3_22 
ROOT
HETATM    1  C3  UNL     1      23.536  -0.489  54.194  1.00  0.00    -0.024 A 
HETATM    2  C4  UNL     1      23.559   0.386  53.130  1.00  0.00     0.026 A 
HETATM    3  C5  UNL     1      24.677   0.967  52.568  1.00  0.00     0.029 A 
HETATM    4  C6  UNL     1      24.470   1.835  51.515  1.00  0.00     0.112 A 
HETATM    5  N1  UNL     1      25.660   2.357  51.081  1.00  0.00    -0.234 NA
HETATM    6  C13 UNL     1      26.842   2.041  51.628  1.00  0.00     0.234 A 
HETATM    7  N2  UNL     1      26.984   1.171  52.670  1.00  0.00    -0.241 NA
HETATM    8  C14 UNL     1      25.864   0.603  53.170  1.00  0.00     0.074 A 
HETATM    9  C15 UNL     1      25.921  -0.262  54.231  1.00  0.00     0.069 A 
HETATM   10  C16 UNL     1      24.772  -0.821  54.759  1.00  0.00     0.074 A 
ENDROOT
BRANCH   4  11
HETATM   11  S1  UNL     1      23.034   2.225  50.716  1.00  0.00    -0.099 SA
HETATM   12  C7  UNL     1      23.167   2.747  49.171  1.00  0.00     0.104 C 
BRANCH  11  13
HETATM   13  C8  UNL     1      21.975   3.229  51.635  1.00  0.00     0.113 C 
BRANCH  13  14
HETATM   14  C9  UNL     1      22.847   3.874  52.701  1.00  0.00    -0.018 C 
HETATM   15  C10 UNL     1      23.510   4.988  52.599  1.00  0.00    -0.004 C 
BRANCH  15  16
HETATM   16  C11 UNL     1      23.634   5.948  51.480  1.00  0.00     0.191 C 
BRANCH  16  17
HETATM   17  O1  UNL     1      24.480   6.995  51.898  1.00  0.00    -0.397 OA
HETATM   18  H16 UNL     1      23.936   7.790  52.086  1.00  0.00     0.209 HD
ENDBRANCH  16  17
ENDBRANCH  15  16
ENDBRANCH  13  14
ENDBRANCH  11  13
BRANCH  11  19
HETATM   19  O2  UNL     1      22.167   0.756  50.738  1.00  0.00    -0.341 OA
HETATM   20  C12 UNL     1      20.807   0.994  50.711  1.00  0.00     0.218 C 
ENDBRANCH  11  19
ENDBRANCH   4  11
BRANCH   1  21
HETATM   21  C2  UNL     1      22.274  -1.065  54.729  1.00  0.00     0.037 C 
HETATM   22  C1  UNL     1      21.146  -0.030  54.653  1.00  0.00     0.010 C 
ENDBRANCH   1  21
BRANCH  10  23
HETATM   23  O3  UNL     1      24.802  -1.701  55.833  1.00  0.00    -0.360 OA
HETATM   24  H22 UNL     1      25.371  -1.519  56.648  1.00  0.00     0.217 HD
ENDBRANCH  10  23
TORSDOF 8
ENDMDL
MODEL 6
REMARK VINA RESULT:      -6.7      2.727      6.319
REMARK  8 active torsions:
REMARK  status: ('A' for Active; 'I' for Inactive)
REMARK    1  A    between atoms: C2_2  and  C3_3 
REMARK    2  A    between atoms: C6_6  and  S1_7 
REMARK    3  A    between atoms: S1_7  and  C8_9 
REMARK    4  A    between atoms: S1_7  and  O2_14 
REMARK    5  A    between atoms: C8_9  and  C9_10 
REMARK    6  A    between atoms: C10_11  and  C11_12 
REMARK    7  A    between atoms: C11_12  and  O1_13 
REMARK    8  A    between atoms: C16_21  and  O3_22 
ROOT
HETATM    1  C3  UNL     1      25.170   2.550  51.501  1.00  0.00    -0.024 A 
HETATM    2  C4  UNL     1      24.005   1.889  51.821  1.00  0.00     0.026 A 
HETATM    3  C5  UNL     1      23.861   0.883  52.755  1.00  0.00     0.029 A 
HETATM    4  C6  UNL     1      22.600   0.343  52.903  1.00  0.00     0.112 A 
HETATM    5  N1  UNL     1      22.614  -0.661  53.835  1.00  0.00    -0.234 NA
HETATM    6  C13 UNL     1      23.720  -1.034  54.495  1.00  0.00     0.234 A 
HETATM    7  N2  UNL     1      24.942  -0.457  54.306  1.00  0.00    -0.241 NA
HETATM    8  C14 UNL     1      25.031   0.544  53.402  1.00  0.00     0.074 A 
HETATM    9  C15 UNL     1      26.227   1.157  53.139  1.00  0.00     0.069 A 
HETATM   10  C16 UNL     1      26.322   2.162  52.193  1.00  0.00     0.074 A 
ENDROOT
BRANCH   4  11
HETATM   11  S1  UNL     1      21.146   0.803  52.179  1.00  0.00    -0.099 SA
HETATM   12  C7  UNL     1      21.038   0.619  50.556  1.00  0.00     0.104 C 
BRANCH  11  13
HETATM   13  C8  UNL     1      20.576   2.352  52.679  1.00  0.00     0.113 C 
BRANCH  13  14
HETATM   14  C9  UNL     1      20.520   3.194  51.414  1.00  0.00    -0.018 C 
HETATM   15  C10 UNL     1      21.156   4.305  51.186  1.00  0.00    -0.004 C 
BRANCH  15  16
HETATM   16  C11 UNL     1      22.093   5.081  52.028  1.00  0.00     0.191 C 
BRANCH  16  17
HETATM   17  O1  UNL     1      22.023   6.429  51.626  1.00  0.00    -0.397 OA
HETATM   18  H16 UNL     1      22.504   6.983  52.278  1.00  0.00     0.209 HD
ENDBRANCH  16  17
ENDBRANCH  15  16
ENDBRANCH  13  14
ENDBRANCH  11  13
BRANCH  11  19
HETATM   19  O2  UNL     1      19.999  -0.209  52.934  1.00  0.00    -0.341 OA
HETATM   20  C12 UNL     1      18.802  -0.186  52.245  1.00  0.00     0.218 C 
ENDBRANCH  11  19
ENDBRANCH   4  11
BRANCH   1  21
HETATM   21  C2  UNL     1      25.224   3.626  50.476  1.00  0.00     0.037 C 
HETATM   22  C1  UNL     1      24.268   3.307  49.323  1.00  0.00     0.010 C 
ENDBRANCH   1  21
BRANCH  10  23
HETATM   23  O3  UNL     1      27.522   2.801  51.908  1.00  0.00    -0.360 OA
HETATM   24  H22 UNL     1      27.545   3.679  51.408  1.00  0.00     0.217 HD
ENDBRANCH  10  23
TORSDOF 8
ENDMDL
MODEL 7
REMARK VINA RESULT:      -6.7      2.125      6.032
REMARK  8 active torsions:
REMARK  status: ('A' for Active; 'I' for Inactive)
REMARK    1  A    between atoms: C2_2  and  C3_3 
REMARK    2  A    between atoms: C6_6  and  S1_7 
REMARK    3  A    between atoms: S1_7  and  C8_9 
REMARK    4  A    between atoms: S1_7  and  O2_14 
REMARK    5  A    between atoms: C8_9  and  C9_10 
REMARK    6  A    between atoms: C10_11  and  C11_12 
REMARK    7  A    between atoms: C11_12  and  O1_13 
REMARK    8  A    between atoms: C16_21  and  O3_22 
ROOT
HETATM    1  C3  UNL     1      25.489   0.424  52.800  1.00  0.00    -0.024 A 
HETATM    2  C4  UNL     1      24.133   0.620  52.664  1.00  0.00     0.026 A 
HETATM    3  C5  UNL     1      23.139   0.050  53.434  1.00  0.00     0.029 A 
HETATM    4  C6  UNL     1      21.836   0.370  53.111  1.00  0.00     0.112 A 
HETATM    5  N1  UNL     1      20.961  -0.289  53.933  1.00  0.00    -0.234 NA
HETATM    6  C13 UNL     1      21.356  -1.119  54.909  1.00  0.00     0.234 A 
HETATM    7  N2  UNL     1      22.665  -1.395  55.182  1.00  0.00    -0.241 NA
HETATM    8  C14 UNL     1      23.606  -0.791  54.422  1.00  0.00     0.074 A 
HETATM    9  C15 UNL     1      24.939  -1.035  54.619  1.00  0.00     0.069 A 
HETATM   10  C16 UNL     1      25.899  -0.439  53.821  1.00  0.00     0.074 A 
ENDROOT
BRANCH   4  11
HETATM   11  S1  UNL     1      21.255   1.461  51.960  1.00  0.00    -0.099 SA
HETATM   12  C7  UNL     1      21.974   2.931  51.907  1.00  0.00     0.104 C 
BRANCH  11  13
HETATM   13  C8  UNL     1      19.536   1.595  51.930  1.00  0.00     0.113 C 
BRANCH  13  14
HETATM   14  C9  UNL     1      19.044   0.360  51.191  1.00  0.00    -0.018 C 
HETATM   15  C10 UNL     1      18.155  -0.494  51.604  1.00  0.00    -0.004 C 
BRANCH  15  16
HETATM   16  C11 UNL     1      17.368  -0.552  52.855  1.00  0.00     0.191 C 
BRANCH  16  17
HETATM   17  O1  UNL     1      18.044  -1.400  53.754  1.00  0.00    -0.397 OA
HETATM   18  H16 UNL     1      18.986  -1.128  53.803  1.00  0.00     0.209 HD
ENDBRANCH  16  17
ENDBRANCH  15  16
ENDBRANCH  13  14
ENDBRANCH  11  13
BRANCH  11  19
HETATM   19  O2  UNL     1      21.530   0.650  50.484  1.00  0.00    -0.341 OA
HETATM   20  C12 UNL     1      22.134   1.493  49.572  1.00  0.00     0.218 C 
ENDBRANCH  11  19
ENDBRANCH   4  11
BRANCH   1  21
HETATM   21  C2  UNL     1      26.486   1.088  51.918  1.00  0.00     0.037 C 
HETATM   22  C1  UNL     1      25.864   2.317  51.248  1.00  0.00     0.010 C 
ENDBRANCH   1  21
BRANCH  10  23
HETATM   23  O3  UNL     1      27.257  -0.667  54.000  1.00  0.00    -0.360 OA
HETATM   24  H22 UNL     1      27.880  -0.783  53.213  1.00  0.00     0.217 HD
ENDBRANCH  10  23
TORSDOF 8
ENDMDL
MODEL 8
REMARK VINA RESULT:      -6.6      2.753      6.088
REMARK  8 active torsions:
REMARK  status: ('A' for Active; 'I' for Inactive)
REMARK    1  A    between atoms: C2_2  and  C3_3 
REMARK    2  A    between atoms: C6_6  and  S1_7 
REMARK    3  A    between atoms: S1_7  and  C8_9 
REMARK    4  A    between atoms: S1_7  and  O2_14 
REMARK    5  A    between atoms: C8_9  and  C9_10 
REMARK    6  A    between atoms: C10_11  and  C11_12 
REMARK    7  A    between atoms: C11_12  and  O1_13 
REMARK    8  A    between atoms: C16_21  and  O3_22 
ROOT
HETATM    1  C3  UNL     1      23.554  -0.513  54.366  1.00  0.00    -0.024 A 
HETATM    2  C4  UNL     1      23.429   0.366  53.312  1.00  0.00     0.026 A 
HETATM    3  C5  UNL     1      24.459   0.936  52.592  1.00  0.00     0.029 A 
HETATM    4  C6  UNL     1      24.109   1.810  51.583  1.00  0.00     0.112 A 
HETATM    5  N1  UNL     1      25.227   2.321  50.979  1.00  0.00    -0.234 NA
HETATM    6  C13 UNL     1      26.474   1.989  51.345  1.00  0.00     0.234 A 
HETATM    7  N2  UNL     1      26.757   1.114  52.353  1.00  0.00    -0.241 NA
HETATM    8  C14 UNL     1      25.717   0.557  53.012  1.00  0.00     0.074 A 
HETATM    9  C15 UNL     1      25.920  -0.312  54.051  1.00  0.00     0.069 A 
HETATM   10  C16 UNL     1      24.855  -0.860  54.742  1.00  0.00     0.074 A 
ENDROOT
BRANCH   4  11
HETATM   11  S1  UNL     1      22.575   2.219  51.006  1.00  0.00    -0.099 SA
HETATM   12  C7  UNL     1      21.579   2.999  52.044  1.00  0.00     0.104 C 
BRANCH  11  13
HETATM   13  C8  UNL     1      21.765   0.927  50.201  1.00  0.00     0.113 C 
BRANCH  13  14
HETATM   14  C9  UNL     1      20.689   0.456  51.167  1.00  0.00    -0.018 C 
HETATM   15  C10 UNL     1      19.402   0.557  51.013  1.00  0.00    -0.004 C 
BRANCH  15  16
HETATM   16  C11 UNL     1      18.595   1.129  49.912  1.00  0.00     0.191 C 
BRANCH  16  17
HETATM   17  O1  UNL     1      17.614   0.184  49.556  1.00  0.00    -0.397 OA
HETATM   18  H16 UNL     1      17.068  -0.024  50.345  1.00  0.00     0.209 HD
ENDBRANCH  16  17
ENDBRANCH  15  16
ENDBRANCH  13  14
ENDBRANCH  11  13
BRANCH  11  19
HETATM   19  O2  UNL     1      22.919   3.242  49.684  1.00  0.00    -0.341 OA
HETATM   20  C12 UNL     1      22.564   2.636  48.495  1.00  0.00     0.218 C 
ENDBRANCH  11  19
ENDBRANCH   4  11
BRANCH   1  21
HETATM   21  C2  UNL     1      22.378  -1.076  55.080  1.00  0.00     0.037 C 
HETATM   22  C1  UNL     1      21.389  -1.682  54.078  1.00  0.00     0.010 C 
ENDBRANCH   1  21
BRANCH  10  23
HETATM   23  O3  UNL     1      25.033  -1.744  55.798  1.00  0.00    -0.360 OA
HETATM   24  H22 UNL     1      25.956  -2.011  56.113  1.00  0.00     0.217 HD
ENDBRANCH  10  23
TORSDOF 8
ENDMDL
MODEL 9
REMARK VINA RESULT:      -6.6      3.292      6.221
REMARK  8 active torsions:
REMARK  status: ('A' for Active; 'I' for Inactive)
REMARK    1  A    between atoms: C2_2  and  C3_3 
REMARK    2  A    between atoms: C6_6  and  S1_7 
REMARK    3  A    between atoms: S1_7  and  C8_9 
REMARK    4  A    between atoms: S1_7  and  O2_14 
REMARK    5  A    between atoms: C8_9  and  C9_10 
REMARK    6  A    between atoms: C10_11  and  C11_12 
REMARK    7  A    between atoms: C11_12  and  O1_13 
REMARK    8  A    between atoms: C16_21  and  O3_22 
ROOT
HETATM    1  C3  UNL     1      23.491  -0.599  54.313  1.00  0.00    -0.024 A 
HETATM    2  C4  UNL     1      23.341   0.270  53.255  1.00  0.00     0.026 A 
HETATM    3  C5  UNL     1      24.352   0.910  52.568  1.00  0.00     0.029 A 
HETATM    4  C6  UNL     1      23.975   1.758  51.546  1.00  0.00     0.112 A 
HETATM    5  N1  UNL     1      25.075   2.345  50.978  1.00  0.00    -0.234 NA
HETATM    6  C13 UNL     1      26.329   2.099  51.384  1.00  0.00     0.234 A 
HETATM    7  N2  UNL     1      26.639   1.244  52.402  1.00  0.00    -0.241 NA
HETATM    8  C14 UNL     1      25.618   0.617  53.028  1.00  0.00     0.074 A 
HETATM    9  C15 UNL     1      25.847  -0.237  54.074  1.00  0.00     0.069 A 
HETATM   10  C16 UNL     1      24.800  -0.857  54.732  1.00  0.00     0.074 A 
ENDROOT
BRANCH   4  11
HETATM   11  S1  UNL     1      22.437   2.062  50.919  1.00  0.00    -0.099 SA
HETATM   12  C7  UNL     1      21.469   0.764  50.676  1.00  0.00     0.104 C 
BRANCH  11  13
HETATM   13  C8  UNL     1      22.434   3.118  49.557  1.00  0.00     0.113 C 
BRANCH  13  14
HETATM   14  C9  UNL     1      22.579   2.216  48.341  1.00  0.00    -0.018 C 
HETATM   15  C10 UNL     1      22.283   2.511  47.109  1.00  0.00    -0.004 C 
BRANCH  15  16
HETATM   16  C11 UNL     1      21.737   3.748  46.509  1.00  0.00     0.191 C 
BRANCH  16  17
HETATM   17  O1  UNL     1      22.122   3.779  45.154  1.00  0.00    -0.397 OA
HETATM   18  H16 UNL     1      21.550   4.415  44.674  1.00  0.00     0.209 HD
ENDBRANCH  16  17
ENDBRANCH  15  16
ENDBRANCH  13  14
ENDBRANCH  11  13
BRANCH  11  19
HETATM   19  O2  UNL     1      21.730   3.073  52.099  1.00  0.00    -0.341 OA
HETATM   20  C12 UNL     1      20.437   2.672  52.371  1.00  0.00     0.218 C 
ENDBRANCH  11  19
ENDBRANCH   4  11
BRANCH   1  21
HETATM   21  C2  UNL     1      22.334  -1.243  54.990  1.00  0.00     0.037 C 
HETATM   22  C1  UNL     1      21.023  -0.808  54.327  1.00  0.00     0.010 C 
ENDBRANCH   1  21
BRANCH  10  23
HETATM   23  O3  UNL     1      25.004  -1.728  55.794  1.00  0.00    -0.360 OA
HETATM   24  H22 UNL     1      24.638  -1.530  56.715  1.00  0.00     0.217 HD
ENDBRANCH  10  23
TORSDOF 8
ENDMDL
