MODEL 1
REMARK VINA RESULT:      -9.0      0.000      0.000
REMARK  6 active torsions:
REMARK  status: ('A' for Active; 'I' for Inactive)
REMARK    1  A    between atoms: N1_7  and  C6_8 
REMARK    2  A    between atoms: C6_8  and  C7_9 
REMARK    3  A    between atoms: C7_9  and  O2_10 
REMARK    4  A    between atoms: O2_10  and  C8_11 
REMARK    5  A    between atoms: C14_19  and  N4_20 
REMARK    6  A    between atoms: N4_20  and  C15_21 
ROOT
HETATM    1  C8  UNL     1      21.931   0.438  52.231  1.00  0.00     0.189 A 
HETATM    2  C9  UNL     1      20.505   0.031  52.513  1.00  0.00    -0.048 A 
HETATM    3  C10 UNL     1      19.248   0.337  51.745  1.00  0.00     0.046 C 
HETATM    4  C11 UNL     1      20.437  -0.712  53.633  1.00  0.00     0.037 A 
HETATM    5  C12 UNL     1      21.766  -0.884  54.213  1.00  0.00     0.071 A 
HETATM    6  N2  UNL     1      22.188  -1.533  55.304  1.00  0.00    -0.241 NA
HETATM    7  C13 UNL     1      23.488  -1.560  55.652  1.00  0.00     0.235 A 
HETATM    8  N3  UNL     1      24.356  -0.907  54.859  1.00  0.00    -0.224 NA
HETATM    9  C14 UNL     1      23.965  -0.244  53.755  1.00  0.00     0.141 A 
HETATM   10  C21 UNL     1      22.628  -0.204  53.378  1.00  0.00     0.050 A 
ENDROOT
BRANCH   1  11
HETATM   11  O2  UNL     1      22.079   1.785  52.183  1.00  0.00    -0.375 OA
BRANCH  11  12
HETATM   12  C7  UNL     1      22.314   2.389  50.997  1.00  0.00     0.189 C 
BRANCH  12  13
HETATM   13  C6  UNL     1      23.710   2.364  50.467  1.00  0.00     0.149 C 
BRANCH  13  14
HETATM   14  N1  UNL     1      24.221   3.721  50.486  1.00  0.00    -0.379 N 
HETATM   15  C2  UNL     1      25.488   4.032  49.928  1.00  0.00     0.021 C 
HETATM   16  C1  UNL     1      26.448   3.120  49.812  1.00  0.00     0.040 C 
HETATM   17  C3  UNL     1      25.868   5.389  49.424  1.00  0.00     0.223 C 
HETATM   18  O1  UNL     1      24.747   6.234  49.602  1.00  0.00    -0.384 OA
HETATM   19  C4  UNL     1      24.341   6.084  50.907  1.00  0.00     0.187 C 
HETATM   20  C5  UNL     1      23.490   4.834  51.068  1.00  0.00     0.149 C 
ENDBRANCH  13  14
ENDBRANCH  12  13
ENDBRANCH  11  12
ENDBRANCH   1  11
BRANCH   9  21
HETATM   21  N4  UNL     1      24.957   0.418  52.975  1.00  0.00    -0.340 N 
HETATM   22  H19 UNL     1      24.533   1.058  52.283  1.00  0.00     0.167 HD
BRANCH  21  23
HETATM   23  C15 UNL     1      26.362   0.184  53.169  1.00  0.00     0.035 A 
HETATM   24  C16 UNL     1      26.807  -1.054  52.766  1.00  0.00     0.032 A 
HETATM   25  C17 UNL     1      28.161  -1.269  52.959  1.00  0.00     0.046 A 
HETATM   26  C18 UNL     1      29.025  -0.319  53.515  1.00  0.00     0.138 A 
HETATM   27  F1  UNL     1      30.343  -0.544  53.693  1.00  0.00    -0.204 F 
HETATM   28  C19 UNL     1      28.436   0.881  53.872  1.00  0.00     0.074 A 
HETATM   29 CL1  UNL     1      29.504   2.080  54.573  1.00  0.00    -0.081 Cl
HETATM   30  C20 UNL     1      27.096   1.208  53.727  1.00  0.00     0.056 A 
ENDBRANCH  21  23
ENDBRANCH   9  21
TORSDOF 6
ENDMDL
MODEL 2
REMARK VINA RESULT:      -8.9      3.273      5.979
REMARK  6 active torsions:
REMARK  status: ('A' for Active; 'I' for Inactive)
REMARK    1  A    between atoms: N1_7  and  C6_8 
REMARK    2  A    between atoms: C6_8  and  C7_9 
REMARK    3  A    between atoms: C7_9  and  O2_10 
REMARK    4  A    between atoms: O2_10  and  C8_11 
REMARK    5  A    between atoms: C14_19  and  N4_20 
REMARK    6  A    between atoms: N4_20  and  C15_21 
ROOT
HETATM    1  C8  UNL     1      23.308   1.264  53.201  1.00  0.00     0.189 A 
HETATM    2  C9  UNL     1      22.340   0.126  53.420  1.00  0.00    -0.048 A 
HETATM    3  C10 UNL     1      22.081  -0.692  54.656  1.00  0.00     0.046 C 
HETATM    4  C11 UNL     1      21.646  -0.129  52.296  1.00  0.00     0.037 A 
HETATM    5  C12 UNL     1      22.055   0.778  51.227  1.00  0.00     0.071 A 
HETATM    6  N2  UNL     1      21.653   0.902  49.957  1.00  0.00    -0.241 NA
HETATM    7  C13 UNL     1      22.179   1.830  49.136  1.00  0.00     0.235 A 
HETATM    8  N3  UNL     1      23.132   2.634  49.640  1.00  0.00    -0.224 NA
HETATM    9  C14 UNL     1      23.559   2.537  50.912  1.00  0.00     0.141 A 
HETATM   10  C21 UNL     1      23.028   1.586  51.776  1.00  0.00     0.050 A 
ENDROOT
BRANCH   1  11
HETATM   11  O2  UNL     1      24.591   0.896  53.440  1.00  0.00    -0.375 OA
BRANCH  11  12
HETATM   12  C7  UNL     1      25.143  -0.107  52.722  1.00  0.00     0.189 C 
BRANCH  12  13
HETATM   13  C6  UNL     1      26.349   0.206  51.900  1.00  0.00     0.149 C 
BRANCH  13  14
HETATM   14  N1  UNL     1      27.522  -0.007  52.726  1.00  0.00    -0.379 N 
HETATM   15  C2  UNL     1      28.122   1.067  53.433  1.00  0.00     0.021 C 
HETATM   16  C1  UNL     1      27.991   2.329  53.038  1.00  0.00     0.040 C 
HETATM   17  C3  UNL     1      28.947   0.895  54.671  1.00  0.00     0.223 C 
HETATM   18  O1  UNL     1      28.978  -0.488  54.967  1.00  0.00    -0.384 OA
HETATM   19  C4  UNL     1      29.348  -1.133  53.810  1.00  0.00     0.187 C 
HETATM   20  C5  UNL     1      28.154  -1.306  52.883  1.00  0.00     0.149 C 
ENDBRANCH  13  14
ENDBRANCH  12  13
ENDBRANCH  11  12
ENDBRANCH   1  11
BRANCH   9  21
HETATM   21  N4  UNL     1      24.571   3.435  51.358  1.00  0.00    -0.340 N 
HETATM   22  H19 UNL     1      24.633   3.459  52.390  1.00  0.00     0.167 HD
BRANCH  21  23
HETATM   23  C15 UNL     1      25.378   4.192  50.441  1.00  0.00     0.035 A 
HETATM   24  C16 UNL     1      26.444   3.509  49.902  1.00  0.00     0.032 A 
HETATM   25  C17 UNL     1      27.215   4.248  49.021  1.00  0.00     0.046 A 
HETATM   26  C18 UNL     1      26.950   5.581  48.690  1.00  0.00     0.138 A 
HETATM   27  F1  UNL     1      27.711   6.286  47.827  1.00  0.00    -0.204 F 
HETATM   28  C19 UNL     1      25.844   6.137  49.307  1.00  0.00     0.074 A 
HETATM   29 CL1  UNL     1      25.501   7.808  48.906  1.00  0.00    -0.081 Cl
HETATM   30  C20 UNL     1      25.002   5.497  50.204  1.00  0.00     0.056 A 
ENDBRANCH  21  23
ENDBRANCH   9  21
TORSDOF 6
ENDMDL
MODEL 3
REMARK VINA RESULT:      -8.8      3.279      5.645
REMARK  6 active torsions:
REMARK  status: ('A' for Active; 'I' for Inactive)
REMARK    1  A    between atoms: N1_7  and  C6_8 
REMARK    2  A    between atoms: C6_8  and  C7_9 
REMARK    3  A    between atoms: C7_9  and  O2_10 
REMARK    4  A    between atoms: O2_10  and  C8_11 
REMARK    5  A    between atoms: C14_19  and  N4_20 
REMARK    6  A    between atoms: N4_20  and  C15_21 
ROOT
HETATM    1  C8  UNL     1      23.134  -0.105  53.456  1.00  0.00     0.189 A 
HETATM    2  C9  UNL     1      22.406  -0.902  54.512  1.00  0.00    -0.048 A 
HETATM    3  C10 UNL     1      22.940  -1.576  55.747  1.00  0.00     0.046 C 
HETATM    4  C11 UNL     1      21.092  -0.971  54.231  1.00  0.00     0.037 A 
HETATM    5  C12 UNL     1      20.795  -0.252  52.995  1.00  0.00     0.071 A 
HETATM    6  N2  UNL     1      19.652  -0.048  52.331  1.00  0.00    -0.241 NA
HETATM    7  C13 UNL     1      19.614   0.663  51.189  1.00  0.00     0.235 A 
HETATM    8  N3  UNL     1      20.775   1.165  50.733  1.00  0.00    -0.224 NA
HETATM    9  C14 UNL     1      21.943   0.979  51.375  1.00  0.00     0.141 A 
HETATM   10  C21 UNL     1      22.004   0.249  52.556  1.00  0.00     0.050 A 
ENDROOT
BRANCH   1  11
HETATM   11  O2  UNL     1      24.111  -0.827  52.854  1.00  0.00    -0.375 OA
BRANCH  11  12
HETATM   12  C7  UNL     1      25.392  -0.685  53.258  1.00  0.00     0.189 C 
BRANCH  12  13
HETATM   13  C6  UNL     1      26.441  -0.521  52.208  1.00  0.00     0.149 C 
BRANCH  13  14
HETATM   14  N1  UNL     1      27.556   0.195  52.797  1.00  0.00    -0.379 N 
HETATM   15  C2  UNL     1      27.629   1.611  52.736  1.00  0.00     0.021 C 
HETATM   16  C1  UNL     1      27.013   2.307  51.786  1.00  0.00     0.040 C 
HETATM   17  C3  UNL     1      28.392   2.451  53.714  1.00  0.00     0.223 C 
HETATM   18  O1  UNL     1      28.971   1.574  54.660  1.00  0.00    -0.384 OA
HETATM   19  C4  UNL     1      29.629   0.599  53.946  1.00  0.00     0.187 C 
HETATM   20  C5  UNL     1      28.656  -0.472  53.473  1.00  0.00     0.149 C 
ENDBRANCH  13  14
ENDBRANCH  12  13
ENDBRANCH  11  12
ENDBRANCH   1  11
BRANCH   9  21
HETATM   21  N4  UNL     1      23.122   1.551  50.817  1.00  0.00    -0.340 N 
HETATM   22  H19 UNL     1      23.697   0.843  50.330  1.00  0.00     0.167 HD
BRANCH  21  23
HETATM   23  C15 UNL     1      23.427   2.950  50.946  1.00  0.00     0.035 A 
HETATM   24  C16 UNL     1      23.197   3.482  52.195  1.00  0.00     0.032 A 
HETATM   25  C17 UNL     1      23.492   4.830  52.308  1.00  0.00     0.046 A 
HETATM   26  C18 UNL     1      23.986   5.607  51.254  1.00  0.00     0.138 A 
HETATM   27  F1  UNL     1      24.270   6.919  51.383  1.00  0.00    -0.204 F 
HETATM   28  C19 UNL     1      24.168   4.936  50.058  1.00  0.00     0.074 A 
HETATM   29 CL1  UNL     1      24.781   5.896  48.726  1.00  0.00    -0.081 Cl
HETATM   30  C20 UNL     1      23.907   3.593  49.827  1.00  0.00     0.056 A 
ENDBRANCH  21  23
ENDBRANCH   9  21
TORSDOF 6
ENDMDL
MODEL 4
REMARK VINA RESULT:      -8.8      3.215      6.927
REMARK  6 active torsions:
REMARK  status: ('A' for Active; 'I' for Inactive)
REMARK    1  A    between atoms: N1_7  and  C6_8 
REMARK    2  A    between atoms: C6_8  and  C7_9 
REMARK    3  A    between atoms: C7_9  and  O2_10 
REMARK    4  A    between atoms: O2_10  and  C8_11 
REMARK    5  A    between atoms: C14_19  and  N4_20 
REMARK    6  A    between atoms: N4_20  and  C15_21 
ROOT
HETATM    1  C8  UNL     1      25.574   3.527  49.449  1.00  0.00     0.189 A 
HETATM    2  C9  UNL     1      26.339   4.818  49.284  1.00  0.00    -0.048 A 
HETATM    3  C10 UNL     1      27.644   5.081  48.583  1.00  0.00     0.046 C 
HETATM    4  C11 UNL     1      25.689   5.834  49.883  1.00  0.00     0.037 A 
HETATM    5  C12 UNL     1      24.453   5.357  50.497  1.00  0.00     0.071 A 
HETATM    6  N2  UNL     1      23.497   5.988  51.189  1.00  0.00    -0.241 NA
HETATM    7  C13 UNL     1      22.423   5.334  51.669  1.00  0.00     0.235 A 
HETATM    8  N3  UNL     1      22.343   4.013  51.429  1.00  0.00    -0.224 NA
HETATM    9  C14 UNL     1      23.286   3.348  50.737  1.00  0.00     0.141 A 
HETATM   10  C21 UNL     1      24.403   4.004  50.232  1.00  0.00     0.050 A 
ENDROOT
BRANCH   1  11
HETATM   11  O2  UNL     1      26.306   2.576  50.078  1.00  0.00    -0.375 OA
BRANCH  11  12
HETATM   12  C7  UNL     1      26.748   2.798  51.336  1.00  0.00     0.189 C 
BRANCH  12  13
HETATM   13  C6  UNL     1      26.224   1.920  52.424  1.00  0.00     0.149 C 
BRANCH  13  14
HETATM   14  N1  UNL     1      27.359   1.342  53.119  1.00  0.00    -0.379 N 
HETATM   15  C2  UNL     1      27.490  -0.064  53.259  1.00  0.00     0.021 C 
HETATM   16  C1  UNL     1      26.438  -0.875  53.223  1.00  0.00     0.040 C 
HETATM   17  C3  UNL     1      28.798  -0.765  53.458  1.00  0.00     0.223 C 
HETATM   18  O1  UNL     1      29.810   0.223  53.457  1.00  0.00    -0.384 OA
HETATM   19  C4  UNL     1      29.417   1.193  54.351  1.00  0.00     0.187 C 
HETATM   20  C5  UNL     1      28.416   2.144  53.711  1.00  0.00     0.149 C 
ENDBRANCH  13  14
ENDBRANCH  12  13
ENDBRANCH  11  12
ENDBRANCH   1  11
BRANCH   9  21
HETATM   21  N4  UNL     1      23.114   1.949  50.529  1.00  0.00    -0.340 N 
HETATM   22  H19 UNL     1      23.645   1.617  49.706  1.00  0.00     0.167 HD
BRANCH  21  23
HETATM   23  C15 UNL     1      22.291   1.145  51.391  1.00  0.00     0.035 A 
HETATM   24  C16 UNL     1      20.984   1.007  50.983  1.00  0.00     0.032 A 
HETATM   25  C17 UNL     1      20.199   0.232  51.820  1.00  0.00     0.046 A 
HETATM   26  C18 UNL     1      20.675  -0.372  52.989  1.00  0.00     0.138 A 
HETATM   27  F1  UNL     1      19.898  -1.126  53.793  1.00  0.00    -0.204 F 
HETATM   28  C19 UNL     1      22.011  -0.146  53.271  1.00  0.00     0.074 A 
HETATM   29 CL1  UNL     1      22.622  -0.893  54.734  1.00  0.00    -0.081 Cl
HETATM   30  C20 UNL     1      22.890   0.610  52.510  1.00  0.00     0.056 A 
ENDBRANCH  21  23
ENDBRANCH   9  21
TORSDOF 6
ENDMDL
MODEL 5
REMARK VINA RESULT:      -8.4      1.969      5.718
REMARK  6 active torsions:
REMARK  status: ('A' for Active; 'I' for Inactive)
REMARK    1  A    between atoms: N1_7  and  C6_8 
REMARK    2  A    between atoms: C6_8  and  C7_9 
REMARK    3  A    between atoms: C7_9  and  O2_10 
REMARK    4  A    between atoms: O2_10  and  C8_11 
REMARK    5  A    between atoms: C14_19  and  N4_20 
REMARK    6  A    between atoms: N4_20  and  C15_21 
ROOT
HETATM    1  C8  UNL     1      23.299   3.729  51.892  1.00  0.00     0.189 A 
HETATM    2  C9  UNL     1      22.423   4.398  50.860  1.00  0.00    -0.048 A 
HETATM    3  C10 UNL     1      20.969   4.780  50.933  1.00  0.00     0.046 C 
HETATM    4  C11 UNL     1      23.124   4.657  49.740  1.00  0.00     0.037 A 
HETATM    5  C12 UNL     1      24.505   4.207  49.886  1.00  0.00     0.071 A 
HETATM    6  N2  UNL     1      25.553   4.251  49.056  1.00  0.00    -0.241 NA
HETATM    7  C13 UNL     1      26.758   3.768  49.411  1.00  0.00     0.235 A 
HETATM    8  N3  UNL     1      26.874   3.233  50.640  1.00  0.00    -0.224 NA
HETATM    9  C14 UNL     1      25.841   3.173  51.500  1.00  0.00     0.141 A 
HETATM   10  C21 UNL     1      24.588   3.667  51.153  1.00  0.00     0.050 A 
ENDROOT
BRANCH   1  11
HETATM   11  O2  UNL     1      22.818   2.517  52.261  1.00  0.00    -0.375 OA
BRANCH  11  12
HETATM   12  C7  UNL     1      22.985   1.455  51.443  1.00  0.00     0.189 C 
BRANCH  12  13
HETATM   13  C6  UNL     1      21.914   0.414  51.424  1.00  0.00     0.149 C 
BRANCH  13  14
HETATM   14  N1  UNL     1      21.843  -0.180  52.745  1.00  0.00    -0.379 N 
HETATM   15  C2  UNL     1      20.598  -0.570  53.303  1.00  0.00     0.021 C 
HETATM   16  C1  UNL     1      19.452  -0.014  52.925  1.00  0.00     0.040 C 
HETATM   17  C3  UNL     1      20.449  -1.626  54.355  1.00  0.00     0.223 C 
HETATM   18  O1  UNL     1      21.742  -2.126  54.636  1.00  0.00    -0.384 OA
HETATM   19  C4  UNL     1      22.545  -1.035  54.879  1.00  0.00     0.187 C 
HETATM   20  C5  UNL     1      23.014  -0.410  53.573  1.00  0.00     0.149 C 
ENDBRANCH  13  14
ENDBRANCH  12  13
ENDBRANCH  11  12
ENDBRANCH   1  11
BRANCH   9  21
HETATM   21  N4  UNL     1      26.059   2.591  52.782  1.00  0.00    -0.340 N 
HETATM   22  H19 UNL     1      25.485   3.048  53.511  1.00  0.00     0.167 HD
BRANCH  21  23
HETATM   23  C15 UNL     1      26.978   1.505  52.980  1.00  0.00     0.035 A 
HETATM   24  C16 UNL     1      28.198   1.863  53.508  1.00  0.00     0.032 A 
HETATM   25  C17 UNL     1      29.076   0.808  53.694  1.00  0.00     0.046 A 
HETATM   26  C18 UNL     1      28.770  -0.520  53.379  1.00  0.00     0.138 A 
HETATM   27  F1  UNL     1      29.636  -1.536  53.568  1.00  0.00    -0.204 F 
HETATM   28  C19 UNL     1      27.506  -0.729  52.857  1.00  0.00     0.074 A 
HETATM   29 CL1  UNL     1      27.108  -2.388  52.453  1.00  0.00    -0.081 Cl
HETATM   30  C20 UNL     1      26.545   0.245  52.627  1.00  0.00     0.056 A 
ENDBRANCH  21  23
ENDBRANCH   9  21
TORSDOF 6
ENDMDL
MODEL 6
REMARK VINA RESULT:      -8.4      2.315      5.142
REMARK  6 active torsions:
REMARK  status: ('A' for Active; 'I' for Inactive)
REMARK    1  A    between atoms: N1_7  and  C6_8 
REMARK    2  A    between atoms: C6_8  and  C7_9 
REMARK    3  A    between atoms: C7_9  and  O2_10 
REMARK    4  A    between atoms: O2_10  and  C8_11 
REMARK    5  A    between atoms: C14_19  and  N4_20 
REMARK    6  A    between atoms: N4_20  and  C15_21 
ROOT
HETATM    1  C8  UNL     1      23.487   2.929  52.716  1.00  0.00     0.189 A 
HETATM    2  C9  UNL     1      22.425   3.618  51.894  1.00  0.00    -0.048 A 
HETATM    3  C10 UNL     1      20.989   3.917  52.231  1.00  0.00     0.046 C 
HETATM    4  C11 UNL     1      22.919   3.988  50.697  1.00  0.00     0.037 A 
HETATM    5  C12 UNL     1      24.322   3.603  50.583  1.00  0.00     0.071 A 
HETATM    6  N2  UNL     1      25.215   3.757  49.598  1.00  0.00    -0.241 NA
HETATM    7  C13 UNL     1      26.480   3.315  49.715  1.00  0.00     0.235 A 
HETATM    8  N3  UNL     1      26.821   2.706  50.865  1.00  0.00    -0.224 NA
HETATM    9  C14 UNL     1      25.949   2.534  51.875  1.00  0.00     0.141 A 
HETATM   10  C21 UNL     1      24.637   2.984  51.775  1.00  0.00     0.050 A 
ENDROOT
BRANCH   1  11
HETATM   11  O2  UNL     1      23.124   1.671  53.068  1.00  0.00    -0.375 OA
BRANCH  11  12
HETATM   12  C7  UNL     1      22.765   0.787  52.110  1.00  0.00     0.189 C 
BRANCH  12  13
HETATM   13  C6  UNL     1      21.596  -0.100  52.383  1.00  0.00     0.149 C 
BRANCH  13  14
HETATM   14  N1  UNL     1      20.493   0.342  51.551  1.00  0.00    -0.379 N 
HETATM   15  C2  UNL     1      19.150   0.224  51.995  1.00  0.00     0.021 C 
HETATM   16  C1  UNL     1      18.785  -0.680  52.898  1.00  0.00     0.040 C 
HETATM   17  C3  UNL     1      18.029   1.085  51.503  1.00  0.00     0.223 C 
HETATM   18  O1  UNL     1      18.577   1.996  50.570  1.00  0.00    -0.384 OA
HETATM   19  C4  UNL     1      19.305   1.253  49.670  1.00  0.00     0.187 C 
HETATM   20  C5  UNL     1      20.681   0.923  50.232  1.00  0.00     0.149 C 
ENDBRANCH  13  14
ENDBRANCH  12  13
ENDBRANCH  11  12
ENDBRANCH   1  11
BRANCH   9  21
HETATM   21  N4  UNL     1      26.401   1.880  53.057  1.00  0.00    -0.340 N 
HETATM   22  H19 UNL     1      26.253   2.464  53.897  1.00  0.00     0.167 HD
BRANCH  21  23
HETATM   23  C15 UNL     1      26.984   0.567  53.027  1.00  0.00     0.035 A 
HETATM   24  C16 UNL     1      26.151  -0.430  52.570  1.00  0.00     0.032 A 
HETATM   25  C17 UNL     1      26.723  -1.690  52.547  1.00  0.00     0.046 A 
HETATM   26  C18 UNL     1      28.037  -1.954  52.948  1.00  0.00     0.138 A 
HETATM   27  F1  UNL     1      28.579  -3.188  52.917  1.00  0.00    -0.204 F 
HETATM   28  C19 UNL     1      28.755  -0.854  53.383  1.00  0.00     0.074 A 
HETATM   29 CL1  UNL     1      30.402  -1.167  53.893  1.00  0.00    -0.081 Cl
HETATM   30  C20 UNL     1      28.290   0.451  53.451  1.00  0.00     0.056 A 
ENDBRANCH  21  23
ENDBRANCH   9  21
TORSDOF 6
ENDMDL
MODEL 7
REMARK VINA RESULT:      -8.2      1.662      2.344
REMARK  6 active torsions:
REMARK  status: ('A' for Active; 'I' for Inactive)
REMARK    1  A    between atoms: N1_7  and  C6_8 
REMARK    2  A    between atoms: C6_8  and  C7_9 
REMARK    3  A    between atoms: C7_9  and  O2_10 
REMARK    4  A    between atoms: O2_10  and  C8_11 
REMARK    5  A    between atoms: C14_19  and  N4_20 
REMARK    6  A    between atoms: N4_20  and  C15_21 
ROOT
HETATM    1  C8  UNL     1      23.192   1.917  51.069  1.00  0.00     0.189 A 
HETATM    2  C9  UNL     1      21.945   1.476  50.342  1.00  0.00    -0.048 A 
HETATM    3  C10 UNL     1      21.316   2.025  49.090  1.00  0.00     0.046 C 
HETATM    4  C11 UNL     1      21.372   0.433  50.972  1.00  0.00     0.037 A 
HETATM    5  C12 UNL     1      22.144   0.066  52.156  1.00  0.00     0.071 A 
HETATM    6  N2  UNL     1      21.969  -0.889  53.077  1.00  0.00    -0.241 NA
HETATM    7  C13 UNL     1      22.826  -1.047  54.103  1.00  0.00     0.235 A 
HETATM    8  N3  UNL     1      23.873  -0.205  54.172  1.00  0.00    -0.224 NA
HETATM    9  C14 UNL     1      24.078   0.766  53.264  1.00  0.00     0.141 A 
HETATM   10  C21 UNL     1      23.206   0.946  52.196  1.00  0.00     0.050 A 
ENDROOT
BRANCH   1  11
HETATM   11  O2  UNL     1      23.123   3.213  51.461  1.00  0.00    -0.375 OA
BRANCH  11  12
HETATM   12  C7  UNL     1      24.116   4.066  51.125  1.00  0.00     0.189 C 
BRANCH  12  13
HETATM   13  C6  UNL     1      24.181   4.537  49.710  1.00  0.00     0.149 C 
BRANCH  13  14
HETATM   14  N1  UNL     1      25.200   5.566  49.626  1.00  0.00    -0.379 N 
HETATM   15  C2  UNL     1      26.484   5.280  49.095  1.00  0.00     0.021 C 
HETATM   16  C1  UNL     1      26.990   4.051  49.102  1.00  0.00     0.040 C 
HETATM   17  C3  UNL     1      27.384   6.309  48.485  1.00  0.00     0.223 C 
HETATM   18  O1  UNL     1      26.703   7.548  48.538  1.00  0.00    -0.384 OA
HETATM   19  C4  UNL     1      26.271   7.708  49.834  1.00  0.00     0.187 C 
HETATM   20  C5  UNL     1      24.984   6.931  50.073  1.00  0.00     0.149 C 
ENDBRANCH  13  14
ENDBRANCH  12  13
ENDBRANCH  11  12
ENDBRANCH   1  11
BRANCH   9  21
HETATM   21  N4  UNL     1      25.216   1.609  53.418  1.00  0.00    -0.340 N 
HETATM   22  H19 UNL     1      24.947   2.605  53.490  1.00  0.00     0.167 HD
BRANCH  21  23
HETATM   23  C15 UNL     1      26.554   1.085  53.460  1.00  0.00     0.035 A 
HETATM   24  C16 UNL     1      27.530   2.005  53.771  1.00  0.00     0.032 A 
HETATM   25  C17 UNL     1      28.814   1.489  53.807  1.00  0.00     0.046 A 
HETATM   26  C18 UNL     1      29.119   0.147  53.554  1.00  0.00     0.138 A 
HETATM   27  F1  UNL     1      30.376  -0.339  53.596  1.00  0.00    -0.204 F 
HETATM   28  C19 UNL     1      28.036  -0.660  53.256  1.00  0.00     0.074 A 
HETATM   29 CL1  UNL     1      28.401  -2.344  52.932  1.00  0.00    -0.081 Cl
HETATM   30  C20 UNL     1      26.710  -0.257  53.190  1.00  0.00     0.056 A 
ENDBRANCH  21  23
ENDBRANCH   9  21
TORSDOF 6
ENDMDL
MODEL 8
REMARK VINA RESULT:      -8.1      2.119      6.016
REMARK  6 active torsions:
REMARK  status: ('A' for Active; 'I' for Inactive)
REMARK    1  A    between atoms: N1_7  and  C6_8 
REMARK    2  A    between atoms: C6_8  and  C7_9 
REMARK    3  A    between atoms: C7_9  and  O2_10 
REMARK    4  A    between atoms: O2_10  and  C8_11 
REMARK    5  A    between atoms: C14_19  and  N4_20 
REMARK    6  A    between atoms: N4_20  and  C15_21 
ROOT
HETATM    1  C8  UNL     1      23.415   4.668  50.907  1.00  0.00     0.189 A 
HETATM    2  C9  UNL     1      23.210   6.115  50.531  1.00  0.00    -0.048 A 
HETATM    3  C10 UNL     1      22.053   7.032  50.825  1.00  0.00     0.046 C 
HETATM    4  C11 UNL     1      24.264   6.577  49.832  1.00  0.00     0.037 A 
HETATM    5  C12 UNL     1      25.264   5.527  49.664  1.00  0.00     0.071 A 
HETATM    6  N2  UNL     1      26.455   5.515  49.053  1.00  0.00    -0.241 NA
HETATM    7  C13 UNL     1      27.224   4.411  49.025  1.00  0.00     0.235 A 
HETATM    8  N3  UNL     1      26.752   3.310  49.636  1.00  0.00    -0.224 NA
HETATM    9  C14 UNL     1      25.560   3.287  50.259  1.00  0.00     0.141 A 
HETATM   10  C21 UNL     1      24.750   4.417  50.301  1.00  0.00     0.050 A 
ENDROOT
BRANCH   1  11
HETATM   11  O2  UNL     1      22.432   3.870  50.422  1.00  0.00    -0.375 OA
BRANCH  11  12
HETATM   12  C7  UNL     1      21.525   3.337  51.271  1.00  0.00     0.189 C 
BRANCH  12  13
HETATM   13  C6  UNL     1      22.029   2.464  52.372  1.00  0.00     0.149 C 
BRANCH  13  14
HETATM   14  N1  UNL     1      21.155   1.311  52.465  1.00  0.00    -0.379 N 
HETATM   15  C2  UNL     1      21.565   0.137  53.150  1.00  0.00     0.021 C 
HETATM   16  C1  UNL     1      22.847  -0.172  53.309  1.00  0.00     0.040 C 
HETATM   17  C3  UNL     1      20.616  -0.852  53.752  1.00  0.00     0.223 C 
HETATM   18  O1  UNL     1      19.305  -0.377  53.515  1.00  0.00    -0.384 OA
HETATM   19  C4  UNL     1      19.224  -0.091  52.172  1.00  0.00     0.187 C 
HETATM   20  C5  UNL     1      19.828   1.274  51.874  1.00  0.00     0.149 C 
ENDBRANCH  13  14
ENDBRANCH  12  13
ENDBRANCH  11  12
ENDBRANCH   1  11
BRANCH   9  21
HETATM   21  N4  UNL     1      25.143   2.075  50.881  1.00  0.00    -0.340 N 
HETATM   22  H19 UNL     1      24.318   1.668  50.410  1.00  0.00     0.167 HD
BRANCH  21  23
HETATM   23  C15 UNL     1      25.824   1.531  52.024  1.00  0.00     0.035 A 
HETATM   24  C16 UNL     1      25.690   2.261  53.183  1.00  0.00     0.032 A 
HETATM   25  C17 UNL     1      26.351   1.728  54.277  1.00  0.00     0.046 A 
HETATM   26  C18 UNL     1      27.098   0.546  54.231  1.00  0.00     0.138 A 
HETATM   27  F1  UNL     1      27.734   0.039  55.307  1.00  0.00    -0.204 F 
HETATM   28  C19 UNL     1      27.142  -0.081  52.998  1.00  0.00     0.074 A 
HETATM   29 CL1  UNL     1      28.077  -1.561  52.923  1.00  0.00    -0.081 Cl
HETATM   30  C20 UNL     1      26.523   0.358  51.837  1.00  0.00     0.056 A 
ENDBRANCH  21  23
ENDBRANCH   9  21
TORSDOF 6
ENDMDL
MODEL 9
REMARK VINA RESULT:      -8.0      2.130      4.008
REMARK  6 active torsions:
REMARK  status: ('A' for Active; 'I' for Inactive)
REMARK    1  A    between atoms: N1_7  and  C6_8 
REMARK    2  A    between atoms: C6_8  and  C7_9 
REMARK    3  A    between atoms: C7_9  and  O2_10 
REMARK    4  A    between atoms: O2_10  and  C8_11 
REMARK    5  A    between atoms: C14_19  and  N4_20 
REMARK    6  A    between atoms: N4_20  and  C15_21 
ROOT
HETATM    1  C8  UNL     1      24.557   2.799  51.119  1.00  0.00     0.189 A 
HETATM    2  C9  UNL     1      24.134   3.339  49.774  1.00  0.00    -0.048 A 
HETATM    3  C10 UNL     1      24.751   4.427  48.937  1.00  0.00     0.046 C 
HETATM    4  C11 UNL     1      23.037   2.699  49.330  1.00  0.00     0.037 A 
HETATM    5  C12 UNL     1      22.610   1.689  50.293  1.00  0.00     0.071 A 
HETATM    6  N2  UNL     1      21.592   0.821  50.288  1.00  0.00    -0.241 NA
HETATM    7  C13 UNL     1      21.388  -0.038  51.304  1.00  0.00     0.235 A 
HETATM    8  N3  UNL     1      22.250   0.008  52.336  1.00  0.00    -0.224 NA
HETATM    9  C14 UNL     1      23.284   0.868  52.374  1.00  0.00     0.141 A 
HETATM   10  C21 UNL     1      23.513   1.762  51.334  1.00  0.00     0.050 A 
ENDROOT
BRANCH   1  11
HETATM   11  O2  UNL     1      24.579   3.763  52.072  1.00  0.00    -0.375 OA
BRANCH  11  12
HETATM   12  C7  UNL     1      23.421   4.168  52.639  1.00  0.00     0.189 C 
BRANCH  12  13
HETATM   13  C6  UNL     1      22.743   5.365  52.060  1.00  0.00     0.149 C 
BRANCH  13  14
HETATM   14  N1  UNL     1      21.439   4.952  51.578  1.00  0.00    -0.379 N 
HETATM   15  C2  UNL     1      20.838   5.590  50.462  1.00  0.00     0.021 C 
HETATM   16  C1  UNL     1      21.147   6.834  50.112  1.00  0.00     0.040 C 
HETATM   17  C3  UNL     1      19.814   4.943  49.581  1.00  0.00     0.223 C 
HETATM   18  O1  UNL     1      19.607   3.632  50.070  1.00  0.00    -0.384 OA
HETATM   19  C4  UNL     1      19.367   3.745  51.419  1.00  0.00     0.187 C 
HETATM   20  C5  UNL     1      20.672   3.881  52.190  1.00  0.00     0.149 C 
ENDBRANCH  13  14
ENDBRANCH  12  13
ENDBRANCH  11  12
ENDBRANCH   1  11
BRANCH   9  21
HETATM   21  N4  UNL     1      24.147   0.841  53.508  1.00  0.00    -0.340 N 
HETATM   22  H19 UNL     1      23.660   1.149  54.366  1.00  0.00     0.167 HD
BRANCH  21  23
HETATM   23  C15 UNL     1      25.520   0.428  53.412  1.00  0.00     0.035 A 
HETATM   24  C16 UNL     1      25.713  -0.843  52.919  1.00  0.00     0.032 A 
HETATM   25  C17 UNL     1      27.039  -1.231  52.832  1.00  0.00     0.046 A 
HETATM   26  C18 UNL     1      28.111  -0.415  53.207  1.00  0.00     0.138 A 
HETATM   27  F1  UNL     1      29.398  -0.809  53.114  1.00  0.00    -0.204 F 
HETATM   28  C19 UNL     1      27.766   0.837  53.684  1.00  0.00     0.074 A 
HETATM   29 CL1  UNL     1      29.098   1.870  54.162  1.00  0.00    -0.081 Cl
HETATM   30  C20 UNL     1      26.477   1.333  53.816  1.00  0.00     0.056 A 
ENDBRANCH  21  23
ENDBRANCH   9  21
TORSDOF 6
ENDMDL
