MODEL 1
REMARK VINA RESULT:      -8.5      0.000      0.000
REMARK  6 active torsions:
REMARK  status: ('A' for Active; 'I' for Inactive)
REMARK    1  A    between atoms: O1_2  and  C2_3 
REMARK    2  A    between atoms: C6_8  and  C7_9 
REMARK    3  A    between atoms: C7_9  and  O3_11 
REMARK    4  A    between atoms: C8_12  and  N2_13 
REMARK    5  A    between atoms: N2_13  and  C9_14 
REMARK    6  A    between atoms: C17_24  and  O4_25 
ROOT
HETATM    1  C2  UNL     1      21.006   0.444  52.264  1.00  0.00     0.103 A 
HETATM    2  C3  UNL     1      21.280   1.012  51.034  1.00  0.00     0.072 A 
HETATM    3  C4  UNL     1      22.445   1.724  50.843  1.00  0.00     0.071 A 
HETATM    4  N1  UNL     1      22.724   2.283  49.649  1.00  0.00    -0.259 NA
HETATM    5  C5  UNL     1      23.879   2.972  49.512  1.00  0.00     0.138 A 
HETATM    6  C6  UNL     1      24.732   3.088  50.572  1.00  0.00     0.082 A 
HETATM    7  C8  UNL     1      24.462   2.523  51.803  1.00  0.00     0.064 A 
HETATM    8  C15 UNL     1      23.279   1.823  51.926  1.00  0.00     0.023 A 
HETATM    9  C16 UNL     1      23.039   1.270  53.168  1.00  0.00     0.055 A 
HETATM   10  C17 UNL     1      21.864   0.558  53.341  1.00  0.00     0.102 A 
ENDROOT
BRANCH   7  11
HETATM   11  N2  UNL     1      25.423   2.712  52.828  1.00  0.00    -0.355 N 
HETATM   12  H7  UNL     1      25.364   3.517  53.493  1.00  0.00     0.166 HD
BRANCH  11  13
HETATM   13  C9  UNL     1      26.506   1.801  52.977  1.00  0.00     0.034 A 
HETATM   14  C10 UNL     1      27.773   2.184  53.405  1.00  0.00     0.032 A 
HETATM   15  C11 UNL     1      28.810   1.280  53.542  1.00  0.00     0.046 A 
HETATM   16  C12 UNL     1      28.565  -0.056  53.240  1.00  0.00     0.138 A 
HETATM   17  F1  UNL     1      29.563  -0.935  53.370  1.00  0.00    -0.204 F 
HETATM   18  C13 UNL     1      27.341  -0.476  52.817  1.00  0.00     0.074 A 
HETATM   19 CL1  UNL     1      26.996  -2.160  52.426  1.00  0.00    -0.081 Cl
HETATM   20  C14 UNL     1      26.351   0.461  52.699  1.00  0.00     0.056 A 
ENDBRANCH  11  13
ENDBRANCH   7  11
BRANCH   6  21
HETATM   21  C7  UNL     1      25.935   3.856  50.283  1.00  0.00     0.179 C 
HETATM   22  O2  UNL     1      27.116   3.427  50.056  1.00  0.00    -0.646 OA
BRANCH  21  23
HETATM   23  O3  UNL     1      26.116   5.228  50.181  1.00  0.00    -0.773 OA
HETATM   24  H6  UNL     1      25.596   5.900  50.738  1.00  0.00     0.167 HD
ENDBRANCH  21  23
ENDBRANCH   6  21
BRANCH  10  25
HETATM   25  O4  UNL     1      21.522  -0.038  54.547  1.00  0.00    -0.353 OA
HETATM   26  C18 UNL     1      22.286  -1.132  54.995  1.00  0.00     0.210 C 
ENDBRANCH  10  25
BRANCH   1  27
HETATM   27  O1  UNL     1      19.826  -0.268  52.428  1.00  0.00    -0.353 OA
HETATM   28  C1  UNL     1      18.723  -0.021  51.565  1.00  0.00     0.210 C 
ENDBRANCH   1  27
TORSDOF 6
ENDMDL
MODEL 2
REMARK VINA RESULT:      -8.1      3.562      5.104
REMARK  6 active torsions:
REMARK  status: ('A' for Active; 'I' for Inactive)
REMARK    1  A    between atoms: O1_2  and  C2_3 
REMARK    2  A    between atoms: C6_8  and  C7_9 
REMARK    3  A    between atoms: C7_9  and  O3_11 
REMARK    4  A    between atoms: C8_12  and  N2_13 
REMARK    5  A    between atoms: N2_13  and  C9_14 
REMARK    6  A    between atoms: C17_24  and  O4_25 
ROOT
HETATM    1  C2  UNL     1      19.939  -0.842  53.366  1.00  0.00     0.103 A 
HETATM    2  C3  UNL     1      20.719  -1.297  54.412  1.00  0.00     0.072 A 
HETATM    3  C4  UNL     1      22.076  -1.048  54.425  1.00  0.00     0.071 A 
HETATM    4  N1  UNL     1      22.848  -1.486  55.438  1.00  0.00    -0.259 NA
HETATM    5  C5  UNL     1      24.172  -1.217  55.405  1.00  0.00     0.138 A 
HETATM    6  C6  UNL     1      24.698  -0.516  54.358  1.00  0.00     0.082 A 
HETATM    7  C8  UNL     1      23.922  -0.060  53.310  1.00  0.00     0.064 A 
HETATM    8  C15 UNL     1      22.572  -0.342  53.360  1.00  0.00     0.023 A 
HETATM    9  C16 UNL     1      21.824   0.127  52.298  1.00  0.00     0.055 A 
HETATM   10  C17 UNL     1      20.464  -0.131  52.303  1.00  0.00     0.102 A 
ENDROOT
BRANCH   7  11
HETATM   11  N2  UNL     1      24.581   0.657  52.279  1.00  0.00    -0.355 N 
HETATM   12  H7  UNL     1      25.273   0.195  51.646  1.00  0.00     0.166 HD
BRANCH  11  13
HETATM   13  C9  UNL     1      24.315   2.041  52.080  1.00  0.00     0.034 A 
HETATM   14  C10 UNL     1      24.168   2.947  53.125  1.00  0.00     0.032 A 
HETATM   15  C11 UNL     1      23.909   4.288  52.908  1.00  0.00     0.046 A 
HETATM   16  C12 UNL     1      23.794   4.733  51.594  1.00  0.00     0.138 A 
HETATM   17  F1  UNL     1      23.544   6.028  51.376  1.00  0.00    -0.204 F 
HETATM   18  C13 UNL     1      23.929   3.881  50.541  1.00  0.00     0.074 A 
HETATM   19 CL1  UNL     1      23.790   4.411  48.865  1.00  0.00    -0.081 Cl
HETATM   20  C14 UNL     1      24.185   2.565  50.814  1.00  0.00     0.056 A 
ENDBRANCH  11  13
ENDBRANCH   7  11
BRANCH   6  21
HETATM   21  C7  UNL     1      26.135  -0.300  54.451  1.00  0.00     0.179 C 
HETATM   22  O2  UNL     1      27.073  -0.920  53.845  1.00  0.00    -0.646 OA
BRANCH  21  23
HETATM   23  O3  UNL     1      26.853   0.618  55.206  1.00  0.00    -0.773 OA
HETATM   24  H6  UNL     1      27.616   1.172  54.829  1.00  0.00     0.167 HD
ENDBRANCH  21  23
ENDBRANCH   6  21
BRANCH  10  25
HETATM   25  O4  UNL     1      19.619   0.293  51.287  1.00  0.00    -0.353 OA
HETATM   26  C18 UNL     1      20.043   1.349  50.459  1.00  0.00     0.210 C 
ENDBRANCH  10  25
BRANCH   1  27
HETATM   27  O1  UNL     1      18.576  -1.105  53.379  1.00  0.00    -0.353 OA
HETATM   28  C1  UNL     1      18.110  -2.414  53.684  1.00  0.00     0.210 C 
ENDBRANCH   1  27
TORSDOF 6
ENDMDL
MODEL 3
REMARK VINA RESULT:      -8.0      3.096      6.979
REMARK  6 active torsions:
REMARK  status: ('A' for Active; 'I' for Inactive)
REMARK    1  A    between atoms: O1_2  and  C2_3 
REMARK    2  A    between atoms: C6_8  and  C7_9 
REMARK    3  A    between atoms: C7_9  and  O3_11 
REMARK    4  A    between atoms: C8_12  and  N2_13 
REMARK    5  A    between atoms: N2_13  and  C9_14 
REMARK    6  A    between atoms: C17_24  and  O4_25 
ROOT
HETATM    1  C2  UNL     1      27.549   0.816  53.041  1.00  0.00     0.103 A 
HETATM    2  C3  UNL     1      27.059  -0.197  53.842  1.00  0.00     0.072 A 
HETATM    3  C4  UNL     1      25.703  -0.309  54.068  1.00  0.00     0.071 A 
HETATM    4  N1  UNL     1      25.212  -1.292  54.846  1.00  0.00    -0.259 NA
HETATM    5  C5  UNL     1      23.875  -1.359  55.038  1.00  0.00     0.138 A 
HETATM    6  C6  UNL     1      23.057  -0.440  54.446  1.00  0.00     0.082 A 
HETATM    7  C8  UNL     1      23.543   0.575  53.646  1.00  0.00     0.064 A 
HETATM    8  C15 UNL     1      24.909   0.629  53.460  1.00  0.00     0.023 A 
HETATM    9  C16 UNL     1      25.363   1.655  52.655  1.00  0.00     0.055 A 
HETATM   10  C17 UNL     1      26.726   1.750  52.439  1.00  0.00     0.102 A 
ENDROOT
BRANCH   7  11
HETATM   11  N2  UNL     1      22.595   1.470  53.087  1.00  0.00    -0.355 N 
HETATM   12  H7  UNL     1      22.083   2.165  53.676  1.00  0.00     0.166 HD
BRANCH  11  13
HETATM   13  C9  UNL     1      22.313   1.442  51.692  1.00  0.00     0.034 A 
HETATM   14  C10 UNL     1      21.535   0.458  51.090  1.00  0.00     0.032 A 
HETATM   15  C11 UNL     1      21.276   0.451  49.732  1.00  0.00     0.046 A 
HETATM   16  C12 UNL     1      21.816   1.468  48.952  1.00  0.00     0.138 A 
HETATM   17  F1  UNL     1      21.569   1.468  47.638  1.00  0.00    -0.204 F 
HETATM   18  C13 UNL     1      22.583   2.451  49.498  1.00  0.00     0.074 A 
HETATM   19 CL1  UNL     1      23.283   3.755  48.539  1.00  0.00    -0.081 Cl
HETATM   20  C14 UNL     1      22.809   2.409  50.847  1.00  0.00     0.056 A 
ENDBRANCH  11  13
ENDBRANCH   7  11
BRANCH   6  21
HETATM   21  C7  UNL     1      21.643  -0.630  54.738  1.00  0.00     0.179 C 
HETATM   22  O2  UNL     1      20.990  -1.724  54.829  1.00  0.00    -0.646 OA
BRANCH  21  23
HETATM   23  O3  UNL     1      20.649   0.306  54.990  1.00  0.00    -0.773 OA
HETATM   24  H6  UNL     1      19.819   0.101  55.539  1.00  0.00     0.167 HD
ENDBRANCH  21  23
ENDBRANCH   6  21
BRANCH  10  25
HETATM   25  O4  UNL     1      27.290   2.741  51.648  1.00  0.00    -0.353 OA
HETATM   26  C18 UNL     1      26.577   3.186  50.519  1.00  0.00     0.210 C 
ENDBRANCH  10  25
BRANCH   1  27
HETATM   27  O1  UNL     1      28.918   0.904  52.830  1.00  0.00    -0.353 OA
HETATM   28  C1  UNL     1      29.811   0.159  53.647  1.00  0.00     0.210 C 
ENDBRANCH   1  27
TORSDOF 6
ENDMDL
MODEL 4
REMARK VINA RESULT:      -8.0      3.684      6.296
REMARK  6 active torsions:
REMARK  status: ('A' for Active; 'I' for Inactive)
REMARK    1  A    between atoms: O1_2  and  C2_3 
REMARK    2  A    between atoms: C6_8  and  C7_9 
REMARK    3  A    between atoms: C7_9  and  O3_11 
REMARK    4  A    between atoms: C8_12  and  N2_13 
REMARK    5  A    between atoms: N2_13  and  C9_14 
REMARK    6  A    between atoms: C17_24  and  O4_25 
ROOT
HETATM    1  C2  UNL     1      26.566   0.100  54.062  1.00  0.00     0.103 A 
HETATM    2  C3  UNL     1      25.441  -0.638  53.747  1.00  0.00     0.072 A 
HETATM    3  C4  UNL     1      24.289  -0.005  53.332  1.00  0.00     0.071 A 
HETATM    4  N1  UNL     1      23.186  -0.712  53.021  1.00  0.00    -0.259 NA
HETATM    5  C5  UNL     1      22.081  -0.045  52.620  1.00  0.00     0.138 A 
HETATM    6  C6  UNL     1      22.102   1.318  52.537  1.00  0.00     0.082 A 
HETATM    7  C8  UNL     1      23.224   2.059  52.852  1.00  0.00     0.064 A 
HETATM    8  C15 UNL     1      24.342   1.363  53.260  1.00  0.00     0.023 A 
HETATM    9  C16 UNL     1      25.447   2.133  53.567  1.00  0.00     0.055 A 
HETATM   10  C17 UNL     1      26.594   1.479  53.981  1.00  0.00     0.102 A 
ENDROOT
BRANCH   7  11
HETATM   11  N2  UNL     1      23.124   3.469  52.728  1.00  0.00    -0.355 N 
HETATM   12  H7  UNL     1      22.712   4.059  53.487  1.00  0.00     0.166 HD
BRANCH  11  13
HETATM   13  C9  UNL     1      23.588   4.123  51.552  1.00  0.00     0.034 A 
HETATM   14  C10 UNL     1      23.903   3.447  50.377  1.00  0.00     0.032 A 
HETATM   15  C11 UNL     1      24.352   4.103  49.246  1.00  0.00     0.046 A 
HETATM   16  C12 UNL     1      24.488   5.488  49.297  1.00  0.00     0.138 A 
HETATM   17  F1  UNL     1      24.922   6.129  48.208  1.00  0.00    -0.204 F 
HETATM   18  C13 UNL     1      24.192   6.189  50.425  1.00  0.00     0.074 A 
HETATM   19 CL1  UNL     1      24.352   7.943  50.524  1.00  0.00    -0.081 Cl
HETATM   20  C14 UNL     1      23.752   5.489  51.515  1.00  0.00     0.056 A 
ENDBRANCH  11  13
ENDBRANCH   7  11
BRANCH   6  21
HETATM   21  C7  UNL     1      20.845   1.905  52.093  1.00  0.00     0.179 C 
HETATM   22  O2  UNL     1      20.158   1.619  51.055  1.00  0.00    -0.646 OA
BRANCH  21  23
HETATM   23  O3  UNL     1      20.077   2.908  52.665  1.00  0.00    -0.773 OA
HETATM   24  H6  UNL     1      19.187   3.216  52.282  1.00  0.00     0.167 HD
ENDBRANCH  21  23
ENDBRANCH   6  21
BRANCH  10  25
HETATM   25  O4  UNL     1      27.760   2.154  54.314  1.00  0.00    -0.353 OA
HETATM   26  C18 UNL     1      28.646   2.516  53.282  1.00  0.00     0.210 C 
ENDBRANCH  10  25
BRANCH   1  27
HETATM   27  O1  UNL     1      27.712  -0.564  54.476  1.00  0.00    -0.353 OA
HETATM   28  C1  UNL     1      28.576  -1.155  53.514  1.00  0.00     0.210 C 
ENDBRANCH   1  27
TORSDOF 6
ENDMDL
MODEL 5
REMARK VINA RESULT:      -7.8      3.944      6.515
REMARK  6 active torsions:
REMARK  status: ('A' for Active; 'I' for Inactive)
REMARK    1  A    between atoms: O1_2  and  C2_3 
REMARK    2  A    between atoms: C6_8  and  C7_9 
REMARK    3  A    between atoms: C7_9  and  O3_11 
REMARK    4  A    between atoms: C8_12  and  N2_13 
REMARK    5  A    between atoms: N2_13  and  C9_14 
REMARK    6  A    between atoms: C17_24  and  O4_25 
ROOT
HETATM    1  C2  UNL     1      26.483   0.858  54.153  1.00  0.00     0.103 A 
HETATM    2  C3  UNL     1      26.066   2.172  54.053  1.00  0.00     0.072 A 
HETATM    3  C4  UNL     1      24.933   2.487  53.332  1.00  0.00     0.071 A 
HETATM    4  N1  UNL     1      24.516   3.763  53.226  1.00  0.00    -0.259 NA
HETATM    5  C5  UNL     1      23.400   4.021  52.508  1.00  0.00     0.138 A 
HETATM    6  C6  UNL     1      22.724   2.997  51.911  1.00  0.00     0.082 A 
HETATM    7  C8  UNL     1      23.137   1.683  52.008  1.00  0.00     0.064 A 
HETATM    8  C15 UNL     1      24.277   1.436  52.744  1.00  0.00     0.023 A 
HETATM    9  C16 UNL     1      24.664   0.113  52.823  1.00  0.00     0.055 A 
HETATM   10  C17 UNL     1      25.803  -0.184  53.551  1.00  0.00     0.102 A 
ENDROOT
BRANCH   7  11
HETATM   11  N2  UNL     1      22.353   0.705  51.344  1.00  0.00    -0.355 N 
HETATM   12  H7  UNL     1      22.627   0.325  50.409  1.00  0.00     0.166 HD
BRANCH  11  13
HETATM   13  C9  UNL     1      21.158   0.214  51.940  1.00  0.00     0.034 A 
HETATM   14  C10 UNL     1      21.119  -0.369  53.203  1.00  0.00     0.032 A 
HETATM   15  C11 UNL     1      19.946  -0.841  53.762  1.00  0.00     0.046 A 
HETATM   16  C12 UNL     1      18.770  -0.721  53.027  1.00  0.00     0.138 A 
HETATM   17  F1  UNL     1      17.632  -1.175  53.561  1.00  0.00    -0.204 F 
HETATM   18  C13 UNL     1      18.761  -0.158  51.787  1.00  0.00     0.074 A 
HETATM   19 CL1  UNL     1      17.291   0.009  50.829  1.00  0.00    -0.081 Cl
HETATM   20  C14 UNL     1      19.951   0.291  51.282  1.00  0.00     0.056 A 
ENDBRANCH  11  13
ENDBRANCH   7  11
BRANCH   6  21
HETATM   21  C7  UNL     1      21.542   3.418  51.171  1.00  0.00     0.179 C 
HETATM   22  O2  UNL     1      21.321   3.338  49.916  1.00  0.00    -0.646 OA
BRANCH  21  23
HETATM   23  O3  UNL     1      20.369   4.006  51.621  1.00  0.00    -0.773 OA
HETATM   24  H6  UNL     1      20.008   4.881  51.252  1.00  0.00     0.167 HD
ENDBRANCH  21  23
ENDBRANCH   6  21
BRANCH  10  25
HETATM   25  O4  UNL     1      26.282  -1.479  53.695  1.00  0.00    -0.353 OA
HETATM   26  C18 UNL     1      27.041  -2.034  52.647  1.00  0.00     0.210 C 
ENDBRANCH  10  25
BRANCH   1  27
HETATM   27  O1  UNL     1      27.626   0.569  54.886  1.00  0.00    -0.353 OA
HETATM   28  C1  UNL     1      28.908   0.862  54.344  1.00  0.00     0.210 C 
ENDBRANCH   1  27
TORSDOF 6
ENDMDL
MODEL 6
REMARK VINA RESULT:      -7.7      3.732      6.047
REMARK  6 active torsions:
REMARK  status: ('A' for Active; 'I' for Inactive)
REMARK    1  A    between atoms: O1_2  and  C2_3 
REMARK    2  A    between atoms: C6_8  and  C7_9 
REMARK    3  A    between atoms: C7_9  and  O3_11 
REMARK    4  A    between atoms: C8_12  and  N2_13 
REMARK    5  A    between atoms: N2_13  and  C9_14 
REMARK    6  A    between atoms: C17_24  and  O4_25 
ROOT
HETATM    1  C2  UNL     1      27.349  -0.003  53.707  1.00  0.00     0.103 A 
HETATM    2  C3  UNL     1      27.681   0.806  52.638  1.00  0.00     0.072 A 
HETATM    3  C4  UNL     1      26.764   1.705  52.136  1.00  0.00     0.071 A 
HETATM    4  N1  UNL     1      27.074   2.499  51.094  1.00  0.00    -0.259 NA
HETATM    5  C5  UNL     1      26.141   3.364  50.639  1.00  0.00     0.138 A 
HETATM    6  C6  UNL     1      24.914   3.416  51.236  1.00  0.00     0.082 A 
HETATM    7  C8  UNL     1      24.577   2.609  52.305  1.00  0.00     0.064 A 
HETATM    8  C15 UNL     1      25.541   1.733  52.757  1.00  0.00     0.023 A 
HETATM    9  C16 UNL     1      25.174   0.941  53.827  1.00  0.00     0.055 A 
HETATM   10  C17 UNL     1      26.109   0.045  54.317  1.00  0.00     0.102 A 
ENDROOT
BRANCH   7  11
HETATM   11  N2  UNL     1      23.272   2.754  52.840  1.00  0.00    -0.355 N 
HETATM   12  H7  UNL     1      23.090   3.332  53.692  1.00  0.00     0.166 HD
BRANCH  11  13
HETATM   13  C9  UNL     1      22.165   2.107  52.224  1.00  0.00     0.034 A 
HETATM   14  C10 UNL     1      22.243   0.842  51.651  1.00  0.00     0.032 A 
HETATM   15  C11 UNL     1      21.153   0.232  51.057  1.00  0.00     0.046 A 
HETATM   16  C12 UNL     1      19.942   0.919  51.039  1.00  0.00     0.138 A 
HETATM   17  F1  UNL     1      18.885   0.336  50.466  1.00  0.00    -0.204 F 
HETATM   18  C13 UNL     1      19.820   2.159  51.587  1.00  0.00     0.074 A 
HETATM   19 CL1  UNL     1      18.302   3.056  51.581  1.00  0.00    -0.081 Cl
HETATM   20  C14 UNL     1      20.930   2.714  52.161  1.00  0.00     0.056 A 
ENDBRANCH  11  13
ENDBRANCH   7  11
BRANCH   6  21
HETATM   21  C7  UNL     1      24.007   4.391  50.643  1.00  0.00     0.179 C 
HETATM   22  O2  UNL     1      23.649   4.503  49.423  1.00  0.00    -0.646 OA
BRANCH  21  23
HETATM   23  O3  UNL     1      23.308   5.434  51.234  1.00  0.00    -0.773 OA
HETATM   24  H6  UNL     1      22.470   5.296  51.792  1.00  0.00     0.167 HD
ENDBRANCH  21  23
ENDBRANCH   6  21
BRANCH  10  25
HETATM   25  O4  UNL     1      25.846  -0.799  55.387  1.00  0.00    -0.353 OA
HETATM   26  C18 UNL     1      24.530  -1.268  55.564  1.00  0.00     0.210 C 
ENDBRANCH  10  25
BRANCH   1  27
HETATM   27  O1  UNL     1      28.292  -0.899  54.192  1.00  0.00    -0.353 OA
HETATM   28  C1  UNL     1      29.660  -0.752  53.833  1.00  0.00     0.210 C 
ENDBRANCH   1  27
TORSDOF 6
ENDMDL
MODEL 7
REMARK VINA RESULT:      -7.7      3.584      6.623
REMARK  6 active torsions:
REMARK  status: ('A' for Active; 'I' for Inactive)
REMARK    1  A    between atoms: O1_2  and  C2_3 
REMARK    2  A    between atoms: C6_8  and  C7_9 
REMARK    3  A    between atoms: C7_9  and  O3_11 
REMARK    4  A    between atoms: C8_12  and  N2_13 
REMARK    5  A    between atoms: N2_13  and  C9_14 
REMARK    6  A    between atoms: C17_24  and  O4_25 
ROOT
HETATM    1  C2  UNL     1      26.459  -0.254  53.606  1.00  0.00     0.103 A 
HETATM    2  C3  UNL     1      25.274  -0.847  53.996  1.00  0.00     0.072 A 
HETATM    3  C4  UNL     1      24.067  -0.252  53.695  1.00  0.00     0.071 A 
HETATM    4  N1  UNL     1      22.905  -0.820  54.069  1.00  0.00    -0.259 NA
HETATM    5  C5  UNL     1      21.749  -0.196  53.752  1.00  0.00     0.138 A 
HETATM    6  C6  UNL     1      21.779   0.984  53.065  1.00  0.00     0.082 A 
HETATM    7  C8  UNL     1      22.961   1.581  52.674  1.00  0.00     0.064 A 
HETATM    8  C15 UNL     1      24.132   0.932  53.006  1.00  0.00     0.023 A 
HETATM    9  C16 UNL     1      25.296   1.554  52.601  1.00  0.00     0.055 A 
HETATM   10  C17 UNL     1      26.497   0.940  52.911  1.00  0.00     0.102 A 
ENDROOT
BRANCH   7  11
HETATM   11  N2  UNL     1      22.865   2.807  51.967  1.00  0.00    -0.355 N 
HETATM   12  H7  UNL     1      22.913   3.729  52.458  1.00  0.00     0.166 HD
BRANCH  11  13
HETATM   13  C9  UNL     1      22.696   2.812  50.554  1.00  0.00     0.034 A 
HETATM   14  C10 UNL     1      22.324   1.686  49.826  1.00  0.00     0.032 A 
HETATM   15  C11 UNL     1      22.167   1.714  48.453  1.00  0.00     0.046 A 
HETATM   16  C12 UNL     1      22.391   2.916  47.788  1.00  0.00     0.138 A 
HETATM   17  F1  UNL     1      22.241   2.951  46.460  1.00  0.00    -0.204 F 
HETATM   18  C13 UNL     1      22.757   4.042  48.459  1.00  0.00     0.074 A 
HETATM   19 CL1  UNL     1      23.048   5.580  47.648  1.00  0.00    -0.081 Cl
HETATM   20  C14 UNL     1      22.898   3.957  49.817  1.00  0.00     0.056 A 
ENDBRANCH  11  13
ENDBRANCH   7  11
BRANCH   6  21
HETATM   21  C7  UNL     1      20.462   1.544  52.791  1.00  0.00     0.179 C 
HETATM   22  O2  UNL     1      20.068   2.751  52.930  1.00  0.00    -0.646 OA
BRANCH  21  23
HETATM   23  O3  UNL     1      19.311   0.930  52.318  1.00  0.00    -0.773 OA
HETATM   24  H6  UNL     1      18.677   1.371  51.658  1.00  0.00     0.167 HD
ENDBRANCH  21  23
ENDBRANCH   6  21
BRANCH  10  25
HETATM   25  O4  UNL     1      27.725   1.478  52.553  1.00  0.00    -0.353 OA
HETATM   26  C18 UNL     1      28.333   2.403  53.424  1.00  0.00     0.210 C 
ENDBRANCH  10  25
BRANCH   1  27
HETATM   27  O1  UNL     1      27.659  -0.876  53.921  1.00  0.00    -0.353 OA
HETATM   28  C1  UNL     1      28.180  -1.886  53.066  1.00  0.00     0.210 C 
ENDBRANCH   1  27
TORSDOF 6
ENDMDL
MODEL 8
REMARK VINA RESULT:      -7.6      3.527      6.825
REMARK  6 active torsions:
REMARK  status: ('A' for Active; 'I' for Inactive)
REMARK    1  A    between atoms: O1_2  and  C2_3 
REMARK    2  A    between atoms: C6_8  and  C7_9 
REMARK    3  A    between atoms: C7_9  and  O3_11 
REMARK    4  A    between atoms: C8_12  and  N2_13 
REMARK    5  A    between atoms: N2_13  and  C9_14 
REMARK    6  A    between atoms: C17_24  and  O4_25 
ROOT
HETATM    1  C2  UNL     1      26.039  -0.457  53.904  1.00  0.00     0.103 A 
HETATM    2  C3  UNL     1      25.054  -0.936  54.747  1.00  0.00     0.072 A 
HETATM    3  C4  UNL     1      23.725  -0.818  54.399  1.00  0.00     0.071 A 
HETATM    4  N1  UNL     1      22.755  -1.281  55.211  1.00  0.00    -0.259 NA
HETATM    5  C5  UNL     1      21.467  -1.141  54.826  1.00  0.00     0.138 A 
HETATM    6  C6  UNL     1      21.175  -0.541  53.635  1.00  0.00     0.082 A 
HETATM    7  C8  UNL     1      22.156  -0.060  52.790  1.00  0.00     0.064 A 
HETATM    8  C15 UNL     1      23.465  -0.210  53.198  1.00  0.00     0.023 A 
HETATM    9  C16 UNL     1      24.421   0.280  52.331  1.00  0.00     0.055 A 
HETATM   10  C17 UNL     1      25.750   0.152  52.697  1.00  0.00     0.102 A 
ENDROOT
BRANCH   7  11
HETATM   11  N2  UNL     1      21.729   0.546  51.580  1.00  0.00    -0.355 N 
HETATM   12  H7  UNL     1      21.302  -0.014  50.808  1.00  0.00     0.166 HD
BRANCH  11  13
HETATM   13  C9  UNL     1      21.876   1.948  51.386  1.00  0.00     0.034 A 
HETATM   14  C10 UNL     1      21.576   2.890  52.365  1.00  0.00     0.032 A 
HETATM   15  C11 UNL     1      21.726   4.247  52.153  1.00  0.00     0.046 A 
HETATM   16  C12 UNL     1      22.196   4.674  50.914  1.00  0.00     0.138 A 
HETATM   17  F1  UNL     1      22.344   5.985  50.702  1.00  0.00    -0.204 F 
HETATM   18  C13 UNL     1      22.501   3.788  49.927  1.00  0.00     0.074 A 
HETATM   19 CL1  UNL     1      23.098   4.293  48.346  1.00  0.00    -0.081 Cl
HETATM   20  C14 UNL     1      22.334   2.456  50.190  1.00  0.00     0.056 A 
ENDBRANCH  11  13
ENDBRANCH   7  11
BRANCH   6  21
HETATM   21  C7  UNL     1      19.750  -0.457  53.347  1.00  0.00     0.179 C 
HETATM   22  O2  UNL     1      19.135   0.394  52.619  1.00  0.00    -0.646 OA
BRANCH  21  23
HETATM   23  O3  UNL     1      18.703  -1.259  53.778  1.00  0.00    -0.773 OA
HETATM   24  H6  UNL     1      18.689  -2.268  53.657  1.00  0.00     0.167 HD
ENDBRANCH  21  23
ENDBRANCH   6  21
BRANCH  10  25
HETATM   25  O4  UNL     1      26.792   0.610  51.903  1.00  0.00    -0.353 OA
HETATM   26  C18 UNL     1      26.829   1.977  51.567  1.00  0.00     0.210 C 
ENDBRANCH  10  25
BRANCH   1  27
HETATM   27  O1  UNL     1      27.368  -0.590  54.279  1.00  0.00    -0.353 OA
HETATM   28  C1  UNL     1      28.031   0.484  54.934  1.00  0.00     0.210 C 
ENDBRANCH   1  27
TORSDOF 6
ENDMDL
MODEL 9
REMARK VINA RESULT:      -7.4      3.670      5.604
REMARK  6 active torsions:
REMARK  status: ('A' for Active; 'I' for Inactive)
REMARK    1  A    between atoms: O1_2  and  C2_3 
REMARK    2  A    between atoms: C6_8  and  C7_9 
REMARK    3  A    between atoms: C7_9  and  O3_11 
REMARK    4  A    between atoms: C8_12  and  N2_13 
REMARK    5  A    between atoms: N2_13  and  C9_14 
REMARK    6  A    between atoms: C17_24  and  O4_25 
ROOT
HETATM    1  C2  UNL     1      22.954  -0.135  53.476  1.00  0.00     0.103 A 
HETATM    2  C3  UNL     1      24.307  -0.088  53.202  1.00  0.00     0.072 A 
HETATM    3  C4  UNL     1      24.822   0.919  52.413  1.00  0.00     0.071 A 
HETATM    4  N1  UNL     1      26.139   0.976  52.139  1.00  0.00    -0.259 NA
HETATM    5  C5  UNL     1      26.595   1.982  51.359  1.00  0.00     0.138 A 
HETATM    6  C6  UNL     1      25.723   2.912  50.870  1.00  0.00     0.082 A 
HETATM    7  C8  UNL     1      24.369   2.869  51.141  1.00  0.00     0.064 A 
HETATM    8  C15 UNL     1      23.921   1.836  51.937  1.00  0.00     0.023 A 
HETATM    9  C16 UNL     1      22.563   1.821  52.189  1.00  0.00     0.055 A 
HETATM   10  C17 UNL     1      22.065   0.803  52.984  1.00  0.00     0.102 A 
ENDROOT
BRANCH   7  11
HETATM   11  N2  UNL     1      23.562   3.890  50.576  1.00  0.00    -0.355 N 
HETATM   12  H7  UNL     1      23.314   4.753  51.112  1.00  0.00     0.166 HD
BRANCH  11  13
HETATM   13  C9  UNL     1      23.064   3.762  49.249  1.00  0.00     0.034 A 
HETATM   14  C10 UNL     1      22.758   2.538  48.663  1.00  0.00     0.032 A 
HETATM   15  C11 UNL     1      22.276   2.439  47.371  1.00  0.00     0.046 A 
HETATM   16  C12 UNL     1      22.093   3.611  46.643  1.00  0.00     0.138 A 
HETATM   17  F1  UNL     1      21.627   3.522  45.394  1.00  0.00    -0.204 F 
HETATM   18  C13 UNL     1      22.380   4.830  47.176  1.00  0.00     0.074 A 
HETATM   19 CL1  UNL     1      22.160   6.334  46.282  1.00  0.00    -0.081 Cl
HETATM   20  C14 UNL     1      22.855   4.870  48.458  1.00  0.00     0.056 A 
ENDBRANCH  11  13
ENDBRANCH   7  11
BRANCH   6  21
HETATM   21  C7  UNL     1      26.349   3.937  50.047  1.00  0.00     0.179 C 
HETATM   22  O2  UNL     1      27.194   3.791  49.101  1.00  0.00    -0.646 OA
BRANCH  21  23
HETATM   23  O3  UNL     1      26.197   5.317  50.071  1.00  0.00    -0.773 OA
HETATM   24  H6  UNL     1      26.963   5.963  49.902  1.00  0.00     0.167 HD
ENDBRANCH  21  23
ENDBRANCH   6  21
BRANCH  10  25
HETATM   25  O4  UNL     1      20.719   0.692  53.300  1.00  0.00    -0.353 OA
HETATM   26  C18 UNL     1      19.769   0.969  52.298  1.00  0.00     0.210 C 
ENDBRANCH  10  25
BRANCH   1  27
HETATM   27  O1  UNL     1      22.464  -1.159  54.274  1.00  0.00    -0.353 OA
HETATM   28  C1  UNL     1      23.075  -1.436  55.527  1.00  0.00     0.210 C 
ENDBRANCH   1  27
TORSDOF 6
ENDMDL
