MODEL 1
REMARK VINA RESULT:      -7.4      0.000      0.000
REMARK  5 active torsions:
REMARK  status: ('A' for Active; 'I' for Inactive)
REMARK    1  A    between atoms: C3_3  and  O1_4 
REMARK    2  A    between atoms: O1_4  and  C4_5 
REMARK    3  A    between atoms: C4_5  and  C5_6 
REMARK    4  A    between atoms: C5_6  and  C6_7 
REMARK    5  A    between atoms: C6_7  and  N1_8 
ROOT
HETATM    1  C1  UNL     1      23.719   1.896  51.433  1.00  0.00    -0.005 C 
HETATM    2  C2  UNL     1      24.911   2.314  51.036  1.00  0.00     0.037 C 
HETATM    3  C3  UNL     1      26.220   2.196  51.632  1.00  0.00     0.104 C 
HETATM    4  C11 UNL     1      26.957   1.667  52.582  1.00  0.00     0.135 C 
HETATM    5  O3  UNL     1      28.317   2.007  52.681  1.00  0.00    -0.344 OA
HETATM    6  C12 UNL     1      28.943   2.236  53.941  1.00  0.00     0.202 C 
HETATM    7  C13 UNL     1      29.036   0.886  54.613  1.00  0.00     0.202 C 
HETATM    8  O4  UNL     1      27.777   0.277  54.538  1.00  0.00    -0.346 OA
HETATM    9  C14 UNL     1      26.810   0.688  53.676  1.00  0.00     0.106 C 
HETATM   10  C15 UNL     1      25.810  -0.061  54.126  1.00  0.00     0.058 C 
HETATM   11  C16 UNL     1      24.441  -0.513  54.083  1.00  0.00     0.277 C 
HETATM   12  N2  UNL     1      23.535   0.133  53.383  1.00  0.00    -0.418 NA
HETATM   13  C17 UNL     1      23.791   1.279  52.681  1.00  0.00     0.135 C 
ENDROOT
BRANCH   3  14
HETATM   14  O1  UNL     1      26.934   3.031  50.756  1.00  0.00    -0.348 OA
BRANCH  14  15
HETATM   15  C4  UNL     1      26.305   3.822  49.773  1.00  0.00     0.177 C 
BRANCH  15  16
HETATM   16  C5  UNL     1      27.356   4.505  48.886  1.00  0.00     0.057 C 
BRANCH  16  17
HETATM   17  C6  UNL     1      26.944   5.937  48.740  1.00  0.00     0.274 C 
BRANCH  17  18
HETATM   18  N1  UNL     1      27.922   6.782  48.098  1.00  0.00     0.092 N 
HETATM   19  C7  UNL     1      29.178   6.094  47.873  1.00  0.00     0.298 C 
HETATM   20  C8  UNL     1      30.299   6.630  48.704  1.00  0.00     0.198 C 
HETATM   21  O2  UNL     1      30.446   8.001  48.676  1.00  0.00    -0.388 OA
HETATM   22  C9  UNL     1      29.365   8.655  48.106  1.00  0.00     0.198 C 
HETATM   23  C10 UNL     1      28.083   8.066  48.706  1.00  0.00     0.298 C 
ENDBRANCH  17  18
ENDBRANCH  16  17
ENDBRANCH  15  16
ENDBRANCH  14  15
ENDBRANCH   3  14
TORSDOF 5
ENDMDL
MODEL 2
REMARK VINA RESULT:      -7.3      2.268      3.278
REMARK  5 active torsions:
REMARK  status: ('A' for Active; 'I' for Inactive)
REMARK    1  A    between atoms: C3_3  and  O1_4 
REMARK    2  A    between atoms: O1_4  and  C4_5 
REMARK    3  A    between atoms: C4_5  and  C5_6 
REMARK    4  A    between atoms: C5_6  and  C6_7 
REMARK    5  A    between atoms: C6_7  and  N1_8 
ROOT
HETATM    1  C1  UNL     1      23.694   1.812  51.619  1.00  0.00    -0.005 C 
HETATM    2  C2  UNL     1      24.898   2.167  51.198  1.00  0.00     0.037 C 
HETATM    3  C3  UNL     1      26.213   1.942  51.746  1.00  0.00     0.104 C 
HETATM    4  C11 UNL     1      26.942   1.331  52.652  1.00  0.00     0.135 C 
HETATM    5  O3  UNL     1      28.324   1.578  52.719  1.00  0.00    -0.344 OA
HETATM    6  C12 UNL     1      29.002   1.718  53.965  1.00  0.00     0.202 C 
HETATM    7  C13 UNL     1      29.026   0.341  54.586  1.00  0.00     0.202 C 
HETATM    8  O4  UNL     1      27.727  -0.181  54.530  1.00  0.00    -0.346 OA
HETATM    9  C14 UNL     1      26.764   0.323  53.716  1.00  0.00     0.106 C 
HETATM   10  C15 UNL     1      25.731  -0.375  54.171  1.00  0.00     0.058 C 
HETATM   11  C16 UNL     1      24.335  -0.735  54.158  1.00  0.00     0.277 C 
HETATM   12  N2  UNL     1      23.453  -0.006  53.511  1.00  0.00    -0.418 NA
HETATM   13  C17 UNL     1      23.762   1.147  52.841  1.00  0.00     0.135 C 
ENDROOT
BRANCH   3  14
HETATM   14  O1  UNL     1      26.954   2.760  50.878  1.00  0.00    -0.348 OA
BRANCH  14  15
HETATM   15  C4  UNL     1      26.473   3.168  49.617  1.00  0.00     0.177 C 
BRANCH  15  16
HETATM   16  C5  UNL     1      27.142   4.482  49.190  1.00  0.00     0.057 C 
BRANCH  16  17
HETATM   17  C6  UNL     1      26.046   5.439  48.834  1.00  0.00     0.274 C 
BRANCH  17  18
HETATM   18  N1  UNL     1      24.828   5.265  49.588  1.00  0.00     0.092 N 
HETATM   19  C7  UNL     1      23.656   5.232  48.736  1.00  0.00     0.298 C 
HETATM   20  C8  UNL     1      22.764   6.418  48.916  1.00  0.00     0.198 C 
HETATM   21  O2  UNL     1      22.447   6.720  50.223  1.00  0.00    -0.388 OA
HETATM   22  C9  UNL     1      23.228   6.043  51.146  1.00  0.00     0.198 C 
HETATM   23  C10 UNL     1      24.692   6.152  50.701  1.00  0.00     0.298 C 
ENDBRANCH  17  18
ENDBRANCH  16  17
ENDBRANCH  15  16
ENDBRANCH  14  15
ENDBRANCH   3  14
TORSDOF 5
ENDMDL
MODEL 3
REMARK VINA RESULT:      -7.3      3.702      7.206
REMARK  5 active torsions:
REMARK  status: ('A' for Active; 'I' for Inactive)
REMARK    1  A    between atoms: C3_3  and  O1_4 
REMARK    2  A    between atoms: O1_4  and  C4_5 
REMARK    3  A    between atoms: C4_5  and  C5_6 
REMARK    4  A    between atoms: C5_6  and  C6_7 
REMARK    5  A    between atoms: C6_7  and  N1_8 
ROOT
HETATM    1  C1  UNL     1      25.740  -0.559  55.138  1.00  0.00    -0.005 C 
HETATM    2  C2  UNL     1      24.840  -0.432  54.175  1.00  0.00     0.037 C 
HETATM    3  C3  UNL     1      24.777   0.437  53.025  1.00  0.00     0.104 C 
HETATM    4  C11 UNL     1      25.393   1.322  52.275  1.00  0.00     0.135 C 
HETATM    5  O3  UNL     1      24.715   1.916  51.197  1.00  0.00    -0.344 OA
HETATM    6  C12 UNL     1      24.852   3.302  50.896  1.00  0.00     0.202 C 
HETATM    7  C13 UNL     1      26.254   3.477  50.358  1.00  0.00     0.202 C 
HETATM    8  O4  UNL     1      27.138   2.843  51.240  1.00  0.00    -0.346 OA
HETATM    9  C14 UNL     1      26.733   1.932  52.163  1.00  0.00     0.106 C 
HETATM   10  C15 UNL     1      27.875   1.796  52.825  1.00  0.00     0.058 C 
HETATM   11  C16 UNL     1      28.674   1.213  53.875  1.00  0.00     0.277 C 
HETATM   12  N2  UNL     1      28.117   0.543  54.859  1.00  0.00    -0.418 NA
HETATM   13  C17 UNL     1      26.766   0.373  54.995  1.00  0.00     0.135 C 
ENDROOT
BRANCH   3  14
HETATM   14  O1  UNL     1      23.473   0.138  52.597  1.00  0.00    -0.348 OA
BRANCH  14  15
HETATM   15  C4  UNL     1      22.333   0.393  53.386  1.00  0.00     0.177 C 
BRANCH  15  16
HETATM   16  C5  UNL     1      21.072  -0.137  52.688  1.00  0.00     0.057 C 
BRANCH  16  17
HETATM   17  C6  UNL     1      21.141   0.306  51.259  1.00  0.00     0.274 C 
BRANCH  17  18
HETATM   18  N1  UNL     1      20.242   1.382  50.919  1.00  0.00     0.092 N 
HETATM   19  C7  UNL     1      20.901   2.672  50.929  1.00  0.00     0.298 C 
HETATM   20  C8  UNL     1      20.427   3.567  52.028  1.00  0.00     0.198 C 
HETATM   21  O2  UNL     1      19.058   3.683  52.140  1.00  0.00    -0.388 OA
HETATM   22  C9  UNL     1      18.366   2.741  51.395  1.00  0.00     0.198 C 
HETATM   23  C10 UNL     1      19.010   1.372  51.645  1.00  0.00     0.298 C 
ENDBRANCH  17  18
ENDBRANCH  16  17
ENDBRANCH  15  16
ENDBRANCH  14  15
ENDBRANCH   3  14
TORSDOF 5
ENDMDL
MODEL 4
REMARK VINA RESULT:      -7.2      3.830      6.488
REMARK  5 active torsions:
REMARK  status: ('A' for Active; 'I' for Inactive)
REMARK    1  A    between atoms: C3_3  and  O1_4 
REMARK    2  A    between atoms: O1_4  and  C4_5 
REMARK    3  A    between atoms: C4_5  and  C5_6 
REMARK    4  A    between atoms: C5_6  and  C6_7 
REMARK    5  A    between atoms: C6_7  and  N1_8 
ROOT
HETATM    1  C1  UNL     1      20.790   0.732  53.094  1.00  0.00    -0.005 C 
HETATM    2  C2  UNL     1      22.105   0.648  52.971  1.00  0.00     0.037 C 
HETATM    3  C3  UNL     1      23.052   1.431  52.214  1.00  0.00     0.104 C 
HETATM    4  C11 UNL     1      23.263   2.494  51.473  1.00  0.00     0.135 C 
HETATM    5  O3  UNL     1      24.536   2.719  50.921  1.00  0.00    -0.344 OA
HETATM    6  C12 UNL     1      24.702   3.204  49.591  1.00  0.00     0.202 C 
HETATM    7  C13 UNL     1      24.248   4.645  49.612  1.00  0.00     0.202 C 
HETATM    8  O4  UNL     1      22.999   4.696  50.243  1.00  0.00    -0.346 OA
HETATM    9  C14 UNL     1      22.521   3.685  51.016  1.00  0.00     0.106 C 
HETATM   10  C15 UNL     1      21.288   4.141  51.201  1.00  0.00     0.058 C 
HETATM   11  C16 UNL     1      19.962   4.030  51.758  1.00  0.00     0.277 C 
HETATM   12  N2  UNL     1      19.535   2.897  52.270  1.00  0.00    -0.418 NA
HETATM   13  C17 UNL     1      20.271   1.744  52.289  1.00  0.00     0.135 C 
ENDROOT
BRANCH   3  14
HETATM   14  O1  UNL     1      24.198   0.645  52.420  1.00  0.00    -0.348 OA
BRANCH  14  15
HETATM   15  C4  UNL     1      24.396  -0.125  53.585  1.00  0.00     0.177 C 
BRANCH  15  16
HETATM   16  C5  UNL     1      25.787  -0.775  53.564  1.00  0.00     0.057 C 
BRANCH  16  17
HETATM   17  C6  UNL     1      26.500  -0.251  52.356  1.00  0.00     0.274 C 
BRANCH  17  18
HETATM   18  N1  UNL     1      27.687   0.516  52.644  1.00  0.00     0.092 N 
HETATM   19  C7  UNL     1      28.596  -0.189  53.525  1.00  0.00     0.298 C 
HETATM   20  C8  UNL     1      28.715   0.443  54.875  1.00  0.00     0.198 C 
HETATM   21  O2  UNL     1      28.948   1.801  54.868  1.00  0.00    -0.388 OA
HETATM   22  C9  UNL     1      28.758   2.383  53.625  1.00  0.00     0.198 C 
HETATM   23  C10 UNL     1      27.433   1.862  53.055  1.00  0.00     0.298 C 
ENDBRANCH  17  18
ENDBRANCH  16  17
ENDBRANCH  15  16
ENDBRANCH  14  15
ENDBRANCH   3  14
TORSDOF 5
ENDMDL
MODEL 5
REMARK VINA RESULT:      -7.1      1.782      2.247
REMARK  5 active torsions:
REMARK  status: ('A' for Active; 'I' for Inactive)
REMARK    1  A    between atoms: C3_3  and  O1_4 
REMARK    2  A    between atoms: O1_4  and  C4_5 
REMARK    3  A    between atoms: C4_5  and  C5_6 
REMARK    4  A    between atoms: C5_6  and  C6_7 
REMARK    5  A    between atoms: C6_7  and  N1_8 
ROOT
HETATM    1  C1  UNL     1      23.179   1.410  51.837  1.00  0.00    -0.005 C 
HETATM    2  C2  UNL     1      24.354   1.746  51.328  1.00  0.00     0.037 C 
HETATM    3  C3  UNL     1      25.699   1.581  51.822  1.00  0.00     0.104 C 
HETATM    4  C11 UNL     1      26.483   1.052  52.733  1.00  0.00     0.135 C 
HETATM    5  O3  UNL     1      27.862   1.321  52.708  1.00  0.00    -0.344 OA
HETATM    6  C12 UNL     1      28.601   1.567  53.902  1.00  0.00     0.202 C 
HETATM    7  C13 UNL     1      28.679   0.242  54.626  1.00  0.00     0.202 C 
HETATM    8  O4  UNL     1      27.389  -0.299  54.678  1.00  0.00    -0.346 OA
HETATM    9  C14 UNL     1      26.376   0.128  53.879  1.00  0.00     0.106 C 
HETATM   10  C15 UNL     1      25.380  -0.546  54.441  1.00  0.00     0.058 C 
HETATM   11  C16 UNL     1      23.991  -0.923  54.528  1.00  0.00     0.277 C 
HETATM   12  N2  UNL     1      23.065  -0.258  53.873  1.00  0.00    -0.418 NA
HETATM   13  C17 UNL     1      23.321   0.843  53.102  1.00  0.00     0.135 C 
ENDROOT
BRANCH   3  14
HETATM   14  O1  UNL     1      26.381   2.339  50.855  1.00  0.00    -0.348 OA
BRANCH  14  15
HETATM   15  C4  UNL     1      25.728   3.246  49.996  1.00  0.00     0.177 C 
BRANCH  15  16
HETATM   16  C5  UNL     1      26.750   4.170  49.319  1.00  0.00     0.057 C 
BRANCH  16  17
HETATM   17  C6  UNL     1      26.024   5.421  48.933  1.00  0.00     0.274 C 
BRANCH  17  18
HETATM   18  N1  UNL     1      26.297   6.560  49.777  1.00  0.00     0.092 N 
HETATM   19  C7  UNL     1      25.120   7.006  50.494  1.00  0.00     0.298 C 
HETATM   20  C8  UNL     1      24.633   8.347  50.047  1.00  0.00     0.198 C 
HETATM   21  O2  UNL     1      25.599   9.328  49.975  1.00  0.00    -0.388 OA
HETATM   22  C9  UNL     1      26.890   8.831  50.062  1.00  0.00     0.198 C 
HETATM   23  C10 UNL     1      26.998   7.622  49.125  1.00  0.00     0.298 C 
ENDBRANCH  17  18
ENDBRANCH  16  17
ENDBRANCH  15  16
ENDBRANCH  14  15
ENDBRANCH   3  14
TORSDOF 5
ENDMDL
MODEL 6
REMARK VINA RESULT:      -7.0      3.689      6.175
REMARK  5 active torsions:
REMARK  status: ('A' for Active; 'I' for Inactive)
REMARK    1  A    between atoms: C3_3  and  O1_4 
REMARK    2  A    between atoms: O1_4  and  C4_5 
REMARK    3  A    between atoms: C4_5  and  C5_6 
REMARK    4  A    between atoms: C5_6  and  C6_7 
REMARK    5  A    between atoms: C6_7  and  N1_8 
ROOT
HETATM    1  C1  UNL     1      25.144  -0.812  54.989  1.00  0.00    -0.005 C 
HETATM    2  C2  UNL     1      24.298  -0.471  54.029  1.00  0.00     0.037 C 
HETATM    3  C3  UNL     1      24.412   0.462  52.934  1.00  0.00     0.104 C 
HETATM    4  C11 UNL     1      25.189   1.265  52.244  1.00  0.00     0.135 C 
HETATM    5  O3  UNL     1      24.647   2.032  51.199  1.00  0.00    -0.344 OA
HETATM    6  C12 UNL     1      25.034   3.387  50.984  1.00  0.00     0.202 C 
HETATM    7  C13 UNL     1      26.454   3.341  50.469  1.00  0.00     0.202 C 
HETATM    8  O4  UNL     1      27.195   2.509  51.317  1.00  0.00    -0.346 OA
HETATM    9  C14 UNL     1      26.618   1.632  52.179  1.00  0.00     0.106 C 
HETATM   10  C15 UNL     1      27.705   1.256  52.841  1.00  0.00     0.058 C 
HETATM   11  C16 UNL     1      28.369   0.479  53.859  1.00  0.00     0.277 C 
HETATM   12  N2  UNL     1      27.683  -0.137  54.796  1.00  0.00    -0.418 NA
HETATM   13  C17 UNL     1      26.321  -0.072  54.911  1.00  0.00     0.135 C 
ENDROOT
BRANCH   3  14
HETATM   14  O1  UNL     1      23.084   0.425  52.478  1.00  0.00    -0.348 OA
BRANCH  14  15
HETATM   15  C4  UNL     1      21.984   0.254  53.343  1.00  0.00     0.177 C 
BRANCH  15  16
HETATM   16  C5  UNL     1      20.759   1.007  52.804  1.00  0.00     0.057 C 
BRANCH  16  17
HETATM   17  C6  UNL     1      21.093   1.451  51.414  1.00  0.00     0.274 C 
BRANCH  17  18
HETATM   18  N1  UNL     1      20.754   2.824  51.124  1.00  0.00     0.092 N 
HETATM   19  C7  UNL     1      20.758   3.101  49.702  1.00  0.00     0.298 C 
HETATM   20  C8  UNL     1      21.858   4.025  49.286  1.00  0.00     0.198 C 
HETATM   21  O2  UNL     1      21.974   5.173  50.039  1.00  0.00    -0.388 OA
HETATM   22  C9  UNL     1      21.235   5.137  51.210  1.00  0.00     0.198 C 
HETATM   23  C10 UNL     1      21.485   3.785  51.889  1.00  0.00     0.298 C 
ENDBRANCH  17  18
ENDBRANCH  16  17
ENDBRANCH  15  16
ENDBRANCH  14  15
ENDBRANCH   3  14
TORSDOF 5
ENDMDL
MODEL 7
REMARK VINA RESULT:      -7.0      3.873      4.551
REMARK  5 active torsions:
REMARK  status: ('A' for Active; 'I' for Inactive)
REMARK    1  A    between atoms: C3_3  and  O1_4 
REMARK    2  A    between atoms: O1_4  and  C4_5 
REMARK    3  A    between atoms: C4_5  and  C5_6 
REMARK    4  A    between atoms: C5_6  and  C6_7 
REMARK    5  A    between atoms: C6_7  and  N1_8 
ROOT
HETATM    1  C1  UNL     1      21.177   0.536  53.071  1.00  0.00    -0.005 C 
HETATM    2  C2  UNL     1      22.102   0.927  52.208  1.00  0.00     0.037 C 
HETATM    3  C3  UNL     1      23.543   0.902  52.266  1.00  0.00     0.104 C 
HETATM    4  C11 UNL     1      24.616   0.500  52.909  1.00  0.00     0.135 C 
HETATM    5  O3  UNL     1      25.889   0.874  52.445  1.00  0.00    -0.344 OA
HETATM    6  C12 UNL     1      26.930   1.258  53.339  1.00  0.00     0.202 C 
HETATM    7  C13 UNL     1      27.353  -0.003  54.056  1.00  0.00     0.202 C 
HETATM    8  O4  UNL     1      26.198  -0.639  54.530  1.00  0.00    -0.346 OA
HETATM    9  C14 UNL     1      24.954  -0.348  54.068  1.00  0.00     0.106 C 
HETATM   10  C15 UNL     1      24.247  -1.058  54.939  1.00  0.00     0.058 C 
HETATM   11  C16 UNL     1      22.994  -1.536  55.469  1.00  0.00     0.277 C 
HETATM   12  N2  UNL     1      21.853  -0.992  55.109  1.00  0.00    -0.418 NA
HETATM   13  C17 UNL     1      21.753   0.069  54.251  1.00  0.00     0.135 C 
ENDROOT
BRANCH   3  14
HETATM   14  O1  UNL     1      23.821   1.642  51.105  1.00  0.00    -0.348 OA
BRANCH  14  15
HETATM   15  C4  UNL     1      22.855   1.886  50.106  1.00  0.00     0.177 C 
BRANCH  15  16
HETATM   16  C5  UNL     1      23.373   2.932  49.108  1.00  0.00     0.057 C 
BRANCH  16  17
HETATM   17  C6  UNL     1      24.412   3.742  49.819  1.00  0.00     0.274 C 
BRANCH  17  18
HETATM   18  N1  UNL     1      23.947   5.017  50.311  1.00  0.00     0.092 N 
HETATM   19  C7  UNL     1      23.659   4.984  51.731  1.00  0.00     0.298 C 
HETATM   20  C8  UNL     1      22.204   5.131  52.040  1.00  0.00     0.198 C 
HETATM   21  O2  UNL     1      21.573   6.180  51.407  1.00  0.00    -0.388 OA
HETATM   22  C9  UNL     1      22.330   6.741  50.390  1.00  0.00     0.198 C 
HETATM   23  C10 UNL     1      22.897   5.600  49.536  1.00  0.00     0.298 C 
ENDBRANCH  17  18
ENDBRANCH  16  17
ENDBRANCH  15  16
ENDBRANCH  14  15
ENDBRANCH   3  14
TORSDOF 5
ENDMDL
MODEL 8
REMARK VINA RESULT:      -6.9      4.669      6.684
REMARK  5 active torsions:
REMARK  status: ('A' for Active; 'I' for Inactive)
REMARK    1  A    between atoms: C3_3  and  O1_4 
REMARK    2  A    between atoms: O1_4  and  C4_5 
REMARK    3  A    between atoms: C4_5  and  C5_6 
REMARK    4  A    between atoms: C5_6  and  C6_7 
REMARK    5  A    between atoms: C6_7  and  N1_8 
ROOT
HETATM    1  C1  UNL     1      19.594   1.114  50.785  1.00  0.00    -0.005 C 
HETATM    2  C2  UNL     1      20.913   1.014  50.821  1.00  0.00     0.037 C 
HETATM    3  C3  UNL     1      21.806   0.413  51.783  1.00  0.00     0.104 C 
HETATM    4  C11 UNL     1      21.931  -0.326  52.861  1.00  0.00     0.135 C 
HETATM    5  O3  UNL     1      23.205  -0.546  53.412  1.00  0.00    -0.344 OA
HETATM    6  C12 UNL     1      23.426  -0.533  54.821  1.00  0.00     0.202 C 
HETATM    7  C13 UNL     1      22.769  -1.783  55.358  1.00  0.00     0.202 C 
HETATM    8  O4  UNL     1      21.471  -1.849  54.836  1.00  0.00    -0.346 OA
HETATM    9  C14 UNL     1      21.072  -1.125  53.758  1.00  0.00     0.106 C 
HETATM   10  C15 UNL     1      19.775  -1.401  53.800  1.00  0.00     0.058 C 
HETATM   11  C16 UNL     1      18.432  -1.278  53.289  1.00  0.00     0.277 C 
HETATM   12  N2  UNL     1      18.124  -0.355  52.404  1.00  0.00    -0.418 NA
HETATM   13  C17 UNL     1      19.014   0.569  51.928  1.00  0.00     0.135 C 
ENDROOT
BRANCH   3  14
HETATM   14  O1  UNL     1      23.028   0.863  51.257  1.00  0.00    -0.348 OA
BRANCH  14  15
HETATM   15  C4  UNL     1      23.462   2.200  51.371  1.00  0.00     0.177 C 
BRANCH  15  16
HETATM   16  C5  UNL     1      24.995   2.266  51.357  1.00  0.00     0.057 C 
BRANCH  16  17
HETATM   17  C6  UNL     1      25.462   1.945  52.744  1.00  0.00     0.274 C 
BRANCH  17  18
HETATM   18  N1  UNL     1      26.679   1.171  52.804  1.00  0.00     0.092 N 
HETATM   19  C7  UNL     1      26.619  -0.011  51.969  1.00  0.00     0.298 C 
HETATM   20  C8  UNL     1      26.604  -1.284  52.751  1.00  0.00     0.198 C 
HETATM   21  O2  UNL     1      27.575  -1.386  53.724  1.00  0.00    -0.388 OA
HETATM   22  C9  UNL     1      28.213  -0.184  53.988  1.00  0.00     0.198 C 
HETATM   23  C10 UNL     1      27.139   0.902  54.131  1.00  0.00     0.298 C 
ENDBRANCH  17  18
ENDBRANCH  16  17
ENDBRANCH  15  16
ENDBRANCH  14  15
ENDBRANCH   3  14
TORSDOF 5
ENDMDL
MODEL 9
REMARK VINA RESULT:      -6.9      4.459      8.902
REMARK  5 active torsions:
REMARK  status: ('A' for Active; 'I' for Inactive)
REMARK    1  A    between atoms: C3_3  and  O1_4 
REMARK    2  A    between atoms: O1_4  and  C4_5 
REMARK    3  A    between atoms: C4_5  and  C5_6 
REMARK    4  A    between atoms: C5_6  and  C6_7 
REMARK    5  A    between atoms: C6_7  and  N1_8 
ROOT
HETATM    1  C1  UNL     1      25.163  -0.816  54.941  1.00  0.00    -0.005 C 
HETATM    2  C2  UNL     1      24.313  -0.497  53.977  1.00  0.00     0.037 C 
HETATM    3  C3  UNL     1      24.405   0.441  52.885  1.00  0.00     0.104 C 
HETATM    4  C11 UNL     1      25.162   1.269  52.201  1.00  0.00     0.135 C 
HETATM    5  O3  UNL     1      24.604   2.022  51.154  1.00  0.00    -0.344 OA
HETATM    6  C12 UNL     1      24.952   3.388  50.945  1.00  0.00     0.202 C 
HETATM    7  C13 UNL     1      26.376   3.384  50.437  1.00  0.00     0.202 C 
HETATM    8  O4  UNL     1      27.136   2.572  51.288  1.00  0.00    -0.346 OA
HETATM    9  C14 UNL     1      26.580   1.677  52.145  1.00  0.00     0.106 C 
HETATM   10  C15 UNL     1      27.674   1.331  52.811  1.00  0.00     0.058 C 
HETATM   11  C16 UNL     1      28.355   0.572  53.831  1.00  0.00     0.277 C 
HETATM   12  N2  UNL     1      27.683  -0.067  54.763  1.00  0.00    -0.418 NA
HETATM   13  C17 UNL     1      26.319  -0.041  54.871  1.00  0.00     0.135 C 
ENDROOT
BRANCH   3  14
HETATM   14  O1  UNL     1      23.081   0.367  52.422  1.00  0.00    -0.348 OA
BRANCH  14  15
HETATM   15  C4  UNL     1      21.978   0.789  53.192  1.00  0.00     0.177 C 
BRANCH  15  16
HETATM   16  C5  UNL     1      20.841  -0.239  53.102  1.00  0.00     0.057 C 
BRANCH  16  17
HETATM   17  C6  UNL     1      19.687   0.440  52.432  1.00  0.00     0.274 C 
BRANCH  17  18
HETATM   18  N1  UNL     1      18.590  -0.435  52.092  1.00  0.00     0.092 N 
HETATM   19  C7  UNL     1      17.609   0.218  51.250  1.00  0.00     0.298 C 
HETATM   20  C8  UNL     1      16.297   0.435  51.934  1.00  0.00     0.198 C 
HETATM   21  O2  UNL     1      15.779  -0.671  52.572  1.00  0.00    -0.388 OA
HETATM   22  C9  UNL     1      16.691  -1.707  52.700  1.00  0.00     0.198 C 
HETATM   23  C10 UNL     1      18.012  -1.116  53.209  1.00  0.00     0.298 C 
ENDBRANCH  17  18
ENDBRANCH  16  17
ENDBRANCH  15  16
ENDBRANCH  14  15
ENDBRANCH   3  14
TORSDOF 5
ENDMDL
