MODEL 1
REMARK VINA RESULT:      -9.3      0.000      0.000
REMARK  3 active torsions:
REMARK  status: ('A' for Active; 'I' for Inactive)
REMARK    1  A    between atoms: C2_2  and  O1_3 
REMARK    2  A    between atoms: O1_3  and  C3_4 
REMARK    3  A    between atoms: S1_17  and  C14_18 
ROOT
HETATM    1  C3  UNL     1      26.106   0.229  52.731  1.00  0.00     0.081 C 
HETATM    2  C4  UNL     1      25.332  -0.475  53.542  1.00  0.00     0.045 C 
HETATM    3  C5  UNL     1      23.945  -0.585  54.049  1.00  0.00    -0.043 C 
HETATM    4  C6  UNL     1      23.736  -1.442  55.216  1.00  0.00     0.049 C 
HETATM    5  C7  UNL     1      22.903   0.034  53.520  1.00  0.00     0.045 C 
HETATM    6  C8  UNL     1      21.646  -0.235  54.199  1.00  0.00     0.253 C 
HETATM    7  O2  UNL     1      21.432  -0.951  55.183  1.00  0.00    -0.268 OA
HETATM    8  N1  UNL     1      20.590   0.475  53.556  1.00  0.00    -0.353 N 
HETATM    9  C9  UNL     1      21.059   0.978  52.272  1.00  0.00     0.162 C 
HETATM   10  C10 UNL     1      22.537   0.942  52.438  1.00  0.00    -0.024 C 
HETATM   11  C11 UNL     1      23.277   1.698  51.626  1.00  0.00     0.018 C 
HETATM   12  C12 UNL     1      24.701   1.956  51.447  1.00  0.00    -0.034 A 
HETATM   13  C13 UNL     1      24.873   3.149  50.568  1.00  0.00     0.119 A 
HETATM   14  S1  UNL     1      26.599   3.560  50.279  1.00  0.00    -0.125 SA
HETATM   15  C20 UNL     1      25.786   1.369  51.888  1.00  0.00     0.018 A 
HETATM   16  O3  UNL     1      26.907   2.033  51.406  1.00  0.00     0.000 OA
HETATM   17  H10 UNL     1      19.617   0.675  53.832  1.00  0.00     0.163 HD
HETATM   18  H21 UNL     1      27.810   1.577  51.471  1.00  0.00     0.000 HD
ENDROOT
BRANCH  14  19
HETATM   19  C14 UNL     1      26.706   4.999  49.217  1.00  0.00     0.000 A 
HETATM   20  C15 UNL     1      27.837   5.440  48.559  1.00  0.00     0.018 A 
HETATM   21  C16 UNL     1      27.763   6.575  47.770  1.00  0.00     0.001 A 
HETATM   22  C17 UNL     1      26.575   7.291  47.617  1.00  0.00     0.000 A 
HETATM   23  C18 UNL     1      25.465   6.815  48.294  1.00  0.00     0.001 A 
HETATM   24  C19 UNL     1      25.529   5.691  49.078  1.00  0.00     0.018 A 
ENDBRANCH  14  19
BRANCH   1  25
HETATM   25  O1  UNL     1      27.423  -0.140  52.638  1.00  0.00    -0.351 OA
BRANCH  25  26
HETATM   26  C2  UNL     1      28.257  -0.353  53.755  1.00  0.00     0.171 C 
HETATM   27  C1  UNL     1      29.459  -1.190  53.307  1.00  0.00     0.034 C 
ENDBRANCH  25  26
ENDBRANCH   1  25
TORSDOF 3
ENDMDL
MODEL 2
REMARK VINA RESULT:      -9.0      1.310      1.666
REMARK  3 active torsions:
REMARK  status: ('A' for Active; 'I' for Inactive)
REMARK    1  A    between atoms: C2_2  and  O1_3 
REMARK    2  A    between atoms: O1_3  and  C3_4 
REMARK    3  A    between atoms: S1_17  and  C14_18 
ROOT
HETATM    1  C3  UNL     1      24.465   0.187  52.924  1.00  0.00     0.081 C 
HETATM    2  C4  UNL     1      23.431  -0.464  53.431  1.00  0.00     0.045 C 
HETATM    3  C5  UNL     1      21.953  -0.555  53.379  1.00  0.00    -0.043 C 
HETATM    4  C6  UNL     1      21.303  -1.324  54.441  1.00  0.00     0.049 C 
HETATM    5  C7  UNL     1      21.201   0.006  52.448  1.00  0.00     0.045 C 
HETATM    6  C8  UNL     1      19.776  -0.230  52.617  1.00  0.00     0.253 C 
HETATM    7  O2  UNL     1      19.193  -0.871  53.497  1.00  0.00    -0.268 OA
HETATM    8  N1  UNL     1      19.055   0.413  51.568  1.00  0.00    -0.353 N 
HETATM    9  C9  UNL     1      19.985   0.824  50.525  1.00  0.00     0.162 C 
HETATM   10  C10 UNL     1      21.288   0.823  51.242  1.00  0.00    -0.024 C 
HETATM   11  C11 UNL     1      22.293   1.525  50.718  1.00  0.00     0.018 C 
HETATM   12  C12 UNL     1      23.681   1.790  51.074  1.00  0.00    -0.034 A 
HETATM   13  C13 UNL     1      24.193   2.915  50.239  1.00  0.00     0.119 A 
HETATM   14  S1  UNL     1      25.906   3.328  50.598  1.00  0.00    -0.125 SA
HETATM   15  C20 UNL     1      24.508   1.255  51.938  1.00  0.00     0.018 A 
HETATM   16  O3  UNL     1      25.738   1.897  51.870  1.00  0.00     0.000 OA
HETATM   17  H10 UNL     1      18.053   0.620  51.437  1.00  0.00     0.163 HD
HETATM   18  H21 UNL     1      26.541   1.460  52.308  1.00  0.00     0.000 HD
ENDROOT
BRANCH  14  19
HETATM   19  C14 UNL     1      26.430   4.683  49.550  1.00  0.00     0.000 A 
HETATM   20  C15 UNL     1      27.631   4.768  48.873  1.00  0.00     0.018 A 
HETATM   21  C16 UNL     1      27.894   5.884  48.098  1.00  0.00     0.001 A 
HETATM   22  C17 UNL     1      26.981   6.932  47.976  1.00  0.00     0.000 A 
HETATM   23  C18 UNL     1      25.789   6.806  48.671  1.00  0.00     0.001 A 
HETATM   24  C19 UNL     1      25.519   5.704  49.442  1.00  0.00     0.018 A 
ENDBRANCH  14  19
BRANCH   1  25
HETATM   25  O1  UNL     1      25.713  -0.168  53.368  1.00  0.00    -0.351 OA
BRANCH  25  26
HETATM   26  C2  UNL     1      26.451  -1.251  52.847  1.00  0.00     0.171 C 
HETATM   27  C1  UNL     1      27.943  -0.943  53.015  1.00  0.00     0.034 C 
ENDBRANCH  25  26
ENDBRANCH   1  25
TORSDOF 3
ENDMDL
MODEL 3
REMARK VINA RESULT:      -8.9      3.414      7.695
REMARK  3 active torsions:
REMARK  status: ('A' for Active; 'I' for Inactive)
REMARK    1  A    between atoms: C2_2  and  O1_3 
REMARK    2  A    between atoms: O1_3  and  C3_4 
REMARK    3  A    between atoms: S1_17  and  C14_18 
ROOT
HETATM    1  C3  UNL     1      24.785   2.548  52.875  1.00  0.00     0.081 C 
HETATM    2  C4  UNL     1      26.097   2.553  53.047  1.00  0.00     0.045 C 
HETATM    3  C5  UNL     1      27.256   1.670  53.317  1.00  0.00    -0.043 C 
HETATM    4  C6  UNL     1      28.508   2.323  53.700  1.00  0.00     0.049 C 
HETATM    5  C7  UNL     1      27.226   0.350  53.234  1.00  0.00     0.045 C 
HETATM    6  C8  UNL     1      28.493  -0.291  53.547  1.00  0.00     0.253 C 
HETATM    7  O2  UNL     1      29.567   0.226  53.873  1.00  0.00    -0.268 OA
HETATM    8  N1  UNL     1      28.357  -1.705  53.430  1.00  0.00    -0.353 N 
HETATM    9  C9  UNL     1      27.108  -2.016  52.749  1.00  0.00     0.162 C 
HETATM   10  C10 UNL     1      26.330  -0.759  52.924  1.00  0.00    -0.024 C 
HETATM   11  C11 UNL     1      25.006  -0.817  52.782  1.00  0.00     0.018 C 
HETATM   12  C12 UNL     1      23.904   0.134  52.863  1.00  0.00    -0.034 A 
HETATM   13  C13 UNL     1      22.616  -0.617  52.912  1.00  0.00     0.119 A 
HETATM   14  S1  UNL     1      21.182   0.463  53.014  1.00  0.00    -0.125 SA
HETATM   15  C20 UNL     1      23.842   1.442  52.898  1.00  0.00     0.018 A 
HETATM   16  O3  UNL     1      22.516   1.847  52.977  1.00  0.00     0.000 OA
HETATM   17  H10 UNL     1      28.958  -2.489  53.727  1.00  0.00     0.163 HD
HETATM   18  H21 UNL     1      22.289   2.816  52.788  1.00  0.00     0.000 HD
ENDROOT
BRANCH  14  19
HETATM   19  C14 UNL     1      19.687  -0.524  53.068  1.00  0.00     0.000 A 
HETATM   20  C15 UNL     1      19.489  -1.653  53.838  1.00  0.00     0.018 A 
HETATM   21  C16 UNL     1      18.274  -2.313  53.771  1.00  0.00     0.001 A 
HETATM   22  C17 UNL     1      17.237  -1.871  52.948  1.00  0.00     0.000 A 
HETATM   23  C18 UNL     1      17.479  -0.736  52.193  1.00  0.00     0.001 A 
HETATM   24  C19 UNL     1      18.680  -0.075  52.252  1.00  0.00     0.018 A 
ENDBRANCH  14  19
BRANCH   1  25
HETATM   25  O1  UNL     1      24.177   3.753  52.635  1.00  0.00    -0.351 OA
BRANCH  25  26
HETATM   26  C2  UNL     1      24.112   4.358  51.363  1.00  0.00     0.171 C 
HETATM   27  C1  UNL     1      23.767   5.839  51.550  1.00  0.00     0.034 C 
ENDBRANCH  25  26
ENDBRANCH   1  25
TORSDOF 3
ENDMDL
MODEL 4
REMARK VINA RESULT:      -8.6      2.881      6.454
REMARK  3 active torsions:
REMARK  status: ('A' for Active; 'I' for Inactive)
REMARK    1  A    between atoms: C2_2  and  O1_3 
REMARK    2  A    between atoms: O1_3  and  C3_4 
REMARK    3  A    between atoms: S1_17  and  C14_18 
ROOT
HETATM    1  C3  UNL     1      25.500   2.631  50.772  1.00  0.00     0.081 C 
HETATM    2  C4  UNL     1      26.570   2.514  51.541  1.00  0.00     0.045 C 
HETATM    3  C5  UNL     1      27.054   1.917  52.808  1.00  0.00    -0.043 C 
HETATM    4  C6  UNL     1      28.345   2.390  53.309  1.00  0.00     0.049 C 
HETATM    5  C7  UNL     1      26.399   1.000  53.501  1.00  0.00     0.045 C 
HETATM    6  C8  UNL     1      27.083   0.573  54.712  1.00  0.00     0.253 C 
HETATM    7  O2  UNL     1      28.170   0.948  55.164  1.00  0.00    -0.268 OA
HETATM    8  N1  UNL     1      26.300  -0.411  55.383  1.00  0.00    -0.353 N 
HETATM    9  C9  UNL     1      25.245  -0.878  54.494  1.00  0.00     0.162 C 
HETATM   10  C10 UNL     1      25.169   0.216  53.490  1.00  0.00    -0.024 C 
HETATM   11  C11 UNL     1      24.055   0.323  52.764  1.00  0.00     0.018 C 
HETATM   12  C12 UNL     1      23.575   1.211  51.712  1.00  0.00    -0.034 A 
HETATM   13  C13 UNL     1      22.111   0.999  51.526  1.00  0.00     0.119 A 
HETATM   14  S1  UNL     1      21.410   2.048  50.245  1.00  0.00    -0.125 SA
HETATM   15  C20 UNL     1      24.158   2.103  50.948  1.00  0.00     0.018 A 
HETATM   16  O3  UNL     1      23.221   2.674  50.097  1.00  0.00     0.000 OA
HETATM   17  H10 UNL     1      26.356  -0.817  56.329  1.00  0.00     0.163 HD
HETATM   18  H21 UNL     1      23.548   3.211  49.302  1.00  0.00     0.000 HD
ENDROOT
BRANCH  14  19
HETATM   19  C14 UNL     1      19.654   1.723  50.095  1.00  0.00     0.000 A 
HETATM   20  C15 UNL     1      18.747   2.483  49.384  1.00  0.00     0.018 A 
HETATM   21  C16 UNL     1      17.416   2.103  49.361  1.00  0.00     0.001 A 
HETATM   22  C17 UNL     1      16.959   0.971  50.037  1.00  0.00     0.000 A 
HETATM   23  C18 UNL     1      17.902   0.237  50.737  1.00  0.00     0.001 A 
HETATM   24  C19 UNL     1      19.223   0.606  50.765  1.00  0.00     0.018 A 
ENDBRANCH  14  19
BRANCH   1  25
HETATM   25  O1  UNL     1      25.632   3.355  49.615  1.00  0.00    -0.351 OA
BRANCH  25  26
HETATM   26  C2  UNL     1      26.095   4.687  49.573  1.00  0.00     0.171 C 
HETATM   27  C1  UNL     1      27.393   4.722  48.761  1.00  0.00     0.034 C 
ENDBRANCH  25  26
ENDBRANCH   1  25
TORSDOF 3
ENDMDL
MODEL 5
REMARK VINA RESULT:      -8.3      3.731      9.110
REMARK  3 active torsions:
REMARK  status: ('A' for Active; 'I' for Inactive)
REMARK    1  A    between atoms: C2_2  and  O1_3 
REMARK    2  A    between atoms: O1_3  and  C3_4 
REMARK    3  A    between atoms: S1_17  and  C14_18 
ROOT
HETATM    1  C3  UNL     1      24.443   6.091  48.571  1.00  0.00     0.081 C 
HETATM    2  C4  UNL     1      24.979   7.152  47.990  1.00  0.00     0.045 C 
HETATM    3  C5  UNL     1      26.274   7.810  47.699  1.00  0.00    -0.043 C 
HETATM    4  C6  UNL     1      26.220   9.196  47.233  1.00  0.00     0.049 C 
HETATM    5  C7  UNL     1      27.456   7.231  47.835  1.00  0.00     0.045 C 
HETATM    6  C8  UNL     1      28.578   8.087  47.487  1.00  0.00     0.253 C 
HETATM    7  O2  UNL     1      28.570   9.257  47.090  1.00  0.00    -0.268 OA
HETATM    8  N1  UNL     1      29.799   7.373  47.666  1.00  0.00    -0.353 N 
HETATM    9  C9  UNL     1      29.510   5.956  47.837  1.00  0.00     0.162 C 
HETATM   10  C10 UNL     1      28.075   5.970  48.230  1.00  0.00    -0.024 C 
HETATM   11  C11 UNL     1      27.585   4.897  48.850  1.00  0.00     0.018 C 
HETATM   12  C12 UNL     1      26.289   4.501  49.389  1.00  0.00    -0.034 A 
HETATM   13  C13 UNL     1      26.465   3.293  50.244  1.00  0.00     0.119 A 
HETATM   14  S1  UNL     1      24.921   2.716  50.964  1.00  0.00    -0.125 SA
HETATM   15  C20 UNL     1      25.076   4.983  49.266  1.00  0.00     0.018 A 
HETATM   16  O3  UNL     1      24.189   4.211  50.003  1.00  0.00     0.000 OA
HETATM   17  H10 UNL     1      30.785   7.676  47.691  1.00  0.00     0.163 HD
HETATM   18  H21 UNL     1      23.195   4.315  49.834  1.00  0.00     0.000 HD
ENDROOT
BRANCH  14  19
HETATM   19  C14 UNL     1      25.232   1.266  51.970  1.00  0.00     0.000 A 
HETATM   20  C15 UNL     1      24.348   0.697  52.867  1.00  0.00     0.018 A 
HETATM   21  C16 UNL     1      24.734  -0.427  53.576  1.00  0.00     0.001 A 
HETATM   22  C17 UNL     1      25.992  -1.009  53.412  1.00  0.00     0.000 A 
HETATM   23  C18 UNL     1      26.846  -0.407  52.503  1.00  0.00     0.001 A 
HETATM   24  C19 UNL     1      26.472   0.708  51.796  1.00  0.00     0.018 A 
ENDBRANCH  14  19
BRANCH   1  25
HETATM   25  O1  UNL     1      23.076   5.978  48.536  1.00  0.00    -0.351 OA
BRANCH  25  26
HETATM   26  C2  UNL     1      22.194   7.029  48.861  1.00  0.00     0.171 C 
HETATM   27  C1  UNL     1      22.096   7.123  50.387  1.00  0.00     0.034 C 
ENDBRANCH  25  26
ENDBRANCH   1  25
TORSDOF 3
ENDMDL
MODEL 6
REMARK VINA RESULT:      -8.2      2.442      4.561
REMARK  3 active torsions:
REMARK  status: ('A' for Active; 'I' for Inactive)
REMARK    1  A    between atoms: C2_2  and  O1_3 
REMARK    2  A    between atoms: O1_3  and  C3_4 
REMARK    3  A    between atoms: S1_17  and  C14_18 
ROOT
HETATM    1  C3  UNL     1      21.178   2.965  52.118  1.00  0.00     0.081 C 
HETATM    2  C4  UNL     1      20.689   1.932  52.784  1.00  0.00     0.045 C 
HETATM    3  C5  UNL     1      21.066   0.636  53.395  1.00  0.00    -0.043 C 
HETATM    4  C6  UNL     1      19.971  -0.257  53.776  1.00  0.00     0.049 C 
HETATM    5  C7  UNL     1      22.311   0.246  53.613  1.00  0.00     0.045 C 
HETATM    6  C8  UNL     1      22.420  -1.069  54.225  1.00  0.00     0.253 C 
HETATM    7  O2  UNL     1      21.522  -1.848  54.559  1.00  0.00    -0.268 OA
HETATM    8  N1  UNL     1      23.795  -1.396  54.417  1.00  0.00    -0.353 N 
HETATM    9  C9  UNL     1      24.607  -0.202  54.225  1.00  0.00     0.162 C 
HETATM   10  C10 UNL     1      23.694   0.682  53.452  1.00  0.00    -0.024 C 
HETATM   11  C11 UNL     1      24.232   1.687  52.761  1.00  0.00     0.018 C 
HETATM   12  C12 UNL     1      23.730   2.752  51.902  1.00  0.00    -0.034 A 
HETATM   13  C13 UNL     1      24.874   3.372  51.174  1.00  0.00     0.119 A 
HETATM   14  S1  UNL     1      24.366   4.704  50.078  1.00  0.00    -0.125 SA
HETATM   15  C20 UNL     1      22.533   3.233  51.667  1.00  0.00     0.018 A 
HETATM   16  O3  UNL     1      22.616   4.266  50.743  1.00  0.00     0.000 OA
HETATM   17  H10 UNL     1      24.273  -2.279  54.653  1.00  0.00     0.163 HD
HETATM   18  H21 UNL     1      21.820   4.882  50.627  1.00  0.00     0.000 HD
ENDROOT
BRANCH  14  19
HETATM   19  C14 UNL     1      25.803   5.385  49.252  1.00  0.00     0.000 A 
HETATM   20  C15 UNL     1      25.910   6.659  48.730  1.00  0.00     0.018 A 
HETATM   21  C16 UNL     1      27.091   7.042  48.117  1.00  0.00     0.001 A 
HETATM   22  C17 UNL     1      28.182   6.179  48.010  1.00  0.00     0.000 A 
HETATM   23  C18 UNL     1      28.032   4.911  48.548  1.00  0.00     0.001 A 
HETATM   24  C19 UNL     1      26.866   4.523  49.157  1.00  0.00     0.018 A 
ENDBRANCH  14  19
BRANCH   1  25
HETATM   25  O1  UNL     1      20.304   3.966  51.778  1.00  0.00    -0.351 OA
BRANCH  25  26
HETATM   26  C2  UNL     1      19.008   3.737  51.271  1.00  0.00     0.171 C 
HETATM   27  C1  UNL     1      19.081   3.736  49.741  1.00  0.00     0.034 C 
ENDBRANCH  25  26
ENDBRANCH   1  25
TORSDOF 3
ENDMDL
MODEL 7
REMARK VINA RESULT:      -8.0      3.896      5.818
REMARK  3 active torsions:
REMARK  status: ('A' for Active; 'I' for Inactive)
REMARK    1  A    between atoms: C2_2  and  O1_3 
REMARK    2  A    between atoms: O1_3  and  C3_4 
REMARK    3  A    between atoms: S1_17  and  C14_18 
ROOT
HETATM    1  C3  UNL     1      20.666   0.111  52.750  1.00  0.00     0.081 C 
HETATM    2  C4  UNL     1      21.339  -0.468  53.732  1.00  0.00     0.045 C 
HETATM    3  C5  UNL     1      22.710  -0.730  54.228  1.00  0.00    -0.043 C 
HETATM    4  C6  UNL     1      22.846  -1.725  55.293  1.00  0.00     0.049 C 
HETATM    5  C7  UNL     1      23.798  -0.130  53.776  1.00  0.00     0.045 C 
HETATM    6  C8  UNL     1      25.025  -0.560  54.425  1.00  0.00     0.253 C 
HETATM    7  O2  UNL     1      25.178  -1.394  55.324  1.00  0.00    -0.268 OA
HETATM    8  N1  UNL     1      26.134   0.141  53.869  1.00  0.00    -0.353 N 
HETATM    9  C9  UNL     1      25.648   1.257  53.069  1.00  0.00     0.162 C 
HETATM   10  C10 UNL     1      24.237   0.866  52.804  1.00  0.00    -0.024 C 
HETATM   11  C11 UNL     1      23.609   1.443  51.779  1.00  0.00     0.018 C 
HETATM   12  C12 UNL     1      22.280   1.359  51.187  1.00  0.00    -0.034 A 
HETATM   13  C13 UNL     1      22.295   2.033  49.856  1.00  0.00     0.119 A 
HETATM   14  S1  UNL     1      20.698   1.989  49.032  1.00  0.00    -0.125 SA
HETATM   15  C20 UNL     1      21.146   0.834  51.584  1.00  0.00     0.018 A 
HETATM   16  O3  UNL     1      20.170   1.040  50.619  1.00  0.00     0.000 OA
HETATM   17  H10 UNL     1      27.153  -0.002  53.938  1.00  0.00     0.163 HD
HETATM   18  H21 UNL     1      19.199   0.895  50.868  1.00  0.00     0.000 HD
ENDROOT
BRANCH  14  19
HETATM   19  C14 UNL     1      20.815   2.819  47.449  1.00  0.00     0.000 A 
HETATM   20  C15 UNL     1      21.983   3.142  46.786  1.00  0.00     0.018 A 
HETATM   21  C16 UNL     1      21.912   3.787  45.564  1.00  0.00     0.001 A 
HETATM   22  C17 UNL     1      20.693   4.123  44.975  1.00  0.00     0.000 A 
HETATM   23  C18 UNL     1      19.546   3.782  45.673  1.00  0.00     0.001 A 
HETATM   24  C19 UNL     1      19.607   3.142  46.885  1.00  0.00     0.018 A 
ENDBRANCH  14  19
BRANCH   1  25
HETATM   25  O1  UNL     1      19.297   0.042  52.798  1.00  0.00    -0.351 OA
BRANCH  25  26
HETATM   26  C2  UNL     1      18.585  -1.083  53.264  1.00  0.00     0.171 C 
HETATM   27  C1  UNL     1      17.174  -1.041  52.668  1.00  0.00     0.034 C 
ENDBRANCH  25  26
ENDBRANCH   1  25
TORSDOF 3
ENDMDL
MODEL 8
REMARK VINA RESULT:      -7.9      3.089      6.852
REMARK  3 active torsions:
REMARK  status: ('A' for Active; 'I' for Inactive)
REMARK    1  A    between atoms: C2_2  and  O1_3 
REMARK    2  A    between atoms: O1_3  and  C3_4 
REMARK    3  A    between atoms: S1_17  and  C14_18 
ROOT
HETATM    1  C3  UNL     1      24.475   5.230  49.834  1.00  0.00     0.081 C 
HETATM    2  C4  UNL     1      23.462   5.517  49.031  1.00  0.00     0.045 C 
HETATM    3  C5  UNL     1      22.301   4.916  48.335  1.00  0.00    -0.043 C 
HETATM    4  C6  UNL     1      21.662   5.728  47.299  1.00  0.00     0.049 C 
HETATM    5  C7  UNL     1      21.816   3.712  48.589  1.00  0.00     0.045 C 
HETATM    6  C8  UNL     1      20.671   3.350  47.771  1.00  0.00     0.253 C 
HETATM    7  O2  UNL     1      20.105   4.007  46.890  1.00  0.00    -0.268 OA
HETATM    8  N1  UNL     1      20.225   2.042  48.120  1.00  0.00    -0.353 N 
HETATM    9  C9  UNL     1      20.858   1.633  49.367  1.00  0.00     0.162 C 
HETATM   10  C10 UNL     1      22.028   2.549  49.444  1.00  0.00    -0.024 C 
HETATM   11  C11 UNL     1      23.045   2.201  50.234  1.00  0.00     0.018 C 
HETATM   12  C12 UNL     1      24.334   2.778  50.593  1.00  0.00    -0.034 A 
HETATM   13  C13 UNL     1      25.154   1.745  51.289  1.00  0.00     0.119 A 
HETATM   14  S1  UNL     1      26.774   2.352  51.779  1.00  0.00    -0.125 SA
HETATM   15  C20 UNL     1      24.870   3.963  50.426  1.00  0.00     0.018 A 
HETATM   16  O3  UNL     1      26.148   3.979  50.968  1.00  0.00     0.000 OA
HETATM   17  H10 UNL     1      19.574   1.384  47.665  1.00  0.00     0.163 HD
HETATM   18  H21 UNL     1      26.603   4.872  51.119  1.00  0.00     0.000 HD
ENDROOT
BRANCH  14  19
HETATM   19  C14 UNL     1      27.681   1.046  52.605  1.00  0.00     0.000 A 
HETATM   20  C15 UNL     1      28.821   1.208  53.367  1.00  0.00     0.018 A 
HETATM   21  C16 UNL     1      29.413   0.098  53.944  1.00  0.00     0.001 A 
HETATM   22  C17 UNL     1      28.891  -1.186  53.782  1.00  0.00     0.000 A 
HETATM   23  C18 UNL     1      27.747  -1.303  53.010  1.00  0.00     0.001 A 
HETATM   24  C19 UNL     1      27.154  -0.208  52.434  1.00  0.00     0.018 A 
ENDBRANCH  14  19
BRANCH   1  25
HETATM   25  O1  UNL     1      25.308   6.259  50.190  1.00  0.00    -0.351 OA
BRANCH  25  26
HETATM   26  C2  UNL     1      25.957   7.099  49.261  1.00  0.00     0.171 C 
HETATM   27  C1  UNL     1      26.968   6.258  48.475  1.00  0.00     0.034 C 
ENDBRANCH  25  26
ENDBRANCH   1  25
TORSDOF 3
ENDMDL
MODEL 9
REMARK VINA RESULT:      -7.8      3.784      8.929
REMARK  3 active torsions:
REMARK  status: ('A' for Active; 'I' for Inactive)
REMARK    1  A    between atoms: C2_2  and  O1_3 
REMARK    2  A    between atoms: O1_3  and  C3_4 
REMARK    3  A    between atoms: S1_17  and  C14_18 
ROOT
HETATM    1  C3  UNL     1      28.547   5.986  48.293  1.00  0.00     0.081 C 
HETATM    2  C4  UNL     1      28.677   6.957  47.403  1.00  0.00     0.045 C 
HETATM    3  C5  UNL     1      27.902   7.902  46.565  1.00  0.00    -0.043 C 
HETATM    4  C6  UNL     1      28.633   8.595  45.504  1.00  0.00     0.049 C 
HETATM    5  C7  UNL     1      26.612   8.151  46.716  1.00  0.00     0.045 C 
HETATM    6  C8  UNL     1      26.081   9.118  45.768  1.00  0.00     0.253 C 
HETATM    7  O2  UNL     1      26.666   9.722  44.863  1.00  0.00    -0.268 OA
HETATM    8  N1  UNL     1      24.690   9.316  46.012  1.00  0.00    -0.353 N 
HETATM    9  C9  UNL     1      24.338   8.731  47.299  1.00  0.00     0.162 C 
HETATM   10  C10 UNL     1      25.462   7.786  47.536  1.00  0.00    -0.024 C 
HETATM   11  C11 UNL     1      25.274   6.797  48.411  1.00  0.00     0.018 C 
HETATM   12  C12 UNL     1      26.073   5.692  48.926  1.00  0.00    -0.034 A 
HETATM   13  C13 UNL     1      25.182   4.746  49.658  1.00  0.00     0.119 A 
HETATM   14  S1  UNL     1      26.068   3.337  50.339  1.00  0.00    -0.125 SA
HETATM   15  C20 UNL     1      27.349   5.397  48.867  1.00  0.00     0.018 A 
HETATM   16  O3  UNL     1      27.586   4.204  49.538  1.00  0.00     0.000 OA
HETATM   17  H10 UNL     1      23.946   9.775  45.465  1.00  0.00     0.163 HD
HETATM   18  H21 UNL     1      28.540   3.958  49.775  1.00  0.00     0.000 HD
ENDROOT
BRANCH  14  19
HETATM   19  C14 UNL     1      24.920   2.262  51.197  1.00  0.00     0.000 A 
HETATM   20  C15 UNL     1      23.562   2.171  50.959  1.00  0.00     0.018 A 
HETATM   21  C16 UNL     1      22.802   1.289  51.708  1.00  0.00     0.001 A 
HETATM   22  C17 UNL     1      23.365   0.484  52.699  1.00  0.00     0.000 A 
HETATM   23  C18 UNL     1      24.730   0.607  52.904  1.00  0.00     0.001 A 
HETATM   24  C19 UNL     1      25.491   1.478  52.167  1.00  0.00     0.018 A 
ENDBRANCH  14  19
BRANCH   1  25
HETATM   25  O1  UNL     1      29.697   5.418  48.777  1.00  0.00    -0.351 OA
BRANCH  25  26
HETATM   26  C2  UNL     1      30.986   5.941  48.549  1.00  0.00     0.171 C 
HETATM   27  C1  UNL     1      31.802   4.898  47.779  1.00  0.00     0.034 C 
ENDBRANCH  25  26
ENDBRANCH   1  25
TORSDOF 3
ENDMDL
