MODEL 1
REMARK VINA RESULT:      -9.1      0.000      0.000
REMARK  5 active torsions:
REMARK  status: ('A' for Active; 'I' for Inactive)
REMARK    1  A    between atoms: N1_7  and  C7_8 
REMARK    2  A    between atoms: N4_18  and  C15_19 
REMARK    3  A    between atoms: C15_19  and  C16_20 
REMARK    4  A    between atoms: C16_20  and  C17_21 
REMARK    5  A    between atoms: C17_21  and  N5_22 
ROOT
HETATM    1  C7  UNL     1      20.266   1.076  50.760  1.00  0.00     0.144 A 
HETATM    2  N2  UNL     1      18.947   1.081  50.473  1.00  0.00    -0.223 NA
HETATM    3  C8  UNL     1      18.043   0.437  51.271  1.00  0.00     0.236 A 
HETATM    4  N3  UNL     1      18.426  -0.229  52.378  1.00  0.00    -0.241 NA
HETATM    5  C9  UNL     1      19.737  -0.243  52.680  1.00  0.00     0.075 A 
HETATM    6  C10 UNL     1      20.227  -0.901  53.806  1.00  0.00     0.071 A 
HETATM    7  C11 UNL     1      21.581  -0.890  54.087  1.00  0.00     0.098 A 
HETATM    8  C12 UNL     1      22.471  -0.230  53.262  1.00  0.00     0.071 A 
HETATM    9  C13 UNL     1      22.037   0.436  52.135  1.00  0.00     0.050 A 
HETATM   10  C14 UNL     1      20.674   0.397  51.894  1.00  0.00     0.041 A 
HETATM   11  N4  UNL     1      23.858  -0.241  53.588  1.00  0.00    -0.314 N 
HETATM   12  C22 UNL     1      24.251  -0.950  54.778  1.00  0.00     0.248 A 
HETATM   13  O2  UNL     1      25.455  -0.925  55.072  1.00  0.00    -0.271 OA
HETATM   14  C23 UNL     1      23.315  -1.688  55.641  1.00  0.00     0.279 A 
HETATM   15  O3  UNL     1      21.975  -1.571  55.228  1.00  0.00    -0.340 OA
ENDROOT
BRANCH  11  16
HETATM   16  C15 UNL     1      24.868   0.433  52.772  1.00  0.00     0.134 C 
BRANCH  16  17
HETATM   17  C16 UNL     1      25.080   1.864  53.244  1.00  0.00     0.050 C 
BRANCH  17  18
HETATM   18  C17 UNL     1      26.487   1.901  53.788  1.00  0.00     0.274 C 
BRANCH  18  19
HETATM   19  N5  UNL     1      27.532   1.728  52.847  1.00  0.00     0.092 N 
HETATM   20  C18 UNL     1      28.772   2.333  53.382  1.00  0.00     0.298 C 
HETATM   21  C19 UNL     1      29.043   1.837  54.767  1.00  0.00     0.198 C 
HETATM   22  O1  UNL     1      28.773   0.485  54.924  1.00  0.00    -0.388 OA
HETATM   23  C20 UNL     1      28.795  -0.210  53.727  1.00  0.00     0.198 C 
HETATM   24  C21 UNL     1      27.848   0.336  52.681  1.00  0.00     0.298 C 
ENDBRANCH  18  19
ENDBRANCH  17  18
ENDBRANCH  16  17
ENDBRANCH  11  16
BRANCH   1  25
HETATM   25  N1  UNL     1      21.059   1.776  49.806  1.00  0.00    -0.332 N 
HETATM   26  C2  UNL     1      21.290   3.166  50.112  1.00  0.00     0.009 A 
HETATM   27  C1  UNL     1      20.695   3.779  51.356  1.00  0.00     0.068 C 
HETATM   28  C3  UNL     1      22.034   3.912  49.301  1.00  0.00     0.024 A 
HETATM   29  C4  UNL     1      22.622   3.346  48.090  1.00  0.00    -0.001 A 
HETATM   30  C5  UNL     1      22.353   2.070  47.889  1.00  0.00    -0.007 A 
HETATM   31  C6  UNL     1      21.543   1.113  48.697  1.00  0.00     0.158 A 
ENDBRANCH   1  25
TORSDOF 5
ENDMDL
MODEL 2
REMARK VINA RESULT:      -8.9      2.108      2.786
REMARK  5 active torsions:
REMARK  status: ('A' for Active; 'I' for Inactive)
REMARK    1  A    between atoms: N1_7  and  C7_8 
REMARK    2  A    between atoms: N4_18  and  C15_19 
REMARK    3  A    between atoms: C15_19  and  C16_20 
REMARK    4  A    between atoms: C16_20  and  C17_21 
REMARK    5  A    between atoms: C17_21  and  N5_22 
ROOT
HETATM    1  C7  UNL     1      20.105   0.534  51.431  1.00  0.00     0.144 A 
HETATM    2  N2  UNL     1      18.776   0.302  51.398  1.00  0.00    -0.223 NA
HETATM    3  C8  UNL     1      18.160  -0.443  52.365  1.00  0.00     0.236 A 
HETATM    4  N3  UNL     1      18.850  -0.978  53.392  1.00  0.00    -0.241 NA
HETATM    5  C9  UNL     1      20.176  -0.755  53.440  1.00  0.00     0.075 A 
HETATM    6  C10 UNL     1      20.971  -1.262  54.465  1.00  0.00     0.071 A 
HETATM    7  C11 UNL     1      22.331  -1.009  54.485  1.00  0.00     0.098 A 
HETATM    8  C12 UNL     1      22.925  -0.252  53.494  1.00  0.00     0.071 A 
HETATM    9  C13 UNL     1      22.182   0.273  52.457  1.00  0.00     0.050 A 
HETATM   10  C14 UNL     1      20.827  -0.008  52.479  1.00  0.00     0.041 A 
HETATM   11  N4  UNL     1      24.328  -0.012  53.551  1.00  0.00    -0.314 N 
HETATM   12  C22 UNL     1      25.051  -0.583  54.658  1.00  0.00     0.248 A 
HETATM   13  O2  UNL     1      26.265  -0.341  54.719  1.00  0.00    -0.271 OA
HETATM   14  C23 UNL     1      24.433  -1.423  55.696  1.00  0.00     0.279 A 
HETATM   15  O3  UNL     1      23.040  -1.554  55.542  1.00  0.00    -0.340 OA
ENDROOT
BRANCH  11  16
HETATM   16  C15 UNL     1      25.038   0.780  52.546  1.00  0.00     0.134 C 
BRANCH  16  17
HETATM   17  C16 UNL     1      25.027   2.256  52.913  1.00  0.00     0.050 C 
BRANCH  17  18
HETATM   18  C17 UNL     1      25.867   2.936  51.860  1.00  0.00     0.274 C 
BRANCH  18  19
HETATM   19  N5  UNL     1      25.537   2.657  50.511  1.00  0.00     0.092 N 
HETATM   20  C18 UNL     1      24.324   3.419  50.141  1.00  0.00     0.298 C 
HETATM   21  C19 UNL     1      24.483   4.864  50.494  1.00  0.00     0.198 C 
HETATM   22  O1  UNL     1      25.754   5.353  50.226  1.00  0.00    -0.388 OA
HETATM   23  C20 UNL     1      26.428   4.607  49.275  1.00  0.00     0.198 C 
HETATM   24  C21 UNL     1      26.557   3.140  49.622  1.00  0.00     0.298 C 
ENDBRANCH  18  19
ENDBRANCH  17  18
ENDBRANCH  16  17
ENDBRANCH  11  16
BRANCH   1  25
HETATM   25  N1  UNL     1      20.575   1.308  50.331  1.00  0.00    -0.332 N 
HETATM   26  C2  UNL     1      20.366   2.730  50.456  1.00  0.00     0.009 A 
HETATM   27  C1  UNL     1      19.681   3.292  51.677  1.00  0.00     0.068 C 
HETATM   28  C3  UNL     1      20.783   3.552  49.497  1.00  0.00     0.024 A 
HETATM   29  C4  UNL     1      21.449   3.036  48.305  1.00  0.00    -0.001 A 
HETATM   30  C5  UNL     1      21.591   1.724  48.274  1.00  0.00    -0.007 A 
HETATM   31  C6  UNL     1      21.179   0.683  49.260  1.00  0.00     0.158 A 
ENDBRANCH   1  25
TORSDOF 5
ENDMDL
MODEL 3
REMARK VINA RESULT:      -8.8      1.704      2.493
REMARK  5 active torsions:
REMARK  status: ('A' for Active; 'I' for Inactive)
REMARK    1  A    between atoms: N1_7  and  C7_8 
REMARK    2  A    between atoms: N4_18  and  C15_19 
REMARK    3  A    between atoms: C15_19  and  C16_20 
REMARK    4  A    between atoms: C16_20  and  C17_21 
REMARK    5  A    between atoms: C17_21  and  N5_22 
ROOT
HETATM    1  C7  UNL     1      21.593   2.959  50.052  1.00  0.00     0.144 A 
HETATM    2  N2  UNL     1      20.750   3.473  49.132  1.00  0.00    -0.223 NA
HETATM    3  C8  UNL     1      19.463   3.025  49.018  1.00  0.00     0.236 A 
HETATM    4  N3  UNL     1      18.980   2.052  49.817  1.00  0.00    -0.241 NA
HETATM    5  C9  UNL     1      19.809   1.530  50.740  1.00  0.00     0.075 A 
HETATM    6  C10 UNL     1      19.398   0.526  51.614  1.00  0.00     0.071 A 
HETATM    7  C11 UNL     1      20.275   0.016  52.554  1.00  0.00     0.098 A 
HETATM    8  C12 UNL     1      21.569   0.490  52.645  1.00  0.00     0.071 A 
HETATM    9  C13 UNL     1      22.025   1.483  51.804  1.00  0.00     0.050 A 
HETATM   10  C14 UNL     1      21.112   1.961  50.880  1.00  0.00     0.041 A 
HETATM   11  N4  UNL     1      22.442  -0.060  53.629  1.00  0.00    -0.314 N 
HETATM   12  C22 UNL     1      21.909  -1.092  54.480  1.00  0.00     0.248 A 
HETATM   13  O2  UNL     1      22.665  -1.541  55.355  1.00  0.00    -0.271 OA
HETATM   14  C23 UNL     1      20.545  -1.630  54.364  1.00  0.00     0.279 A 
HETATM   15  O3  UNL     1      19.778  -0.980  53.379  1.00  0.00    -0.340 OA
ENDROOT
BRANCH  11  16
HETATM   16  C15 UNL     1      23.825   0.384  53.796  1.00  0.00     0.134 C 
BRANCH  16  17
HETATM   17  C16 UNL     1      24.786  -0.555  53.083  1.00  0.00     0.050 C 
BRANCH  17  18
HETATM   18  C17 UNL     1      26.136  -0.296  53.705  1.00  0.00     0.274 C 
BRANCH  18  19
HETATM   19  N5  UNL     1      27.232  -0.194  52.813  1.00  0.00     0.092 N 
HETATM   20  C18 UNL     1      27.404   1.220  52.415  1.00  0.00     0.298 C 
HETATM   21  C19 UNL     1      27.452   2.104  53.621  1.00  0.00     0.198 C 
HETATM   22  O1  UNL     1      28.177   1.555  54.669  1.00  0.00    -0.388 OA
HETATM   23  C20 UNL     1      29.084   0.597  54.252  1.00  0.00     0.198 C 
HETATM   24  C21 UNL     1      28.463  -0.539  53.470  1.00  0.00     0.298 C 
ENDBRANCH  18  19
ENDBRANCH  17  18
ENDBRANCH  16  17
ENDBRANCH  11  16
BRANCH   1  25
HETATM   25  N1  UNL     1      22.898   3.530  50.009  1.00  0.00    -0.332 N 
HETATM   26  C2  UNL     1      23.078   4.696  50.839  1.00  0.00     0.009 A 
HETATM   27  C1  UNL     1      21.929   5.232  51.656  1.00  0.00     0.068 C 
HETATM   28  C3  UNL     1      24.262   5.299  50.892  1.00  0.00     0.024 A 
HETATM   29  C4  UNL     1      25.393   4.803  50.113  1.00  0.00    -0.001 A 
HETATM   30  C5  UNL     1      25.133   3.737  49.379  1.00  0.00    -0.007 A 
HETATM   31  C6  UNL     1      23.871   2.959  49.215  1.00  0.00     0.158 A 
ENDBRANCH   1  25
TORSDOF 5
ENDMDL
MODEL 4
REMARK VINA RESULT:      -8.8      3.518      6.783
REMARK  5 active torsions:
REMARK  status: ('A' for Active; 'I' for Inactive)
REMARK    1  A    between atoms: N1_7  and  C7_8 
REMARK    2  A    between atoms: N4_18  and  C15_19 
REMARK    3  A    between atoms: C15_19  and  C16_20 
REMARK    4  A    between atoms: C16_20  and  C17_21 
REMARK    5  A    between atoms: C17_21  and  N5_22 
ROOT
HETATM    1  C7  UNL     1      25.259  -0.244  54.120  1.00  0.00     0.144 A 
HETATM    2  N2  UNL     1      25.009  -1.071  55.157  1.00  0.00    -0.223 NA
HETATM    3  C8  UNL     1      23.737  -1.476  55.452  1.00  0.00     0.236 A 
HETATM    4  N3  UNL     1      22.678  -1.069  54.723  1.00  0.00    -0.241 NA
HETATM    5  C9  UNL     1      22.911  -0.245  53.685  1.00  0.00     0.075 A 
HETATM    6  C10 UNL     1      21.882   0.223  52.872  1.00  0.00     0.071 A 
HETATM    7  C11 UNL     1      22.159   1.066  51.810  1.00  0.00     0.098 A 
HETATM    8  C12 UNL     1      23.455   1.457  51.536  1.00  0.00     0.071 A 
HETATM    9  C13 UNL     1      24.509   1.021  52.311  1.00  0.00     0.050 A 
HETATM   10  C14 UNL     1      24.183   0.182  53.362  1.00  0.00     0.041 A 
HETATM   11  N4  UNL     1      23.699   2.324  50.432  1.00  0.00    -0.314 N 
HETATM   12  C22 UNL     1      22.560   2.744  49.658  1.00  0.00     0.248 A 
HETATM   13  O2  UNL     1      22.785   3.470  48.679  1.00  0.00    -0.271 OA
HETATM   14  C23 UNL     1      21.172   2.363  49.966  1.00  0.00     0.279 A 
HETATM   15  O3  UNL     1      21.072   1.480  51.057  1.00  0.00    -0.340 OA
ENDROOT
BRANCH  11  16
HETATM   16  C15 UNL     1      25.039   2.786  50.070  1.00  0.00     0.134 C 
BRANCH  16  17
HETATM   17  C16 UNL     1      25.354   4.114  50.741  1.00  0.00     0.050 C 
BRANCH  17  18
HETATM   18  C17 UNL     1      25.657   5.071  49.615  1.00  0.00     0.274 C 
BRANCH  18  19
HETATM   19  N5  UNL     1      25.810   6.434  49.968  1.00  0.00     0.092 N 
HETATM   20  C18 UNL     1      25.711   7.266  48.749  1.00  0.00     0.298 C 
HETATM   21  C19 UNL     1      24.477   6.921  47.977  1.00  0.00     0.198 C 
HETATM   22  O1  UNL     1      23.374   6.691  48.787  1.00  0.00    -0.388 OA
HETATM   23  C20 UNL     1      23.488   7.287  50.031  1.00  0.00     0.198 C 
HETATM   24  C21 UNL     1      24.724   6.875  50.799  1.00  0.00     0.298 C 
ENDBRANCH  18  19
ENDBRANCH  17  18
ENDBRANCH  16  17
ENDBRANCH  11  16
BRANCH   1  25
HETATM   25  N1  UNL     1      26.637   0.090  53.979  1.00  0.00    -0.332 N 
HETATM   26  C2  UNL     1      27.408  -0.838  53.189  1.00  0.00     0.009 A 
HETATM   27  C1  UNL     1      26.752  -2.060  52.598  1.00  0.00     0.068 C 
HETATM   28  C3  UNL     1      28.702  -0.615  52.974  1.00  0.00     0.024 A 
HETATM   29  C4  UNL     1      29.364   0.560  53.534  1.00  0.00    -0.001 A 
HETATM   30  C5  UNL     1      28.582   1.348  54.247  1.00  0.00    -0.007 A 
HETATM   31  C6  UNL     1      27.131   1.232  54.575  1.00  0.00     0.158 A 
ENDBRANCH   1  25
TORSDOF 5
ENDMDL
MODEL 5
REMARK VINA RESULT:      -8.7      2.536      4.374
REMARK  5 active torsions:
REMARK  status: ('A' for Active; 'I' for Inactive)
REMARK    1  A    between atoms: N1_7  and  C7_8 
REMARK    2  A    between atoms: N4_18  and  C15_19 
REMARK    3  A    between atoms: C15_19  and  C16_20 
REMARK    4  A    between atoms: C16_20  and  C17_21 
REMARK    5  A    between atoms: C17_21  and  N5_22 
ROOT
HETATM    1  C7  UNL     1      21.586   0.117  52.514  1.00  0.00     0.144 A 
HETATM    2  N2  UNL     1      20.512  -0.485  53.067  1.00  0.00    -0.223 NA
HETATM    3  C8  UNL     1      20.622  -1.222  54.213  1.00  0.00     0.236 A 
HETATM    4  N3  UNL     1      21.804  -1.381  54.841  1.00  0.00    -0.241 NA
HETATM    5  C9  UNL     1      22.885  -0.787  54.302  1.00  0.00     0.075 A 
HETATM    6  C10 UNL     1      24.147  -0.890  54.882  1.00  0.00     0.071 A 
HETATM    7  C11 UNL     1      25.235  -0.261  54.303  1.00  0.00     0.098 A 
HETATM    8  C12 UNL     1      25.092   0.479  53.146  1.00  0.00     0.071 A 
HETATM    9  C13 UNL     1      23.864   0.611  52.533  1.00  0.00     0.050 A 
HETATM   10  C14 UNL     1      22.806  -0.036  53.147  1.00  0.00     0.041 A 
HETATM   11  N4  UNL     1      26.237   1.113  52.582  1.00  0.00    -0.314 N 
HETATM   12  C22 UNL     1      27.492   0.941  53.268  1.00  0.00     0.248 A 
HETATM   13  O2  UNL     1      28.475   1.524  52.789  1.00  0.00    -0.271 OA
HETATM   14  C23 UNL     1      27.660   0.123  54.479  1.00  0.00     0.279 A 
HETATM   15  O3  UNL     1      26.450  -0.420  54.951  1.00  0.00    -0.340 OA
ENDROOT
BRANCH  11  16
HETATM   16  C15 UNL     1      26.176   1.916  51.361  1.00  0.00     0.134 C 
BRANCH  16  17
HETATM   17  C16 UNL     1      25.643   3.310  51.654  1.00  0.00     0.050 C 
BRANCH  17  18
HETATM   18  C17 UNL     1      24.528   3.530  50.662  1.00  0.00     0.274 C 
BRANCH  18  19
HETATM   19  N5  UNL     1      24.884   4.160  49.443  1.00  0.00     0.092 N 
HETATM   20  C18 UNL     1      23.696   4.846  48.888  1.00  0.00     0.298 C 
HETATM   21  C19 UNL     1      23.064   5.723  49.922  1.00  0.00     0.198 C 
HETATM   22  O1  UNL     1      23.990   6.399  50.703  1.00  0.00    -0.388 OA
HETATM   23  C20 UNL     1      25.223   6.526  50.085  1.00  0.00     0.198 C 
HETATM   24  C21 UNL     1      25.839   5.209  49.667  1.00  0.00     0.298 C 
ENDBRANCH  18  19
ENDBRANCH  17  18
ENDBRANCH  16  17
ENDBRANCH  11  16
BRANCH   1  25
HETATM   25  N1  UNL     1      21.287   0.821  51.312  1.00  0.00    -0.332 N 
HETATM   26  C2  UNL     1      20.897   2.197  51.496  1.00  0.00     0.009 A 
HETATM   27  C1  UNL     1      20.814   2.785  52.883  1.00  0.00     0.068 C 
HETATM   28  C3  UNL     1      20.614   2.957  50.441  1.00  0.00     0.024 A 
HETATM   29  C4  UNL     1      20.686   2.415  49.087  1.00  0.00    -0.001 A 
HETATM   30  C5  UNL     1      21.045   1.147  49.016  1.00  0.00    -0.007 A 
HETATM   31  C6  UNL     1      21.387   0.177  50.096  1.00  0.00     0.158 A 
ENDBRANCH   1  25
TORSDOF 5
ENDMDL
MODEL 6
REMARK VINA RESULT:      -8.6      2.848      6.135
REMARK  5 active torsions:
REMARK  status: ('A' for Active; 'I' for Inactive)
REMARK    1  A    between atoms: N1_7  and  C7_8 
REMARK    2  A    between atoms: N4_18  and  C15_19 
REMARK    3  A    between atoms: C15_19  and  C16_20 
REMARK    4  A    between atoms: C16_20  and  C17_21 
REMARK    5  A    between atoms: C17_21  and  N5_22 
ROOT
HETATM    1  C7  UNL     1      24.234  -0.045  53.863  1.00  0.00     0.144 A 
HETATM    2  N2  UNL     1      24.904  -0.590  54.901  1.00  0.00    -0.223 NA
HETATM    3  C8  UNL     1      24.277  -1.405  55.802  1.00  0.00     0.236 A 
HETATM    4  N3  UNL     1      22.966  -1.699  55.696  1.00  0.00    -0.241 NA
HETATM    5  C9  UNL     1      22.284  -1.165  54.667  1.00  0.00     0.075 A 
HETATM    6  C10 UNL     1      20.928  -1.416  54.472  1.00  0.00     0.071 A 
HETATM    7  C11 UNL     1      20.260  -0.853  53.400  1.00  0.00     0.098 A 
HETATM    8  C12 UNL     1      20.921  -0.035  52.504  1.00  0.00     0.071 A 
HETATM    9  C13 UNL     1      22.263   0.246  52.653  1.00  0.00     0.050 A 
HETATM   10  C14 UNL     1      22.888  -0.339  53.741  1.00  0.00     0.041 A 
HETATM   11  N4  UNL     1      20.198   0.524  51.411  1.00  0.00    -0.314 N 
HETATM   12  C22 UNL     1      18.800   0.194  51.307  1.00  0.00     0.248 A 
HETATM   13  O2  UNL     1      18.187   0.657  50.334  1.00  0.00    -0.271 OA
HETATM   14  C23 UNL     1      18.080  -0.645  52.277  1.00  0.00     0.279 A 
HETATM   15  O3  UNL     1      18.914  -1.160  53.287  1.00  0.00    -0.340 OA
ENDROOT
BRANCH  11  16
HETATM   16  C15 UNL     1      20.818   1.399  50.416  1.00  0.00     0.134 C 
BRANCH  16  17
HETATM   17  C16 UNL     1      20.520   2.860  50.718  1.00  0.00     0.050 C 
BRANCH  17  18
HETATM   18  C17 UNL     1      21.859   3.489  51.015  1.00  0.00     0.274 C 
BRANCH  18  19
HETATM   19  N5  UNL     1      21.839   4.828  51.476  1.00  0.00     0.092 N 
HETATM   20  C18 UNL     1      23.199   5.400  51.364  1.00  0.00     0.298 C 
HETATM   21  C19 UNL     1      23.749   5.185  49.990  1.00  0.00     0.198 C 
HETATM   22  O1  UNL     1      22.803   5.369  48.991  1.00  0.00    -0.388 OA
HETATM   23  C20 UNL     1      21.743   6.162  49.393  1.00  0.00     0.198 C 
HETATM   24  C21 UNL     1      21.027   5.653  50.624  1.00  0.00     0.298 C 
ENDBRANCH  18  19
ENDBRANCH  17  18
ENDBRANCH  16  17
ENDBRANCH  11  16
BRANCH   1  25
HETATM   25  N1  UNL     1      25.042   0.794  53.043  1.00  0.00    -0.332 N 
HETATM   26  C2  UNL     1      26.100   0.114  52.336  1.00  0.00     0.009 A 
HETATM   27  C1  UNL     1      26.295  -1.372  52.507  1.00  0.00     0.068 C 
HETATM   28  C3  UNL     1      26.904   0.796  51.524  1.00  0.00     0.024 A 
HETATM   29  C4  UNL     1      26.738   2.235  51.339  1.00  0.00    -0.001 A 
HETATM   30  C5  UNL     1      25.750   2.771  52.030  1.00  0.00    -0.007 A 
HETATM   31  C6  UNL     1      24.776   2.146  52.971  1.00  0.00     0.158 A 
ENDBRANCH   1  25
TORSDOF 5
ENDMDL
MODEL 7
REMARK VINA RESULT:      -8.4      2.266      6.492
REMARK  5 active torsions:
REMARK  status: ('A' for Active; 'I' for Inactive)
REMARK    1  A    between atoms: N1_7  and  C7_8 
REMARK    2  A    between atoms: N4_18  and  C15_19 
REMARK    3  A    between atoms: C15_19  and  C16_20 
REMARK    4  A    between atoms: C16_20  and  C17_21 
REMARK    5  A    between atoms: C17_21  and  N5_22 
ROOT
HETATM    1  C7  UNL     1      24.142   3.448  50.619  1.00  0.00     0.144 A 
HETATM    2  N2  UNL     1      25.140   4.021  49.914  1.00  0.00    -0.223 NA
HETATM    3  C8  UNL     1      26.434   3.599  50.042  1.00  0.00     0.236 A 
HETATM    4  N3  UNL     1      26.771   2.595  50.876  1.00  0.00    -0.241 NA
HETATM    5  C9  UNL     1      25.787   2.012  51.585  1.00  0.00     0.075 A 
HETATM    6  C10 UNL     1      26.037   0.964  52.468  1.00  0.00     0.071 A 
HETATM    7  C11 UNL     1      25.000   0.386  53.178  1.00  0.00     0.098 A 
HETATM    8  C12 UNL     1      23.702   0.833  53.026  1.00  0.00     0.071 A 
HETATM    9  C13 UNL     1      23.402   1.868  52.165  1.00  0.00     0.050 A 
HETATM   10  C14 UNL     1      24.471   2.416  51.478  1.00  0.00     0.041 A 
HETATM   11  N4  UNL     1      22.661   0.210  53.773  1.00  0.00    -0.314 N 
HETATM   12  C22 UNL     1      23.035  -0.867  54.654  1.00  0.00     0.248 A 
HETATM   13  O2  UNL     1      22.119  -1.426  55.274  1.00  0.00    -0.271 OA
HETATM   14  C23 UNL     1      24.420  -1.324  54.850  1.00  0.00     0.279 A 
HETATM   15  O3  UNL     1      25.344  -0.650  54.031  1.00  0.00    -0.340 OA
ENDROOT
BRANCH  11  16
HETATM   16  C15 UNL     1      21.260   0.619  53.673  1.00  0.00     0.134 C 
BRANCH  16  17
HETATM   17  C16 UNL     1      20.570  -0.092  52.519  1.00  0.00     0.050 C 
BRANCH  17  18
HETATM   18  C17 UNL     1      19.277   0.654  52.304  1.00  0.00     0.274 C 
BRANCH  18  19
HETATM   19  N5  UNL     1      19.281   1.648  51.294  1.00  0.00     0.092 N 
HETATM   20  C18 UNL     1      18.895   1.031  50.006  1.00  0.00     0.298 C 
HETATM   21  C19 UNL     1      17.628   0.250  50.155  1.00  0.00     0.198 C 
HETATM   22  O1  UNL     1      16.693   0.880  50.964  1.00  0.00    -0.388 OA
HETATM   23  C20 UNL     1      16.892   2.247  51.052  1.00  0.00     0.198 C 
HETATM   24  C21 UNL     1      18.269   2.637  51.542  1.00  0.00     0.298 C 
ENDBRANCH  18  19
ENDBRANCH  17  18
ENDBRANCH  16  17
ENDBRANCH  11  16
BRANCH   1  25
HETATM   25  N1  UNL     1      22.865   4.032  50.375  1.00  0.00    -0.332 N 
HETATM   26  C2  UNL     1      22.147   3.476  49.255  1.00  0.00     0.009 A 
HETATM   27  C1  UNL     1      22.762   2.372  48.431  1.00  0.00     0.068 C 
HETATM   28  C3  UNL     1      20.936   3.931  48.947  1.00  0.00     0.024 A 
HETATM   29  C4  UNL     1      20.316   5.000  49.726  1.00  0.00    -0.001 A 
HETATM   30  C5  UNL     1      21.049   5.451  50.727  1.00  0.00    -0.007 A 
HETATM   31  C6  UNL     1      22.408   5.047  51.190  1.00  0.00     0.158 A 
ENDBRANCH   1  25
TORSDOF 5
ENDMDL
MODEL 8
REMARK VINA RESULT:      -8.1      2.921      6.692
REMARK  5 active torsions:
REMARK  status: ('A' for Active; 'I' for Inactive)
REMARK    1  A    between atoms: N1_7  and  C7_8 
REMARK    2  A    between atoms: N4_18  and  C15_19 
REMARK    3  A    between atoms: C15_19  and  C16_20 
REMARK    4  A    between atoms: C16_20  and  C17_21 
REMARK    5  A    between atoms: C17_21  and  N5_22 
ROOT
HETATM    1  C7  UNL     1      24.559   4.593  49.680  1.00  0.00     0.144 A 
HETATM    2  N2  UNL     1      25.492   5.252  48.961  1.00  0.00    -0.223 NA
HETATM    3  C8  UNL     1      26.800   4.854  48.958  1.00  0.00     0.236 A 
HETATM    4  N3  UNL     1      27.216   3.789  49.670  1.00  0.00    -0.241 NA
HETATM    5  C9  UNL     1      26.298   3.120  50.392  1.00  0.00     0.075 A 
HETATM    6  C10 UNL     1      26.633   2.003  51.155  1.00  0.00     0.071 A 
HETATM    7  C11 UNL     1      25.662   1.337  51.881  1.00  0.00     0.098 A 
HETATM    8  C12 UNL     1      24.348   1.762  51.864  1.00  0.00     0.071 A 
HETATM    9  C13 UNL     1      23.966   2.862  51.125  1.00  0.00     0.050 A 
HETATM   10  C14 UNL     1      24.971   3.496  50.416  1.00  0.00     0.041 A 
HETATM   11  N4  UNL     1      23.377   1.047  52.623  1.00  0.00    -0.314 N 
HETATM   12  C22 UNL     1      23.835  -0.093  53.373  1.00  0.00     0.248 A 
HETATM   13  O2  UNL     1      22.978  -0.730  54.003  1.00  0.00    -0.271 OA
HETATM   14  C23 UNL     1      25.239  -0.530  53.428  1.00  0.00     0.279 A 
HETATM   15  O3  UNL     1      26.088   0.238  52.610  1.00  0.00    -0.340 OA
ENDROOT
BRANCH  11  16
HETATM   16  C15 UNL     1      21.965   1.427  52.660  1.00  0.00     0.134 C 
BRANCH  16  17
HETATM   17  C16 UNL     1      21.143   0.549  51.729  1.00  0.00     0.050 C 
BRANCH  17  18
HETATM   18  C17 UNL     1      19.703   0.842  52.069  1.00  0.00     0.274 C 
BRANCH  18  19
HETATM   19  N5  UNL     1      18.760   0.667  51.026  1.00  0.00     0.092 N 
HETATM   20  C18 UNL     1      17.570   1.502  51.303  1.00  0.00     0.298 C 
HETATM   21  C19 UNL     1      17.975   2.912  51.594  1.00  0.00     0.198 C 
HETATM   22  O1  UNL     1      19.002   3.364  50.777  1.00  0.00    -0.388 OA
HETATM   23  C20 UNL     1      19.097   2.655  49.592  1.00  0.00     0.198 C 
HETATM   24  C21 UNL     1      19.273   1.164  49.780  1.00  0.00     0.298 C 
ENDBRANCH  18  19
ENDBRANCH  17  18
ENDBRANCH  16  17
ENDBRANCH  11  16
BRANCH   1  25
HETATM   25  N1  UNL     1      23.257   5.163  49.582  1.00  0.00    -0.332 N 
HETATM   26  C2  UNL     1      22.991   6.231  50.515  1.00  0.00     0.009 A 
HETATM   27  C1  UNL     1      24.046   6.654  51.507  1.00  0.00     0.068 C 
HETATM   28  C3  UNL     1      21.814   6.850  50.500  1.00  0.00     0.024 A 
HETATM   29  C4  UNL     1      20.774   6.462  49.551  1.00  0.00    -0.001 A 
HETATM   30  C5  UNL     1      21.105   5.473  48.742  1.00  0.00    -0.007 A 
HETATM   31  C6  UNL     1      22.369   4.688  48.640  1.00  0.00     0.158 A 
ENDBRANCH   1  25
TORSDOF 5
ENDMDL
MODEL 9
REMARK VINA RESULT:      -8.1      2.564      6.611
REMARK  5 active torsions:
REMARK  status: ('A' for Active; 'I' for Inactive)
REMARK    1  A    between atoms: N1_7  and  C7_8 
REMARK    2  A    between atoms: N4_18  and  C15_19 
REMARK    3  A    between atoms: C15_19  and  C16_20 
REMARK    4  A    between atoms: C16_20  and  C17_21 
REMARK    5  A    between atoms: C17_21  and  N5_22 
ROOT
HETATM    1  C7  UNL     1      24.594   2.673  51.219  1.00  0.00     0.144 A 
HETATM    2  N2  UNL     1      25.938   2.792  51.190  1.00  0.00    -0.223 NA
HETATM    3  C8  UNL     1      26.744   1.928  51.878  1.00  0.00     0.236 A 
HETATM    4  N3  UNL     1      26.235   0.921  52.614  1.00  0.00    -0.241 NA
HETATM    5  C9  UNL     1      24.896   0.787  52.653  1.00  0.00     0.075 A 
HETATM    6  C10 UNL     1      24.279  -0.227  53.382  1.00  0.00     0.071 A 
HETATM    7  C11 UNL     1      22.900  -0.337  53.395  1.00  0.00     0.098 A 
HETATM    8  C12 UNL     1      22.111   0.551  52.689  1.00  0.00     0.071 A 
HETATM    9  C13 UNL     1      22.674   1.571  51.952  1.00  0.00     0.050 A 
HETATM   10  C14 UNL     1      24.056   1.643  51.970  1.00  0.00     0.041 A 
HETATM   11  N4  UNL     1      20.695   0.402  52.726  1.00  0.00    -0.314 N 
HETATM   12  C22 UNL     1      20.166  -0.684  53.511  1.00  0.00     0.248 A 
HETATM   13  O2  UNL     1      18.934  -0.826  53.510  1.00  0.00    -0.271 OA
HETATM   14  C23 UNL     1      20.996  -1.610  54.297  1.00  0.00     0.279 A 
HETATM   15  O3  UNL     1      22.376  -1.375  54.148  1.00  0.00    -0.340 OA
ENDROOT
BRANCH  11  16
HETATM   16  C15 UNL     1      19.786   1.295  52.008  1.00  0.00     0.134 C 
BRANCH  16  17
HETATM   17  C16 UNL     1      19.606   0.840  50.568  1.00  0.00     0.050 C 
BRANCH  17  18
HETATM   18  C17 UNL     1      18.353   1.527  50.084  1.00  0.00     0.274 C 
BRANCH  18  19
HETATM   19  N5  UNL     1      18.499   2.399  48.977  1.00  0.00     0.092 N 
HETATM   20  C18 UNL     1      17.291   3.246  48.864  1.00  0.00     0.298 C 
HETATM   21  C19 UNL     1      16.979   3.894  50.175  1.00  0.00     0.198 C 
HETATM   22  O1  UNL     1      18.110   4.335  50.848  1.00  0.00    -0.388 OA
HETATM   23  C20 UNL     1      19.189   4.541  50.006  1.00  0.00     0.198 C 
HETATM   24  C21 UNL     1      19.575   3.326  49.191  1.00  0.00     0.298 C 
ENDBRANCH  18  19
ENDBRANCH  17  18
ENDBRANCH  16  17
ENDBRANCH  11  16
BRANCH   1  25
HETATM   25  N1  UNL     1      23.917   3.674  50.465  1.00  0.00    -0.332 N 
HETATM   26  C2  UNL     1      23.435   4.793  51.236  1.00  0.00     0.009 A 
HETATM   27  C1  UNL     1      23.648   4.835  52.729  1.00  0.00     0.068 C 
HETATM   28  C3  UNL     1      22.806   5.797  50.631  1.00  0.00     0.024 A 
HETATM   29  C4  UNL     1      22.586   5.784  49.188  1.00  0.00    -0.001 A 
HETATM   30  C5  UNL     1      23.055   4.718  48.567  1.00  0.00    -0.007 A 
HETATM   31  C6  UNL     1      23.772   3.524  49.101  1.00  0.00     0.158 A 
ENDBRANCH   1  25
TORSDOF 5
ENDMDL
