MODEL 1
REMARK VINA RESULT:      -8.5      0.000      0.000
REMARK  6 active torsions:
REMARK  status: ('A' for Active; 'I' for Inactive)
REMARK    1  A    between atoms: C3_3  and  C4_4 
REMARK    2  A    between atoms: N1_8  and  C8_9 
REMARK    3  A    between atoms: N4_22  and  C17_23 
REMARK    4  A    between atoms: C17_23  and  C18_24 
REMARK    5  A    between atoms: C18_24  and  C19_25 
REMARK    6  A    between atoms: C19_25  and  N5_26 
ROOT
HETATM    1  C1  UNL     1      26.910   4.292  49.131  1.00  0.00     0.112 C 
HETATM    2  C2  UNL     1      26.627   3.375  50.251  1.00  0.00    -0.106 C 
HETATM    3  C3  UNL     1      26.391   2.613  51.156  1.00  0.00    -0.070 C 
ENDROOT
BRANCH   3   4
HETATM    4  C4  UNL     1      26.119   1.694  52.226  1.00  0.00     0.009 C 
HETATM    5  C5  UNL     1      26.695   1.816  53.413  1.00  0.00    -0.007 C 
HETATM    6  C6  UNL     1      26.529   0.960  54.625  1.00  0.00     0.048 C 
HETATM    7  C7  UNL     1      26.027  -0.394  54.104  1.00  0.00     0.128 C 
HETATM    8  N1  UNL     1      24.857  -0.064  53.284  1.00  0.00    -0.360 N 
HETATM    9  C25 UNL     1      25.159   0.562  52.002  1.00  0.00     0.172 C 
BRANCH   8  10
HETATM   10  C8  UNL     1      23.491  -0.332  53.697  1.00  0.00     0.136 C 
HETATM   11  N2  UNL     1      22.678  -1.179  54.308  1.00  0.00    -0.224 NA
HETATM   12  C9  UNL     1      21.288  -0.944  54.486  1.00  0.00     0.230 C 
HETATM   13  N3  UNL     1      20.554   0.111  54.135  1.00  0.00    -0.266 NA
HETATM   14  C10 UNL     1      21.341   1.138  53.508  1.00  0.00     0.205 A 
HETATM   15  C11 UNL     1      22.592   0.597  52.935  1.00  0.00     0.021 A 
HETATM   16  C14 UNL     1      20.767   1.961  52.468  1.00  0.00     0.103 A 
HETATM   17  C12 UNL     1      22.643   1.136  51.700  1.00  0.00     0.046 A 
HETATM   18  C13 UNL     1      21.510   1.994  51.381  1.00  0.00     0.069 A 
HETATM   19  N4  UNL     1      21.153   2.745  50.233  1.00  0.00    -0.314 N 
HETATM   20  C16 UNL     1      19.934   3.471  50.321  1.00  0.00     0.248 A 
HETATM   21  C15 UNL     1      19.076   3.481  51.533  1.00  0.00     0.278 A 
HETATM   22  O2  UNL     1      19.578   4.133  49.311  1.00  0.00    -0.271 OA
HETATM   23  O1  UNL     1      19.584   2.657  52.540  1.00  0.00    -0.341 OA
BRANCH  19  24
HETATM   24  C17 UNL     1      22.019   2.747  49.055  1.00  0.00     0.134 C 
BRANCH  24  25
HETATM   25  C18 UNL     1      23.224   3.602  49.481  1.00  0.00     0.050 C 
BRANCH  25  26
HETATM   26  C19 UNL     1      22.915   5.066  49.385  1.00  0.00     0.274 C 
BRANCH  26  27
HETATM   27  N5  UNL     1      22.708   5.645  50.676  1.00  0.00     0.088 N 
HETATM   28  C20 UNL     1      23.958   5.849  51.392  1.00  0.00     0.272 C 
HETATM   29  C21 UNL     1      24.808   6.890  50.739  1.00  0.00     0.030 C 
HETATM   30  C22 UNL     1      24.114   8.184  50.448  1.00  0.00     0.003 C 
HETATM   31  C23 UNL     1      22.703   7.980  49.935  1.00  0.00     0.030 C 
HETATM   32  C24 UNL     1      21.992   6.879  50.687  1.00  0.00     0.272 C 
ENDBRANCH  26  27
ENDBRANCH  25  26
ENDBRANCH  24  25
ENDBRANCH  19  24
ENDBRANCH   8  10
ENDBRANCH   3   4
TORSDOF 6
ENDMDL
MODEL 2
REMARK VINA RESULT:      -8.4      2.424      5.341
REMARK  6 active torsions:
REMARK  status: ('A' for Active; 'I' for Inactive)
REMARK    1  A    between atoms: C3_3  and  C4_4 
REMARK    2  A    between atoms: N1_8  and  C8_9 
REMARK    3  A    between atoms: N4_22  and  C17_23 
REMARK    4  A    between atoms: C17_23  and  C18_24 
REMARK    5  A    between atoms: C18_24  and  C19_25 
REMARK    6  A    between atoms: C19_25  and  N5_26 
ROOT
HETATM    1  C1  UNL     1      21.512   3.660  45.471  1.00  0.00     0.112 C 
HETATM    2  C2  UNL     1      22.079   3.786  46.826  1.00  0.00    -0.106 C 
HETATM    3  C3  UNL     1      22.548   3.873  47.935  1.00  0.00    -0.070 C 
ENDROOT
BRANCH   3   4
HETATM    4  C4  UNL     1      23.119   3.969  49.249  1.00  0.00     0.009 C 
HETATM    5  C5  UNL     1      22.403   4.359  50.294  1.00  0.00    -0.007 C 
HETATM    6  C6  UNL     1      22.832   4.513  51.715  1.00  0.00     0.048 C 
HETATM    7  C7  UNL     1      24.356   4.690  51.667  1.00  0.00     0.128 C 
HETATM    8  N1  UNL     1      24.837   3.547  50.885  1.00  0.00    -0.360 N 
HETATM    9  C25 UNL     1      24.565   3.620  49.454  1.00  0.00     0.172 C 
BRANCH   8  10
HETATM   10  C8  UNL     1      25.534   2.415  51.470  1.00  0.00     0.136 C 
HETATM   11  N2  UNL     1      26.663   1.725  51.508  1.00  0.00    -0.224 NA
HETATM   12  C9  UNL     1      26.866   0.597  52.347  1.00  0.00     0.230 C 
HETATM   13  N3  UNL     1      26.044   0.041  53.236  1.00  0.00    -0.266 NA
HETATM   14  C10 UNL     1      24.791   0.741  53.332  1.00  0.00     0.205 A 
HETATM   15  C11 UNL     1      24.508   1.528  52.112  1.00  0.00     0.021 A 
HETATM   16  C14 UNL     1      23.573   0.017  53.614  1.00  0.00     0.103 A 
HETATM   17  C12 UNL     1      23.226   1.228  51.823  1.00  0.00     0.046 A 
HETATM   18  C13 UNL     1      22.616   0.282  52.748  1.00  0.00     0.069 A 
HETATM   19  N4  UNL     1      21.328  -0.304  52.829  1.00  0.00    -0.314 N 
HETATM   20  C16 UNL     1      21.122  -1.203  53.910  1.00  0.00     0.248 A 
HETATM   21  C15 UNL     1      22.164  -1.514  54.922  1.00  0.00     0.278 A 
HETATM   22  O2  UNL     1      19.995  -1.756  54.000  1.00  0.00    -0.271 OA
HETATM   23  O1  UNL     1      23.369  -0.863  54.650  1.00  0.00    -0.341 OA
BRANCH  19  24
HETATM   24  C17 UNL     1      20.303   0.030  51.841  1.00  0.00     0.134 C 
BRANCH  24  25
HETATM   25  C18 UNL     1      19.609   1.269  52.430  1.00  0.00     0.050 C 
BRANCH  25  26
HETATM   26  C19 UNL     1      19.590   2.402  51.448  1.00  0.00     0.274 C 
BRANCH  26  27
HETATM   27  N5  UNL     1      18.295   2.572  50.868  1.00  0.00     0.088 N 
HETATM   28  C20 UNL     1      17.872   3.964  50.867  1.00  0.00     0.272 C 
HETATM   29  C21 UNL     1      18.711   4.799  49.956  1.00  0.00     0.030 C 
HETATM   30  C22 UNL     1      18.864   4.262  48.566  1.00  0.00     0.003 C 
HETATM   31  C23 UNL     1      19.054   2.759  48.545  1.00  0.00     0.030 C 
HETATM   32  C24 UNL     1      18.148   2.071  49.539  1.00  0.00     0.272 C 
ENDBRANCH  26  27
ENDBRANCH  25  26
ENDBRANCH  24  25
ENDBRANCH  19  24
ENDBRANCH   8  10
ENDBRANCH   3   4
TORSDOF 6
ENDMDL
MODEL 3
REMARK VINA RESULT:      -8.3      2.410      4.992
REMARK  6 active torsions:
REMARK  status: ('A' for Active; 'I' for Inactive)
REMARK    1  A    between atoms: C3_3  and  C4_4 
REMARK    2  A    between atoms: N1_8  and  C8_9 
REMARK    3  A    between atoms: N4_22  and  C17_23 
REMARK    4  A    between atoms: C17_23  and  C18_24 
REMARK    5  A    between atoms: C18_24  and  C19_25 
REMARK    6  A    between atoms: C19_25  and  N5_26 
ROOT
HETATM    1  C1  UNL     1      21.175   7.434  50.660  1.00  0.00     0.112 C 
HETATM    2  C2  UNL     1      21.054   5.965  50.654  1.00  0.00    -0.106 C 
HETATM    3  C3  UNL     1      20.969   4.761  50.658  1.00  0.00    -0.070 C 
ENDROOT
BRANCH   3   4
HETATM    4  C4  UNL     1      20.869   3.328  50.681  1.00  0.00     0.009 C 
HETATM    5  C5  UNL     1      21.339   2.581  49.692  1.00  0.00    -0.007 C 
HETATM    6  C6  UNL     1      21.321   1.095  49.553  1.00  0.00     0.048 C 
HETATM    7  C7  UNL     1      20.180   0.613  50.461  1.00  0.00     0.128 C 
HETATM    8  N1  UNL     1      20.466   1.215  51.766  1.00  0.00    -0.360 N 
HETATM    9  C25 UNL     1      20.219   2.650  51.851  1.00  0.00     0.172 C 
BRANCH   8  10
HETATM   10  C8  UNL     1      20.959   0.460  52.904  1.00  0.00     0.136 C 
HETATM   11  N2  UNL     1      20.652  -0.097  54.065  1.00  0.00    -0.224 NA
HETATM   12  C9  UNL     1      21.584  -0.811  54.865  1.00  0.00     0.230 C 
HETATM   13  N3  UNL     1      22.867  -1.086  54.632  1.00  0.00    -0.266 NA
HETATM   14  C10 UNL     1      23.311  -0.579  53.362  1.00  0.00     0.205 A 
HETATM   15  C11 UNL     1      22.458   0.531  52.886  1.00  0.00     0.021 A 
HETATM   16  C14 UNL     1      24.670  -0.117  53.198  1.00  0.00     0.103 A 
HETATM   17  C12 UNL     1      23.340   1.472  52.492  1.00  0.00     0.046 A 
HETATM   18  C13 UNL     1      24.733   1.092  52.679  1.00  0.00     0.069 A 
HETATM   19  N4  UNL     1      25.962   1.748  52.416  1.00  0.00    -0.314 N 
HETATM   20  C16 UNL     1      27.137   1.020  52.748  1.00  0.00     0.248 A 
HETATM   21  C15 UNL     1      27.114  -0.352  53.315  1.00  0.00     0.278 A 
HETATM   22  O2  UNL     1      28.246   1.582  52.546  1.00  0.00    -0.271 OA
HETATM   23  O1  UNL     1      25.811  -0.809  53.527  1.00  0.00    -0.341 OA
BRANCH  19  24
HETATM   24  C17 UNL     1      25.973   3.089  51.835  1.00  0.00     0.134 C 
BRANCH  24  25
HETATM   25  C18 UNL     1      25.864   2.839  50.322  1.00  0.00     0.050 C 
BRANCH  25  26
HETATM   26  C19 UNL     1      25.770   4.129  49.562  1.00  0.00     0.274 C 
BRANCH  26  27
HETATM   27  N5  UNL     1      24.505   4.765  49.764  1.00  0.00     0.088 N 
HETATM   28  C20 UNL     1      24.562   5.779  50.805  1.00  0.00     0.272 C 
HETATM   29  C21 UNL     1      25.411   6.940  50.404  1.00  0.00     0.030 C 
HETATM   30  C22 UNL     1      25.087   7.531  49.067  1.00  0.00     0.003 C 
HETATM   31  C23 UNL     1      24.775   6.474  48.028  1.00  0.00     0.030 C 
HETATM   32  C24 UNL     1      23.928   5.363  48.603  1.00  0.00     0.272 C 
ENDBRANCH  26  27
ENDBRANCH  25  26
ENDBRANCH  24  25
ENDBRANCH  19  24
ENDBRANCH   8  10
ENDBRANCH   3   4
TORSDOF 6
ENDMDL
MODEL 4
REMARK VINA RESULT:      -7.9      5.350      9.227
REMARK  6 active torsions:
REMARK  status: ('A' for Active; 'I' for Inactive)
REMARK    1  A    between atoms: C3_3  and  C4_4 
REMARK    2  A    between atoms: N1_8  and  C8_9 
REMARK    3  A    between atoms: N4_22  and  C17_23 
REMARK    4  A    between atoms: C17_23  and  C18_24 
REMARK    5  A    between atoms: C18_24  and  C19_25 
REMARK    6  A    between atoms: C19_25  and  N5_26 
ROOT
HETATM    1  C1  UNL     1      33.754   4.536  41.668  1.00  0.00     0.112 C 
HETATM    2  C2  UNL     1      33.522   4.716  43.113  1.00  0.00    -0.106 C 
HETATM    3  C3  UNL     1      33.317   4.860  44.293  1.00  0.00    -0.070 C 
ENDROOT
BRANCH   3   4
HETATM    4  C4  UNL     1      33.065   5.015  45.699  1.00  0.00     0.009 C 
HETATM    5  C5  UNL     1      34.031   4.891  46.598  1.00  0.00    -0.007 C 
HETATM    6  C6  UNL     1      33.948   5.019  48.083  1.00  0.00     0.048 C 
HETATM    7  C7  UNL     1      32.477   4.758  48.435  1.00  0.00     0.128 C 
HETATM    8  N1  UNL     1      31.723   5.684  47.585  1.00  0.00    -0.360 N 
HETATM    9  C25 UNL     1      31.674   5.325  46.172  1.00  0.00     0.172 C 
BRANCH   8  10
HETATM   10  C8  UNL     1      31.065   6.876  48.089  1.00  0.00     0.136 C 
HETATM   11  N2  UNL     1      31.229   8.059  48.659  1.00  0.00    -0.224 NA
HETATM   12  C9  UNL     1      30.158   8.944  48.957  1.00  0.00     0.230 C 
HETATM   13  N3  UNL     1      28.854   8.807  48.720  1.00  0.00    -0.266 NA
HETATM   14  C10 UNL     1      28.549   7.575  48.044  1.00  0.00     0.205 A 
HETATM   15  C11 UNL     1      29.607   6.561  48.248  1.00  0.00     0.021 A 
HETATM   16  C14 UNL     1      27.304   6.890  48.307  1.00  0.00     0.103 A 
HETATM   17  C12 UNL     1      28.926   5.443  48.570  1.00  0.00     0.046 A 
HETATM   18  C13 UNL     1      27.481   5.621  48.616  1.00  0.00     0.069 A 
HETATM   19  N4  UNL     1      26.403   4.747  48.904  1.00  0.00    -0.314 N 
HETATM   20  C16 UNL     1      25.104   5.321  48.840  1.00  0.00     0.248 A 
HETATM   21  C15 UNL     1      24.857   6.739  48.476  1.00  0.00     0.278 A 
HETATM   22  O2  UNL     1      24.126   4.576  49.110  1.00  0.00    -0.271 OA
HETATM   23  O1  UNL     1      26.045   7.440  48.260  1.00  0.00    -0.341 OA
BRANCH  19  24
HETATM   24  C17 UNL     1      26.658   3.347  49.237  1.00  0.00     0.134 C 
BRANCH  24  25
HETATM   25  C18 UNL     1      26.684   3.329  50.774  1.00  0.00     0.050 C 
BRANCH  25  26
HETATM   26  C19 UNL     1      25.859   2.202  51.321  1.00  0.00     0.274 C 
BRANCH  26  27
HETATM   27  N5  UNL     1      26.073   2.028  52.724  1.00  0.00     0.088 N 
HETATM   28  C20 UNL     1      24.909   1.467  53.391  1.00  0.00     0.272 C 
HETATM   29  C21 UNL     1      24.645   0.061  52.960  1.00  0.00     0.030 C 
HETATM   30  C22 UNL     1      25.826  -0.856  53.033  1.00  0.00     0.003 C 
HETATM   31  C23 UNL     1      27.106  -0.189  52.572  1.00  0.00     0.030 C 
HETATM   32  C24 UNL     1      27.204   1.231  53.076  1.00  0.00     0.272 C 
ENDBRANCH  26  27
ENDBRANCH  25  26
ENDBRANCH  24  25
ENDBRANCH  19  24
ENDBRANCH   8  10
ENDBRANCH   3   4
TORSDOF 6
ENDMDL
MODEL 5
REMARK VINA RESULT:      -7.8      2.328      6.715
REMARK  6 active torsions:
REMARK  status: ('A' for Active; 'I' for Inactive)
REMARK    1  A    between atoms: C3_3  and  C4_4 
REMARK    2  A    between atoms: N1_8  and  C8_9 
REMARK    3  A    between atoms: N4_22  and  C17_23 
REMARK    4  A    between atoms: C17_23  and  C18_24 
REMARK    5  A    between atoms: C18_24  and  C19_25 
REMARK    6  A    between atoms: C19_25  and  N5_26 
ROOT
HETATM    1  C1  UNL     1      31.217   5.110  47.517  1.00  0.00     0.112 C 
HETATM    2  C2  UNL     1      29.913   5.699  47.873  1.00  0.00    -0.106 C 
HETATM    3  C3  UNL     1      28.844   6.170  48.176  1.00  0.00    -0.070 C 
ENDROOT
BRANCH   3   4
HETATM    4  C4  UNL     1      27.576   6.730  48.554  1.00  0.00     0.009 C 
HETATM    5  C5  UNL     1      27.430   8.025  48.793  1.00  0.00    -0.007 C 
HETATM    6  C6  UNL     1      26.199   8.769  49.191  1.00  0.00     0.048 C 
HETATM    7  C7  UNL     1      25.273   7.720  49.822  1.00  0.00     0.128 C 
HETATM    8  N1  UNL     1      25.183   6.654  48.819  1.00  0.00    -0.360 N 
HETATM    9  C25 UNL     1      26.380   5.832  48.684  1.00  0.00     0.172 C 
BRANCH   8  10
HETATM   10  C8  UNL     1      24.001   6.416  48.010  1.00  0.00     0.136 C 
HETATM   11  N2  UNL     1      23.168   6.919  47.113  1.00  0.00    -0.224 NA
HETATM   12  C9  UNL     1      22.069   6.201  46.570  1.00  0.00     0.230 C 
HETATM   13  N3  UNL     1      21.679   4.947  46.799  1.00  0.00    -0.266 NA
HETATM   14  C10 UNL     1      22.546   4.266  47.722  1.00  0.00     0.205 A 
HETATM   15  C11 UNL     1      23.296   5.216  48.572  1.00  0.00     0.021 A 
HETATM   16  C14 UNL     1      22.009   3.279  48.630  1.00  0.00     0.103 A 
HETATM   17  C12 UNL     1      23.157   4.717  49.817  1.00  0.00     0.046 A 
HETATM   18  C13 UNL     1      22.353   3.504  49.882  1.00  0.00     0.069 A 
HETATM   19  N4  UNL     1      21.952   2.661  50.948  1.00  0.00    -0.314 N 
HETATM   20  C16 UNL     1      21.149   1.545  50.589  1.00  0.00     0.248 A 
HETATM   21  C15 UNL     1      20.755   1.241  49.190  1.00  0.00     0.278 A 
HETATM   22  O2  UNL     1      20.758   0.786  51.515  1.00  0.00    -0.271 OA
HETATM   23  O1  UNL     1      21.222   2.204  48.293  1.00  0.00    -0.341 OA
BRANCH  19  24
HETATM   24  C17 UNL     1      22.367   2.957  52.318  1.00  0.00     0.134 C 
BRANCH  24  25
HETATM   25  C18 UNL     1      23.867   2.619  52.334  1.00  0.00     0.050 C 
BRANCH  25  26
HETATM   26  C19 UNL     1      24.119   1.287  52.975  1.00  0.00     0.274 C 
BRANCH  26  27
HETATM   27  N5  UNL     1      25.361   1.273  53.684  1.00  0.00     0.088 N 
HETATM   28  C20 UNL     1      25.627  -0.018  54.299  1.00  0.00     0.272 C 
HETATM   29  C21 UNL     1      25.863  -1.082  53.278  1.00  0.00     0.030 C 
HETATM   30  C22 UNL     1      26.880  -0.742  52.232  1.00  0.00     0.003 C 
HETATM   31  C23 UNL     1      26.769   0.694  51.764  1.00  0.00     0.030 C 
HETATM   32  C24 UNL     1      26.509   1.635  52.917  1.00  0.00     0.272 C 
ENDBRANCH  26  27
ENDBRANCH  25  26
ENDBRANCH  24  25
ENDBRANCH  19  24
ENDBRANCH   8  10
ENDBRANCH   3   4
TORSDOF 6
ENDMDL
MODEL 6
REMARK VINA RESULT:      -7.5     11.014     14.196
REMARK  6 active torsions:
REMARK  status: ('A' for Active; 'I' for Inactive)
REMARK    1  A    between atoms: C3_3  and  C4_4 
REMARK    2  A    between atoms: N1_8  and  C8_9 
REMARK    3  A    between atoms: N4_22  and  C17_23 
REMARK    4  A    between atoms: C17_23  and  C18_24 
REMARK    5  A    between atoms: C18_24  and  C19_25 
REMARK    6  A    between atoms: C19_25  and  N5_26 
ROOT
HETATM    1  C1  UNL     1      32.026   0.220  46.574  1.00  0.00     0.112 C 
HETATM    2  C2  UNL     1      32.449   1.575  46.972  1.00  0.00    -0.106 C 
HETATM    3  C3  UNL     1      32.792   2.681  47.314  1.00  0.00    -0.070 C 
ENDROOT
BRANCH   3   4
HETATM    4  C4  UNL     1      33.211   3.989  47.733  1.00  0.00     0.009 C 
HETATM    5  C5  UNL     1      34.484   4.358  47.698  1.00  0.00    -0.007 C 
HETATM    6  C6  UNL     1      35.090   5.664  48.091  1.00  0.00     0.048 C 
HETATM    7  C7  UNL     1      34.088   6.304  49.062  1.00  0.00     0.128 C 
HETATM    8  N1  UNL     1      32.811   6.285  48.343  1.00  0.00    -0.360 N 
HETATM    9  C25 UNL     1      32.189   4.971  48.225  1.00  0.00     0.172 C 
BRANCH   8  10
HETATM   10  C8  UNL     1      32.192   7.473  47.782  1.00  0.00     0.136 C 
HETATM   11  N2  UNL     1      31.164   8.304  47.841  1.00  0.00    -0.224 NA
HETATM   12  C9  UNL     1      31.022   9.440  46.999  1.00  0.00     0.230 C 
HETATM   13  N3  UNL     1      31.841   9.906  46.057  1.00  0.00    -0.266 NA
HETATM   14  C10 UNL     1      33.036   9.115  45.934  1.00  0.00     0.205 A 
HETATM   15  C11 UNL     1      32.843   7.745  46.457  1.00  0.00     0.021 A 
HETATM   16  C14 UNL     1      33.669   8.949  44.646  1.00  0.00     0.103 A 
HETATM   17  C12 UNL     1      33.367   6.955  45.498  1.00  0.00     0.046 A 
HETATM   18  C13 UNL     1      33.890   7.684  44.351  1.00  0.00     0.069 A 
HETATM   19  N4  UNL     1      34.510   7.278  43.143  1.00  0.00    -0.314 N 
HETATM   20  C16 UNL     1      34.887   8.323  42.256  1.00  0.00     0.248 A 
HETATM   21  C15 UNL     1      34.677   9.762  42.557  1.00  0.00     0.278 A 
HETATM   22  O2  UNL     1      35.423   7.996  41.165  1.00  0.00    -0.271 OA
HETATM   23  O1  UNL     1      34.025   9.953  43.778  1.00  0.00    -0.341 OA
BRANCH  19  24
HETATM   24  C17 UNL     1      34.734   5.859  42.870  1.00  0.00     0.134 C 
BRANCH  24  25
HETATM   25  C18 UNL     1      33.410   5.388  42.246  1.00  0.00     0.050 C 
BRANCH  25  26
HETATM   26  C19 UNL     1      33.565   4.052  41.581  1.00  0.00     0.274 C 
BRANCH  26  27
HETATM   27  N5  UNL     1      33.245   4.119  40.189  1.00  0.00     0.088 N 
HETATM   28  C20 UNL     1      34.292   3.548  39.357  1.00  0.00     0.272 C 
HETATM   29  C21 UNL     1      34.418   2.073  39.556  1.00  0.00     0.030 C 
HETATM   30  C22 UNL     1      33.136   1.307  39.444  1.00  0.00     0.003 C 
HETATM   31  C23 UNL     1      31.974   2.026  40.098  1.00  0.00     0.030 C 
HETATM   32  C24 UNL     1      32.009   3.509  39.815  1.00  0.00     0.272 C 
ENDBRANCH  26  27
ENDBRANCH  25  26
ENDBRANCH  24  25
ENDBRANCH  19  24
ENDBRANCH   8  10
ENDBRANCH   3   4
TORSDOF 6
ENDMDL
MODEL 7
REMARK VINA RESULT:      -7.5      2.048      5.904
REMARK  6 active torsions:
REMARK  status: ('A' for Active; 'I' for Inactive)
REMARK    1  A    between atoms: C3_3  and  C4_4 
REMARK    2  A    between atoms: N1_8  and  C8_9 
REMARK    3  A    between atoms: N4_22  and  C17_23 
REMARK    4  A    between atoms: C17_23  and  C18_24 
REMARK    5  A    between atoms: C18_24  and  C19_25 
REMARK    6  A    between atoms: C19_25  and  N5_26 
ROOT
HETATM    1  C1  UNL     1      26.291   8.483  47.084  1.00  0.00     0.112 C 
HETATM    2  C2  UNL     1      25.745   7.335  47.830  1.00  0.00    -0.106 C 
HETATM    3  C3  UNL     1      25.295   6.405  48.454  1.00  0.00    -0.070 C 
ENDROOT
BRANCH   3   4
HETATM    4  C4  UNL     1      24.746   5.307  49.200  1.00  0.00     0.009 C 
HETATM    5  C5  UNL     1      25.317   4.866  50.312  1.00  0.00    -0.007 C 
HETATM    6  C6  UNL     1      24.886   3.749  51.204  1.00  0.00     0.048 C 
HETATM    7  C7  UNL     1      24.006   2.843  50.330  1.00  0.00     0.128 C 
HETATM    8  N1  UNL     1      23.000   3.744  49.759  1.00  0.00    -0.360 N 
HETATM    9  C25 UNL     1      23.492   4.638  48.717  1.00  0.00     0.172 C 
BRANCH   8  10
HETATM   10  C8  UNL     1      21.611   3.763  50.183  1.00  0.00     0.136 C 
HETATM   11  N2  UNL     1      20.498   4.475  50.256  1.00  0.00    -0.224 NA
HETATM   12  C9  UNL     1      19.282   3.979  50.797  1.00  0.00     0.230 C 
HETATM   13  N3  UNL     1      19.000   2.771  51.286  1.00  0.00    -0.266 NA
HETATM   14  C10 UNL     1      20.124   1.877  51.209  1.00  0.00     0.205 A 
HETATM   15  C11 UNL     1      21.404   2.611  51.123  1.00  0.00     0.021 A 
HETATM   16  C14 UNL     1      20.324   0.871  52.227  1.00  0.00     0.103 A 
HETATM   17  C12 UNL     1      22.193   1.994  52.025  1.00  0.00     0.046 A 
HETATM   18  C13 UNL     1      21.540   0.901  52.733  1.00  0.00     0.069 A 
HETATM   19  N4  UNL     1      21.971   0.001  53.740  1.00  0.00    -0.314 N 
HETATM   20  C16 UNL     1      21.007  -0.947  54.179  1.00  0.00     0.248 A 
HETATM   21  C15 UNL     1      19.633  -1.031  53.621  1.00  0.00     0.278 A 
HETATM   22  O2  UNL     1      21.352  -1.749  55.087  1.00  0.00    -0.271 OA
HETATM   23  O1  UNL     1      19.395  -0.041  52.665  1.00  0.00    -0.341 OA
BRANCH  19  24
HETATM   24  C17 UNL     1      23.334   0.077  54.263  1.00  0.00     0.134 C 
BRANCH  24  25
HETATM   25  C18 UNL     1      24.189  -0.588  53.171  1.00  0.00     0.050 C 
BRANCH  25  26
HETATM   26  C19 UNL     1      25.602  -0.788  53.630  1.00  0.00     0.274 C 
BRANCH  26  27
HETATM   27  N5  UNL     1      26.516  -0.790  52.531  1.00  0.00     0.088 N 
HETATM   28  C20 UNL     1      26.628   0.519  51.907  1.00  0.00     0.272 C 
HETATM   29  C21 UNL     1      27.270   1.514  52.816  1.00  0.00     0.030 C 
HETATM   30  C22 UNL     1      28.565   1.074  53.425  1.00  0.00     0.003 C 
HETATM   31  C23 UNL     1      28.539  -0.379  53.851  1.00  0.00     0.030 C 
HETATM   32  C24 UNL     1      27.835  -1.244  52.832  1.00  0.00     0.272 C 
ENDBRANCH  26  27
ENDBRANCH  25  26
ENDBRANCH  24  25
ENDBRANCH  19  24
ENDBRANCH   8  10
ENDBRANCH   3   4
TORSDOF 6
ENDMDL
MODEL 8
REMARK VINA RESULT:      -7.4      6.292     10.010
REMARK  6 active torsions:
REMARK  status: ('A' for Active; 'I' for Inactive)
REMARK    1  A    between atoms: C3_3  and  C4_4 
REMARK    2  A    between atoms: N1_8  and  C8_9 
REMARK    3  A    between atoms: N4_22  and  C17_23 
REMARK    4  A    between atoms: C17_23  and  C18_24 
REMARK    5  A    between atoms: C18_24  and  C19_25 
REMARK    6  A    between atoms: C19_25  and  N5_26 
ROOT
HETATM    1  C1  UNL     1      31.835   0.234  46.352  1.00  0.00     0.112 C 
HETATM    2  C2  UNL     1      32.250   1.584  46.775  1.00  0.00    -0.106 C 
HETATM    3  C3  UNL     1      32.602   2.689  47.108  1.00  0.00    -0.070 C 
ENDROOT
BRANCH   3   4
HETATM    4  C4  UNL     1      33.017   4.010  47.489  1.00  0.00     0.009 C 
HETATM    5  C5  UNL     1      34.267   4.273  47.841  1.00  0.00    -0.007 C 
HETATM    6  C6  UNL     1      34.866   5.575  48.261  1.00  0.00     0.048 C 
HETATM    7  C7  UNL     1      33.689   6.426  48.756  1.00  0.00     0.128 C 
HETATM    8  N1  UNL     1      32.720   6.395  47.657  1.00  0.00    -0.360 N 
HETATM    9  C25 UNL     1      32.016   5.129  47.490  1.00  0.00     0.172 C 
BRANCH   8  10
HETATM   10  C8  UNL     1      32.464   7.528  46.785  1.00  0.00     0.136 C 
HETATM   11  N2  UNL     1      32.976   8.606  46.212  1.00  0.00    -0.224 NA
HETATM   12  C9  UNL     1      32.241   9.457  45.343  1.00  0.00     0.230 C 
HETATM   13  N3  UNL     1      30.982   9.354  44.918  1.00  0.00    -0.266 NA
HETATM   14  C10 UNL     1      30.329   8.179  45.430  1.00  0.00     0.205 A 
HETATM   15  C11 UNL     1      30.977   7.685  46.664  1.00  0.00     0.021 A 
HETATM   16  C14 UNL     1      28.914   8.203  45.721  1.00  0.00     0.103 A 
HETATM   17  C12 UNL     1      29.946   7.459  47.503  1.00  0.00     0.046 A 
HETATM   18  C13 UNL     1      28.642   7.777  46.937  1.00  0.00     0.069 A 
HETATM   19  N4  UNL     1      27.320   7.701  47.443  1.00  0.00    -0.314 N 
HETATM   20  C16 UNL     1      26.291   8.114  46.553  1.00  0.00     0.248 A 
HETATM   21  C15 UNL     1      26.550   8.581  45.168  1.00  0.00     0.278 A 
HETATM   22  O2  UNL     1      25.106   8.078  46.978  1.00  0.00    -0.271 OA
HETATM   23  O1  UNL     1      27.914   8.612  44.872  1.00  0.00    -0.341 OA
BRANCH  19  24
HETATM   24  C17 UNL     1      27.076   7.216  48.800  1.00  0.00     0.134 C 
BRANCH  24  25
HETATM   25  C18 UNL     1      26.964   5.691  48.636  1.00  0.00     0.050 C 
BRANCH  25  26
HETATM   26  C19 UNL     1      26.006   5.105  49.630  1.00  0.00     0.274 C 
BRANCH  26  27
HETATM   27  N5  UNL     1      24.740   5.768  49.594  1.00  0.00     0.088 N 
HETATM   28  C20 UNL     1      23.814   5.132  48.670  1.00  0.00     0.272 C 
HETATM   29  C21 UNL     1      23.415   3.770  49.134  1.00  0.00     0.030 C 
HETATM   30  C22 UNL     1      22.929   3.699  50.549  1.00  0.00     0.003 C 
HETATM   31  C23 UNL     1      23.745   4.568  51.484  1.00  0.00     0.030 C 
HETATM   32  C24 UNL     1      24.081   5.899  50.853  1.00  0.00     0.272 C 
ENDBRANCH  26  27
ENDBRANCH  25  26
ENDBRANCH  24  25
ENDBRANCH  19  24
ENDBRANCH   8  10
ENDBRANCH   3   4
TORSDOF 6
ENDMDL
MODEL 9
REMARK VINA RESULT:      -7.2      4.673      8.689
REMARK  6 active torsions:
REMARK  status: ('A' for Active; 'I' for Inactive)
REMARK    1  A    between atoms: C3_3  and  C4_4 
REMARK    2  A    between atoms: N1_8  and  C8_9 
REMARK    3  A    between atoms: N4_22  and  C17_23 
REMARK    4  A    between atoms: C17_23  and  C18_24 
REMARK    5  A    between atoms: C18_24  and  C19_25 
REMARK    6  A    between atoms: C19_25  and  N5_26 
ROOT
HETATM    1  C1  UNL     1      32.203   2.427  46.475  1.00  0.00     0.112 C 
HETATM    2  C2  UNL     1      31.958   3.772  47.027  1.00  0.00    -0.106 C 
HETATM    3  C3  UNL     1      31.767   4.880  47.467  1.00  0.00    -0.070 C 
ENDROOT
BRANCH   3   4
HETATM    4  C4  UNL     1      31.536   6.203  47.974  1.00  0.00     0.009 C 
HETATM    5  C5  UNL     1      32.536   7.036  48.229  1.00  0.00    -0.007 C 
HETATM    6  C6  UNL     1      32.477   8.433  48.753  1.00  0.00     0.048 C 
HETATM    7  C7  UNL     1      31.127   8.543  49.476  1.00  0.00     0.128 C 
HETATM    8  N1  UNL     1      30.140   8.099  48.486  1.00  0.00    -0.360 N 
HETATM    9  C25 UNL     1      30.130   6.664  48.226  1.00  0.00     0.172 C 
BRANCH   8  10
HETATM   10  C8  UNL     1      29.231   9.002  47.804  1.00  0.00     0.136 C 
HETATM   11  N2  UNL     1      29.045  10.230  47.347  1.00  0.00    -0.224 NA
HETATM   12  C9  UNL     1      27.870  10.646  46.666  1.00  0.00     0.230 C 
HETATM   13  N3  UNL     1      26.789   9.942  46.332  1.00  0.00    -0.266 NA
HETATM   14  C10 UNL     1      26.893   8.563  46.725  1.00  0.00     0.205 A 
HETATM   15  C11 UNL     1      27.867   8.378  47.823  1.00  0.00     0.021 A 
HETATM   16  C14 UNL     1      25.715   7.830  47.128  1.00  0.00     0.103 A 
HETATM   17  C12 UNL     1      27.218   7.587  48.702  1.00  0.00     0.046 A 
HETATM   18  C13 UNL     1      25.866   7.230  48.291  1.00  0.00     0.069 A 
HETATM   19  N4  UNL     1      24.847   6.444  48.884  1.00  0.00    -0.314 N 
HETATM   20  C16 UNL     1      23.637   6.336  48.145  1.00  0.00     0.248 A 
HETATM   21  C15 UNL     1      23.431   6.977  46.821  1.00  0.00     0.278 A 
HETATM   22  O2  UNL     1      22.704   5.661  48.653  1.00  0.00    -0.271 OA
HETATM   23  O1  UNL     1      24.538   7.730  46.425  1.00  0.00    -0.341 OA
BRANCH  19  24
HETATM   24  C17 UNL     1      25.072   5.798  50.176  1.00  0.00     0.134 C 
BRANCH  24  25
HETATM   25  C18 UNL     1      25.829   4.508  49.820  1.00  0.00     0.050 C 
BRANCH  25  26
HETATM   26  C19 UNL     1      25.243   3.320  50.524  1.00  0.00     0.274 C 
BRANCH  26  27
HETATM   27  N5  UNL     1      24.076   3.675  51.269  1.00  0.00     0.088 N 
HETATM   28  C20 UNL     1      22.897   2.953  50.818  1.00  0.00     0.272 C 
HETATM   29  C21 UNL     1      22.995   1.491  51.110  1.00  0.00     0.030 C 
HETATM   30  C22 UNL     1      23.351   1.150  52.523  1.00  0.00     0.003 C 
HETATM   31  C23 UNL     1      24.412   2.070  53.090  1.00  0.00     0.030 C 
HETATM   32  C24 UNL     1      24.177   3.506  52.683  1.00  0.00     0.272 C 
ENDBRANCH  26  27
ENDBRANCH  25  26
ENDBRANCH  24  25
ENDBRANCH  19  24
ENDBRANCH   8  10
ENDBRANCH   3   4
TORSDOF 6
ENDMDL
