MODEL 1
REMARK VINA RESULT:      -9.8      0.000      0.000
REMARK  3 active torsions:
REMARK  status: ('A' for Active; 'I' for Inactive)
REMARK    1  A    between atoms: C1_2  and  C2_3 
REMARK       I    between atoms: C1_2  and  N1_11 
REMARK    2  A    between atoms: C7_9  and  O2_10 
REMARK    3  A    between atoms: C16_22  and  C17_23 
ROOT
HETATM    1  O1  UNL     1      23.658   1.563  53.106  1.00  0.00    -0.266 OA
HETATM    2  C1  UNL     1      24.627   1.790  52.297  1.00  0.00     0.271 C 
HETATM    3  N1  UNL     1      24.424   2.722  51.246  1.00  0.00    -0.268 N 
HETATM    4  N2  UNL     1      25.434   3.041  50.297  1.00  0.00    -0.222 NA
HETATM    5  C8  UNL     1      25.199   4.352  49.725  1.00  0.00     0.130 C 
HETATM    6  C9  UNL     1      26.512   4.812  49.195  1.00  0.00    -0.003 C 
HETATM    7  C10 UNL     1      26.538   6.000  48.560  1.00  0.00    -0.003 C 
HETATM    8  C11 UNL     1      25.521   7.007  48.246  1.00  0.00     0.201 C 
HETATM    9  O3  UNL     1      24.334   6.930  48.975  1.00  0.00    -0.359 OA
HETATM   10  C12 UNL     1      24.189   6.514  50.289  1.00  0.00     0.139 C 
HETATM   11  C13 UNL     1      24.592   5.302  50.659  1.00  0.00    -0.035 C 
HETATM   12  C14 UNL     1      24.276   5.231  52.105  1.00  0.00     0.040 C 
HETATM   13  C15 UNL     1      23.089   4.327  52.354  1.00  0.00     0.036 C 
HETATM   14  C16 UNL     1      23.094   3.303  51.251  1.00  0.00     0.139 C 
HETATM   15  H5  UNL     1      25.433   2.323  49.524  1.00  0.00     0.148 HD
ENDROOT
BRANCH   2  16
HETATM   16  C2  UNL     1      25.812   1.012  52.623  1.00  0.00     0.066 A 
HETATM   17  C3  UNL     1      26.071  -0.275  52.219  1.00  0.00     0.022 A 
HETATM   18  C4  UNL     1      27.194  -1.010  52.530  1.00  0.00     0.025 A 
HETATM   19  C5  UNL     1      28.153  -0.405  53.320  1.00  0.00     0.036 A 
HETATM   20 CL1  UNL     1      29.598  -1.311  53.738  1.00  0.00    -0.084 Cl
HETATM   21  C6  UNL     1      27.950   0.874  53.753  1.00  0.00     0.061 A 
HETATM   22  C7  UNL     1      26.788   1.562  53.400  1.00  0.00     0.083 A 
BRANCH  22  23
HETATM   23  O2  UNL     1      26.738   2.857  53.924  1.00  0.00    -0.360 OA
HETATM   24  H4  UNL     1      27.596   3.246  54.256  1.00  0.00     0.217 HD
ENDBRANCH  22  23
ENDBRANCH   2  16
BRANCH  14  25
HETATM   25  C17 UNL     1      22.047   2.264  51.430  1.00  0.00    -0.034 A 
HETATM   26  C18 UNL     1      21.973   1.066  50.730  1.00  0.00     0.011 A 
HETATM   27  C19 UNL     1      20.926   0.218  51.030  1.00  0.00     0.024 A 
HETATM   28  C20 UNL     1      19.957   0.483  51.973  1.00  0.00     0.034 A 
HETATM   29 CL2  UNL     1      18.649  -0.627  52.316  1.00  0.00    -0.084 Cl
HETATM   30  C21 UNL     1      20.041   1.662  52.652  1.00  0.00     0.024 A 
HETATM   31  C22 UNL     1      21.078   2.547  52.383  1.00  0.00     0.011 A 
ENDBRANCH  14  25
TORSDOF 3
ENDMDL
MODEL 2
REMARK VINA RESULT:      -9.6      2.664      5.680
REMARK  3 active torsions:
REMARK  status: ('A' for Active; 'I' for Inactive)
REMARK    1  A    between atoms: C1_2  and  C2_3 
REMARK       I    between atoms: C1_2  and  N1_11 
REMARK    2  A    between atoms: C7_9  and  O2_10 
REMARK    3  A    between atoms: C16_22  and  C17_23 
ROOT
HETATM    1  O1  UNL     1      24.927   2.487  51.015  1.00  0.00    -0.266 OA
HETATM    2  C1  UNL     1      24.651   1.656  51.953  1.00  0.00     0.271 C 
HETATM    3  N1  UNL     1      23.300   1.536  52.370  1.00  0.00    -0.268 N 
HETATM    4  N2  UNL     1      22.890   0.646  53.401  1.00  0.00    -0.222 NA
HETATM    5  C8  UNL     1      21.490   0.302  53.250  1.00  0.00     0.130 C 
HETATM    6  C9  UNL     1      21.299  -0.979  53.985  1.00  0.00    -0.003 C 
HETATM    7  C10 UNL     1      20.050  -1.481  54.034  1.00  0.00    -0.003 C 
HETATM    8  C11 UNL     1      18.756  -1.040  53.505  1.00  0.00     0.201 C 
HETATM    9  O3  UNL     1      18.801  -0.082  52.493  1.00  0.00    -0.359 OA
HETATM   10  C12 UNL     1      19.775   0.053  51.516  1.00  0.00     0.139 C 
HETATM   11  C13 UNL     1      21.047   0.234  51.856  1.00  0.00    -0.035 C 
HETATM   12  C14 UNL     1      21.766   0.333  50.564  1.00  0.00     0.040 C 
HETATM   13  C15 UNL     1      22.194   1.758  50.292  1.00  0.00     0.036 C 
HETATM   14  C16 UNL     1      22.399   2.406  51.636  1.00  0.00     0.139 C 
HETATM   15  H5  UNL     1      23.033   1.104  54.340  1.00  0.00     0.148 HD
ENDROOT
BRANCH   2  16
HETATM   16  C2  UNL     1      25.831   0.959  52.439  1.00  0.00     0.066 A 
HETATM   17  C3  UNL     1      26.212  -0.318  52.104  1.00  0.00     0.022 A 
HETATM   18  C4  UNL     1      27.331  -0.975  52.566  1.00  0.00     0.025 A 
HETATM   19  C5  UNL     1      28.151  -0.297  53.448  1.00  0.00     0.036 A 
HETATM   20 CL1  UNL     1      29.585  -1.103  54.059  1.00  0.00    -0.084 Cl
HETATM   21  C6  UNL     1      27.822   0.976  53.818  1.00  0.00     0.061 A 
HETATM   22  C7  UNL     1      26.673   1.584  53.311  1.00  0.00     0.083 A 
BRANCH  22  23
HETATM   23  O2  UNL     1      26.484   2.884  53.790  1.00  0.00    -0.360 OA
HETATM   24  H4  UNL     1      26.865   3.097  54.688  1.00  0.00     0.217 HD
ENDBRANCH  22  23
ENDBRANCH   2  16
BRANCH  14  25
HETATM   25  C17 UNL     1      22.941   3.785  51.529  1.00  0.00    -0.034 A 
HETATM   26  C18 UNL     1      23.420   4.546  52.587  1.00  0.00     0.011 A 
HETATM   27  C19 UNL     1      23.888   5.812  52.300  1.00  0.00     0.024 A 
HETATM   28  C20 UNL     1      23.909   6.365  51.038  1.00  0.00     0.034 A 
HETATM   29 CL2  UNL     1      24.513   7.978  50.727  1.00  0.00    -0.084 Cl
HETATM   30  C21 UNL     1      23.435   5.608  50.008  1.00  0.00     0.024 A 
HETATM   31  C22 UNL     1      22.955   4.327  50.251  1.00  0.00     0.011 A 
ENDBRANCH  14  25
TORSDOF 3
ENDMDL
MODEL 3
REMARK VINA RESULT:      -9.2      1.750      5.582
REMARK  3 active torsions:
REMARK  status: ('A' for Active; 'I' for Inactive)
REMARK    1  A    between atoms: C1_2  and  C2_3 
REMARK       I    between atoms: C1_2  and  N1_11 
REMARK    2  A    between atoms: C7_9  and  O2_10 
REMARK    3  A    between atoms: C16_22  and  C17_23 
ROOT
HETATM    1  O1  UNL     1      23.959   0.700  51.722  1.00  0.00    -0.266 OA
HETATM    2  C1  UNL     1      23.015   1.547  51.917  1.00  0.00     0.271 C 
HETATM    3  N1  UNL     1      23.324   2.930  51.836  1.00  0.00    -0.268 N 
HETATM    4  N2  UNL     1      22.351   3.947  52.037  1.00  0.00    -0.222 NA
HETATM    5  C8  UNL     1      22.749   5.171  51.371  1.00  0.00     0.130 C 
HETATM    6  C9  UNL     1      21.500   5.958  51.174  1.00  0.00    -0.003 C 
HETATM    7  C10 UNL     1      21.622   7.177  50.614  1.00  0.00    -0.003 C 
HETATM    8  C11 UNL     1      22.759   7.961  50.123  1.00  0.00     0.201 C 
HETATM    9  O3  UNL     1      23.936   7.252  49.883  1.00  0.00    -0.359 OA
HETATM   10  C12 UNL     1      24.045   5.943  49.438  1.00  0.00     0.139 C 
HETATM   11  C13 UNL     1      23.491   4.951  50.128  1.00  0.00    -0.035 C 
HETATM   12  C14 UNL     1      23.817   3.732  49.351  1.00  0.00     0.040 C 
HETATM   13  C15 UNL     1      24.877   2.913  50.053  1.00  0.00     0.036 C 
HETATM   14  C16 UNL     1      24.719   3.183  51.526  1.00  0.00     0.139 C 
HETATM   15  H5  UNL     1      22.245   4.135  53.069  1.00  0.00     0.148 HD
ENDROOT
BRANCH   2  16
HETATM   16  C2  UNL     1      21.744   0.901  52.201  1.00  0.00     0.066 A 
HETATM   17  C3  UNL     1      20.611   0.970  51.427  1.00  0.00     0.022 A 
HETATM   18  C4  UNL     1      19.407   0.358  51.698  1.00  0.00     0.025 A 
HETATM   19  C5  UNL     1      19.322  -0.398  52.852  1.00  0.00     0.036 A 
HETATM   20 CL1  UNL     1      17.803  -1.193  53.231  1.00  0.00    -0.084 Cl
HETATM   21  C6  UNL     1      20.417  -0.503  53.662  1.00  0.00     0.061 A 
HETATM   22  C7  UNL     1      21.607   0.144  53.327  1.00  0.00     0.083 A 
BRANCH  22  23
HETATM   23  O2  UNL     1      22.626  -0.066  54.260  1.00  0.00    -0.360 OA
HETATM   24  H4  UNL     1      22.861   0.699  54.857  1.00  0.00     0.217 HD
ENDBRANCH  22  23
ENDBRANCH   2  16
BRANCH  14  25
HETATM   25  C17 UNL     1      25.622   2.349  52.361  1.00  0.00    -0.034 A 
HETATM   26  C18 UNL     1      25.559   2.228  53.743  1.00  0.00     0.011 A 
HETATM   27  C19 UNL     1      26.483   1.404  54.352  1.00  0.00     0.024 A 
HETATM   28  C20 UNL     1      27.457   0.699  53.682  1.00  0.00     0.034 A 
HETATM   29 CL2  UNL     1      28.607  -0.334  54.503  1.00  0.00    -0.084 Cl
HETATM   30  C21 UNL     1      27.509   0.826  52.325  1.00  0.00     0.024 A 
HETATM   31  C22 UNL     1      26.599   1.644  51.669  1.00  0.00     0.011 A 
ENDBRANCH  14  25
TORSDOF 3
ENDMDL
MODEL 4
REMARK VINA RESULT:      -9.0      2.654      5.818
REMARK  3 active torsions:
REMARK  status: ('A' for Active; 'I' for Inactive)
REMARK    1  A    between atoms: C1_2  and  C2_3 
REMARK       I    between atoms: C1_2  and  N1_11 
REMARK    2  A    between atoms: C7_9  and  O2_10 
REMARK    3  A    between atoms: C16_22  and  C17_23 
ROOT
HETATM    1  O1  UNL     1      24.158   3.019  50.055  1.00  0.00    -0.266 OA
HETATM    2  C1  UNL     1      25.270   3.363  50.594  1.00  0.00     0.271 C 
HETATM    3  N1  UNL     1      25.624   2.779  51.838  1.00  0.00    -0.268 N 
HETATM    4  N2  UNL     1      26.833   3.094  52.518  1.00  0.00    -0.222 NA
HETATM    5  C8  UNL     1      27.214   2.013  53.405  1.00  0.00     0.130 C 
HETATM    6  C9  UNL     1      28.676   2.169  53.640  1.00  0.00    -0.003 C 
HETATM    7  C10 UNL     1      29.260   1.300  54.488  1.00  0.00    -0.003 C 
HETATM    8  C11 UNL     1      28.770   0.171  55.283  1.00  0.00     0.201 C 
HETATM    9  O3  UNL     1      27.531  -0.351  54.910  1.00  0.00    -0.359 OA
HETATM   10  C12 UNL     1      27.007  -0.419  53.629  1.00  0.00     0.139 C 
HETATM   11  C13 UNL     1      26.851   0.685  52.906  1.00  0.00    -0.035 C 
HETATM   12  C14 UNL     1      26.277   0.213  51.624  1.00  0.00     0.040 C 
HETATM   13  C15 UNL     1      24.814   0.581  51.520  1.00  0.00     0.036 C 
HETATM   14  C16 UNL     1      24.632   1.839  52.327  1.00  0.00     0.139 C 
HETATM   15  H5  UNL     1      26.701   3.974  53.084  1.00  0.00     0.148 HD
ENDROOT
BRANCH   2  16
HETATM   16  C2  UNL     1      25.996   4.335  49.792  1.00  0.00     0.066 A 
HETATM   17  C3  UNL     1      27.209   4.135  49.180  1.00  0.00     0.022 A 
HETATM   18  C4  UNL     1      27.894   5.058  48.421  1.00  0.00     0.025 A 
HETATM   19  C5  UNL     1      27.316   6.301  48.254  1.00  0.00     0.036 A 
HETATM   20 CL1  UNL     1      28.160   7.504  47.293  1.00  0.00    -0.084 Cl
HETATM   21  C6  UNL     1      26.109   6.559  48.840  1.00  0.00     0.061 A 
HETATM   22  C7  UNL     1      25.468   5.578  49.597  1.00  0.00     0.083 A 
BRANCH  22  23
HETATM   23  O2  UNL     1      24.246   6.004  50.124  1.00  0.00    -0.360 OA
HETATM   24  H4  UNL     1      24.240   6.878  50.608  1.00  0.00     0.217 HD
ENDBRANCH  22  23
ENDBRANCH   2  16
BRANCH  14  25
HETATM   25  C17 UNL     1      23.258   2.393  52.221  1.00  0.00    -0.034 A 
HETATM   26  C18 UNL     1      22.889   3.697  52.526  1.00  0.00     0.011 A 
HETATM   27  C19 UNL     1      21.561   4.037  52.366  1.00  0.00     0.024 A 
HETATM   28  C20 UNL     1      20.585   3.170  51.926  1.00  0.00     0.034 A 
HETATM   29 CL2  UNL     1      18.913   3.652  51.740  1.00  0.00    -0.084 Cl
HETATM   30  C21 UNL     1      20.959   1.893  51.630  1.00  0.00     0.024 A 
HETATM   31  C22 UNL     1      22.286   1.507  51.776  1.00  0.00     0.011 A 
ENDBRANCH  14  25
TORSDOF 3
ENDMDL
MODEL 5
REMARK VINA RESULT:      -8.8      2.862      5.564
REMARK  3 active torsions:
REMARK  status: ('A' for Active; 'I' for Inactive)
REMARK    1  A    between atoms: C1_2  and  C2_3 
REMARK       I    between atoms: C1_2  and  N1_11 
REMARK    2  A    between atoms: C7_9  and  O2_10 
REMARK    3  A    between atoms: C16_22  and  C17_23 
ROOT
HETATM    1  O1  UNL     1      25.035   3.173  50.161  1.00  0.00    -0.266 OA
HETATM    2  C1  UNL     1      24.483   2.504  51.107  1.00  0.00     0.271 C 
HETATM    3  N1  UNL     1      23.067   2.502  51.192  1.00  0.00    -0.268 N 
HETATM    4  N2  UNL     1      22.360   1.794  52.202  1.00  0.00    -0.222 NA
HETATM    5  C8  UNL     1      21.013   1.487  51.761  1.00  0.00     0.130 C 
HETATM    6  C9  UNL     1      20.558   0.339  52.595  1.00  0.00    -0.003 C 
HETATM    7  C10 UNL     1      19.299  -0.099  52.404  1.00  0.00    -0.003 C 
HETATM    8  C11 UNL     1      18.204   0.308  51.519  1.00  0.00     0.201 C 
HETATM    9  O3  UNL     1      18.559   1.100  50.427  1.00  0.00    -0.359 OA
HETATM   10  C12 UNL     1      19.744   1.049  49.710  1.00  0.00     0.139 C 
HETATM   11  C13 UNL     1      20.909   1.228  50.324  1.00  0.00    -0.035 C 
HETATM   12  C14 UNL     1      21.919   1.103  49.247  1.00  0.00     0.040 C 
HETATM   13  C15 UNL     1      22.504   2.453  48.897  1.00  0.00     0.036 C 
HETATM   14  C16 UNL     1      22.433   3.287  50.148  1.00  0.00     0.139 C 
HETATM   15  H5  UNL     1      22.309   2.381  53.077  1.00  0.00     0.148 HD
ENDROOT
BRANCH   2  16
HETATM   16  C2  UNL     1      25.459   1.842  51.958  1.00  0.00     0.066 A 
HETATM   17  C3  UNL     1      26.267   0.791  51.596  1.00  0.00     0.022 A 
HETATM   18  C4  UNL     1      27.190   0.166  52.405  1.00  0.00     0.025 A 
HETATM   19  C5  UNL     1      27.324   0.631  53.699  1.00  0.00     0.036 A 
HETATM   20 CL1  UNL     1      28.491  -0.143  54.759  1.00  0.00    -0.084 Cl
HETATM   21  C6  UNL     1      26.546   1.673  54.116  1.00  0.00     0.061 A 
HETATM   22  C7  UNL     1      25.630   2.263  53.244  1.00  0.00     0.083 A 
BRANCH  22  23
HETATM   23  O2  UNL     1      24.917   3.314  53.827  1.00  0.00    -0.360 OA
HETATM   24  H4  UNL     1      25.395   4.184  53.934  1.00  0.00     0.217 HD
ENDBRANCH  22  23
ENDBRANCH   2  16
BRANCH  14  25
HETATM   25  C17 UNL     1      23.087   4.611  49.991  1.00  0.00    -0.034 A 
HETATM   26  C18 UNL     1      23.605   5.119  48.807  1.00  0.00     0.011 A 
HETATM   27  C19 UNL     1      24.178   6.374  48.849  1.00  0.00     0.024 A 
HETATM   28  C20 UNL     1      24.268   7.149  49.984  1.00  0.00     0.034 A 
HETATM   29 CL2  UNL     1      25.006   8.736  49.984  1.00  0.00    -0.084 Cl
HETATM   30  C21 UNL     1      23.757   6.640  51.140  1.00  0.00     0.024 A 
HETATM   31  C22 UNL     1      23.170   5.380  51.145  1.00  0.00     0.011 A 
ENDBRANCH  14  25
TORSDOF 3
ENDMDL
MODEL 6
REMARK VINA RESULT:      -8.7      2.996      6.241
REMARK  3 active torsions:
REMARK  status: ('A' for Active; 'I' for Inactive)
REMARK    1  A    between atoms: C1_2  and  C2_3 
REMARK       I    between atoms: C1_2  and  N1_11 
REMARK    2  A    between atoms: C7_9  and  O2_10 
REMARK    3  A    between atoms: C16_22  and  C17_23 
ROOT
HETATM    1  O1  UNL     1      21.651   2.978  51.343  1.00  0.00    -0.266 OA
HETATM    2  C1  UNL     1      22.086   1.828  51.711  1.00  0.00     0.271 C 
HETATM    3  N1  UNL     1      23.479   1.573  51.618  1.00  0.00    -0.268 N 
HETATM    4  N2  UNL     1      24.060   0.332  51.998  1.00  0.00    -0.222 NA
HETATM    5  C8  UNL     1      25.458   0.508  52.340  1.00  0.00     0.130 C 
HETATM    6  C9  UNL     1      25.820  -0.650  53.203  1.00  0.00    -0.003 C 
HETATM    7  C10 UNL     1      27.101  -0.738  53.610  1.00  0.00    -0.003 C 
HETATM    8  C11 UNL     1      28.295   0.083  53.392  1.00  0.00     0.201 C 
HETATM    9  O3  UNL     1      28.073   1.381  52.934  1.00  0.00    -0.359 OA
HETATM   10  C12 UNL     1      26.993   2.198  53.233  1.00  0.00     0.139 C 
HETATM   11  C13 UNL     1      25.754   1.801  52.960  1.00  0.00    -0.035 C 
HETATM   12  C14 UNL     1      24.897   2.920  53.416  1.00  0.00     0.040 C 
HETATM   13  C15 UNL     1      24.338   3.686  52.238  1.00  0.00     0.036 C 
HETATM   14  C16 UNL     1      24.230   2.703  51.102  1.00  0.00     0.139 C 
HETATM   15  H5  UNL     1      23.984  -0.353  51.200  1.00  0.00     0.148 HD
ENDROOT
BRANCH   2  16
HETATM   16  C2  UNL     1      21.019   0.957  52.177  1.00  0.00     0.066 A 
HETATM   17  C3  UNL     1      20.948   0.351  53.408  1.00  0.00     0.022 A 
HETATM   18  C4  UNL     1      19.935  -0.474  53.846  1.00  0.00     0.025 A 
HETATM   19  C5  UNL     1      18.891  -0.720  52.976  1.00  0.00     0.036 A 
HETATM   20 CL1  UNL     1      17.583  -1.768  53.499  1.00  0.00    -0.084 Cl
HETATM   21  C6  UNL     1      18.907  -0.145  51.737  1.00  0.00     0.061 A 
HETATM   22  C7  UNL     1      19.965   0.682  51.356  1.00  0.00     0.083 A 
BRANCH  22  23
HETATM   23  O2  UNL     1      19.826   1.187  50.061  1.00  0.00    -0.360 OA
HETATM   24  H4  UNL     1      20.648   1.548  49.623  1.00  0.00     0.217 HD
ENDBRANCH  22  23
ENDBRANCH   2  16
BRANCH  14  25
HETATM   25  C17 UNL     1      23.579   3.287  49.901  1.00  0.00    -0.034 A 
HETATM   26  C18 UNL     1      23.012   2.562  48.860  1.00  0.00     0.011 A 
HETATM   27  C19 UNL     1      22.449   3.275  47.821  1.00  0.00     0.024 A 
HETATM   28  C20 UNL     1      22.415   4.651  47.752  1.00  0.00     0.034 A 
HETATM   29 CL2  UNL     1      21.688   5.508  46.410  1.00  0.00    -0.084 Cl
HETATM   30  C21 UNL     1      22.974   5.350  48.779  1.00  0.00     0.024 A 
HETATM   31  C22 UNL     1      23.552   4.674  49.846  1.00  0.00     0.011 A 
ENDBRANCH  14  25
TORSDOF 3
ENDMDL
MODEL 7
REMARK VINA RESULT:      -8.5      2.579      6.147
REMARK  3 active torsions:
REMARK  status: ('A' for Active; 'I' for Inactive)
REMARK    1  A    between atoms: C1_2  and  C2_3 
REMARK       I    between atoms: C1_2  and  N1_11 
REMARK    2  A    between atoms: C7_9  and  O2_10 
REMARK    3  A    between atoms: C16_22  and  C17_23 
ROOT
HETATM    1  O1  UNL     1      26.066   3.139  52.130  1.00  0.00    -0.266 OA
HETATM    2  C1  UNL     1      25.375   3.199  51.050  1.00  0.00     0.271 C 
HETATM    3  N1  UNL     1      24.278   2.311  50.902  1.00  0.00    -0.268 N 
HETATM    4  N2  UNL     1      23.453   2.298  49.744  1.00  0.00    -0.222 NA
HETATM    5  C8  UNL     1      22.147   1.753  50.057  1.00  0.00     0.130 C 
HETATM    6  C9  UNL     1      21.226   2.258  49.000  1.00  0.00    -0.003 C 
HETATM    7  C10 UNL     1      19.946   1.838  49.047  1.00  0.00    -0.003 C 
HETATM    8  C11 UNL     1      19.200   0.950  49.942  1.00  0.00     0.201 C 
HETATM    9  O3  UNL     1      19.788   0.689  51.179  1.00  0.00    -0.359 OA
HETATM   10  C12 UNL     1      20.574   1.552  51.927  1.00  0.00     0.139 C 
HETATM   11  C13 UNL     1      21.688   2.062  51.413  1.00  0.00    -0.035 C 
HETATM   12  C14 UNL     1      22.238   2.917  52.491  1.00  0.00     0.040 C 
HETATM   13  C15 UNL     1      23.456   2.278  53.118  1.00  0.00     0.036 C 
HETATM   14  C16 UNL     1      24.096   1.437  52.046  1.00  0.00     0.139 C 
HETATM   15  H5  UNL     1      23.903   1.706  48.996  1.00  0.00     0.148 HD
ENDROOT
BRANCH   2  16
HETATM   16  C2  UNL     1      25.870   4.215  50.135  1.00  0.00     0.066 A 
HETATM   17  C3  UNL     1      27.040   4.159  49.419  1.00  0.00     0.022 A 
HETATM   18  C4  UNL     1      27.506   5.123  48.553  1.00  0.00     0.025 A 
HETATM   19  C5  UNL     1      26.732   6.254  48.382  1.00  0.00     0.036 A 
HETATM   20 CL1  UNL     1      27.294   7.506  47.286  1.00  0.00    -0.084 Cl
HETATM   21  C6  UNL     1      25.557   6.367  49.069  1.00  0.00     0.061 A 
HETATM   22  C7  UNL     1      25.143   5.351  49.931  1.00  0.00     0.083 A 
BRANCH  22  23
HETATM   23  O2  UNL     1      23.922   5.624  50.553  1.00  0.00    -0.360 OA
HETATM   24  H4  UNL     1      23.257   6.161  50.035  1.00  0.00     0.217 HD
ENDBRANCH  22  23
ENDBRANCH   2  16
BRANCH  14  25
HETATM   25  C17 UNL     1      25.383   0.836  52.482  1.00  0.00    -0.034 A 
HETATM   26  C18 UNL     1      26.275   0.158  51.661  1.00  0.00     0.011 A 
HETATM   27  C19 UNL     1      27.426  -0.334  52.241  1.00  0.00     0.024 A 
HETATM   28  C20 UNL     1      27.744  -0.197  53.574  1.00  0.00     0.034 A 
HETATM   29 CL2  UNL     1      29.219  -0.842  54.262  1.00  0.00    -0.084 Cl
HETATM   30  C21 UNL     1      26.860   0.469  54.370  1.00  0.00     0.024 A 
HETATM   31  C22 UNL     1      25.688   0.983  53.829  1.00  0.00     0.011 A 
ENDBRANCH  14  25
TORSDOF 3
ENDMDL
MODEL 8
REMARK VINA RESULT:      -8.3      3.593      5.252
REMARK  3 active torsions:
REMARK  status: ('A' for Active; 'I' for Inactive)
REMARK    1  A    between atoms: C1_2  and  C2_3 
REMARK       I    between atoms: C1_2  and  N1_11 
REMARK    2  A    between atoms: C7_9  and  O2_10 
REMARK    3  A    between atoms: C16_22  and  C17_23 
ROOT
HETATM    1  O1  UNL     1      22.799   2.660  52.301  1.00  0.00    -0.266 OA
HETATM    2  C1  UNL     1      22.707   2.789  51.028  1.00  0.00     0.271 C 
HETATM    3  N1  UNL     1      21.500   2.394  50.396  1.00  0.00    -0.268 N 
HETATM    4  N2  UNL     1      21.299   2.494  48.991  1.00  0.00    -0.222 NA
HETATM    5  C8  UNL     1      19.885   2.575  48.684  1.00  0.00     0.130 C 
HETATM    6  C9  UNL     1      19.792   3.199  47.335  1.00  0.00    -0.003 C 
HETATM    7  C10 UNL     1      18.561   3.333  46.802  1.00  0.00    -0.003 C 
HETATM    8  C11 UNL     1      17.212   2.990  47.260  1.00  0.00     0.201 C 
HETATM    9  O3  UNL     1      17.071   2.750  48.627  1.00  0.00    -0.359 OA
HETATM   10  C12 UNL     1      17.774   3.355  49.657  1.00  0.00     0.139 C 
HETATM   11  C13 UNL     1      19.101   3.282  49.698  1.00  0.00    -0.035 C 
HETATM   12  C14 UNL     1      19.476   4.033  50.919  1.00  0.00     0.040 C 
HETATM   13  C15 UNL     1      19.925   3.092  52.015  1.00  0.00     0.036 C 
HETATM   14  C16 UNL     1      20.510   1.886  51.328  1.00  0.00     0.139 C 
HETATM   15  H5  UNL     1      21.708   1.647  48.514  1.00  0.00     0.148 HD
ENDROOT
BRANCH   2  16
HETATM   16  C2  UNL     1      23.917   3.342  50.440  1.00  0.00     0.066 A 
HETATM   17  C3  UNL     1      23.990   4.448  49.629  1.00  0.00     0.022 A 
HETATM   18  C4  UNL     1      25.138   4.969  49.074  1.00  0.00     0.025 A 
HETATM   19  C5  UNL     1      26.330   4.329  49.353  1.00  0.00     0.036 A 
HETATM   20 CL1  UNL     1      27.814   4.965  48.663  1.00  0.00    -0.084 Cl
HETATM   21  C6  UNL     1      26.319   3.223  50.154  1.00  0.00     0.061 A 
HETATM   22  C7  UNL     1      25.120   2.747  50.685  1.00  0.00     0.083 A 
BRANCH  22  23
HETATM   23  O2  UNL     1      25.286   1.610  51.481  1.00  0.00    -0.360 OA
HETATM   24  H4  UNL     1      25.548   1.757  52.433  1.00  0.00     0.217 HD
ENDBRANCH  22  23
ENDBRANCH   2  16
BRANCH  14  25
HETATM   25  C17 UNL     1      21.108   0.918  52.283  1.00  0.00    -0.034 A 
HETATM   26  C18 UNL     1      22.028  -0.070  51.959  1.00  0.00     0.011 A 
HETATM   27  C19 UNL     1      22.478  -0.881  52.980  1.00  0.00     0.024 A 
HETATM   28  C20 UNL     1      22.073  -0.774  54.293  1.00  0.00     0.034 A 
HETATM   29 CL2  UNL     1      22.674  -1.830  55.553  1.00  0.00    -0.084 Cl
HETATM   30  C21 UNL     1      21.169   0.199  54.599  1.00  0.00     0.024 A 
HETATM   31  C22 UNL     1      20.690   1.040  53.602  1.00  0.00     0.011 A 
ENDBRANCH  14  25
TORSDOF 3
ENDMDL
MODEL 9
REMARK VINA RESULT:      -8.0      3.057      4.412
REMARK  3 active torsions:
REMARK  status: ('A' for Active; 'I' for Inactive)
REMARK    1  A    between atoms: C1_2  and  C2_3 
REMARK       I    between atoms: C1_2  and  N1_11 
REMARK    2  A    between atoms: C7_9  and  O2_10 
REMARK    3  A    between atoms: C16_22  and  C17_23 
ROOT
HETATM    1  O1  UNL     1      21.633   5.014  51.207  1.00  0.00    -0.266 OA
HETATM    2  C1  UNL     1      22.666   4.335  50.859  1.00  0.00     0.271 C 
HETATM    3  N1  UNL     1      23.556   4.902  49.911  1.00  0.00    -0.268 N 
HETATM    4  N2  UNL     1      24.725   4.231  49.459  1.00  0.00    -0.222 NA
HETATM    5  C8  UNL     1      25.704   5.185  48.976  1.00  0.00     0.130 C 
HETATM    6  C9  UNL     1      27.021   4.492  49.040  1.00  0.00    -0.003 C 
HETATM    7  C10 UNL     1      28.095   5.168  48.587  1.00  0.00    -0.003 C 
HETATM    8  C11 UNL     1      28.288   6.501  48.010  1.00  0.00     0.201 C 
HETATM    9  O3  UNL     1      27.255   7.415  48.216  1.00  0.00    -0.359 OA
HETATM   10  C12 UNL     1      26.428   7.502  49.325  1.00  0.00     0.139 C 
HETATM   11  C13 UNL     1      25.691   6.460  49.697  1.00  0.00    -0.035 C 
HETATM   12  C14 UNL     1      24.959   6.931  50.896  1.00  0.00     0.040 C 
HETATM   13  C15 UNL     1      23.500   7.169  50.578  1.00  0.00     0.036 C 
HETATM   14  C16 UNL     1      23.145   6.221  49.464  1.00  0.00     0.139 C 
HETATM   15  H5  UNL     1      24.474   3.570  48.677  1.00  0.00     0.148 HD
ENDROOT
BRANCH   2  16
HETATM   16  C2  UNL     1      22.734   3.049  51.535  1.00  0.00     0.066 A 
HETATM   17  C3  UNL     1      21.842   2.013  51.396  1.00  0.00     0.022 A 
HETATM   18  C4  UNL     1      21.910   0.796  52.038  1.00  0.00     0.025 A 
HETATM   19  C5  UNL     1      22.969   0.589  52.901  1.00  0.00     0.036 A 
HETATM   20 CL1  UNL     1      23.087  -0.951  53.738  1.00  0.00    -0.084 Cl
HETATM   21  C6  UNL     1      23.887   1.583  53.081  1.00  0.00     0.061 A 
HETATM   22  C7  UNL     1      23.759   2.794  52.398  1.00  0.00     0.083 A 
BRANCH  22  23
HETATM   23  O2  UNL     1      24.781   3.700  52.694  1.00  0.00    -0.360 OA
HETATM   24  H4  UNL     1      25.254   3.583  53.565  1.00  0.00     0.217 HD
ENDBRANCH  22  23
ENDBRANCH   2  16
BRANCH  14  25
HETATM   25  C17 UNL     1      21.700   6.254  49.121  1.00  0.00    -0.034 A 
HETATM   26  C18 UNL     1      20.766   7.131  49.656  1.00  0.00     0.011 A 
HETATM   27  C19 UNL     1      19.462   7.017  49.219  1.00  0.00     0.024 A 
HETATM   28  C20 UNL     1      19.032   6.093  48.292  1.00  0.00     0.034 A 
HETATM   29 CL2  UNL     1      17.364   5.988  47.770  1.00  0.00    -0.084 Cl
HETATM   30  C21 UNL     1      19.958   5.237  47.775  1.00  0.00     0.024 A 
HETATM   31  C22 UNL     1      21.283   5.316  48.186  1.00  0.00     0.011 A 
ENDBRANCH  14  25
TORSDOF 3
ENDMDL
