MODEL 1
REMARK VINA RESULT:      -8.3      0.000      0.000
REMARK  6 active torsions:
REMARK  status: ('A' for Active; 'I' for Inactive)
REMARK    1  A    between atoms: C2_2  and  N1_3 
REMARK    2  A    between atoms: N2_6  and  C5_7 
REMARK    3  A    between atoms: C9_11  and  N3_12 
REMARK    4  A    between atoms: C11_16  and  N6_17 
REMARK    5  A    between atoms: N6_17  and  C12_18 
REMARK    6  A    between atoms: C12_18  and  C14_20 
ROOT
HETATM    1  N3  UNL     1      23.853   2.939  50.149  1.00  0.00    -0.295 N 
HETATM    2  C10 UNL     1      22.807   2.464  49.312  1.00  0.00     0.238 A 
HETATM    3  N4  UNL     1      22.031   1.507  49.642  1.00  0.00    -0.168 NA
HETATM    4  N5  UNL     1      22.156   0.835  50.884  1.00  0.00    -0.259 N 
HETATM    5  C11 UNL     1      23.156   1.227  51.781  1.00  0.00     0.158 A 
HETATM    6  C20 UNL     1      23.956   2.236  51.408  1.00  0.00     0.156 A 
HETATM    7 CL1  UNL     1      25.232   2.757  52.520  1.00  0.00    -0.060 Cl
HETATM    8  H15 UNL     1      21.510   0.058  51.124  1.00  0.00     0.191 HD
ENDROOT
BRANCH   1   9
HETATM    9  C9  UNL     1      24.769   3.991  49.879  1.00  0.00     0.025 A 
HETATM   10  C8  UNL     1      25.858   3.468  49.340  1.00  0.00     0.026 A 
HETATM   11  C7  UNL     1      26.963   4.366  48.971  1.00  0.00     0.000 A 
HETATM   12  C6  UNL     1      26.828   5.660  49.190  1.00  0.00    -0.001 A 
HETATM   13  C5  UNL     1      25.644   6.323  49.788  1.00  0.00     0.111 A 
HETATM   14  C21 UNL     1      24.527   5.420  50.161  1.00  0.00     0.058 A 
HETATM   15  C22 UNL     1      23.195   5.883  49.551  1.00  0.00     0.019 C 
BRANCH  13  16
HETATM   16  N2  UNL     1      25.266   7.519  49.067  1.00  0.00    -0.401 N 
HETATM   17  C4  UNL     1      25.573   7.573  47.702  1.00  0.00     0.137 C 
HETATM   18  C3  UNL     1      26.373   8.743  47.230  1.00  0.00     0.136 C 
HETATM   19  N1  UNL     1      26.216   9.933  47.987  1.00  0.00    -0.410 N 
HETATM   20  C24 UNL     1      26.403   9.694  49.374  1.00  0.00     0.136 C 
HETATM   21  C23 UNL     1      25.363   8.708  49.819  1.00  0.00     0.137 C 
BRANCH  19  22
HETATM   22  C2  UNL     1      25.140  10.791  47.620  1.00  0.00     0.112 C 
HETATM   23  C1  UNL     1      25.589  12.219  47.955  1.00  0.00     0.026 C 
ENDBRANCH  19  22
ENDBRANCH  13  16
ENDBRANCH   1   9
BRANCH   5  24
HETATM   24  N6  UNL     1      23.394   0.643  53.057  1.00  0.00    -0.364 N 
HETATM   25  H16 UNL     1      23.065   1.488  53.614  1.00  0.00     0.162 HD
BRANCH  24  26
HETATM   26  C12 UNL     1      23.893  -0.620  53.524  1.00  0.00     0.112 C 
HETATM   27  C13 UNL     1      23.307  -1.002  54.870  1.00  0.00     0.037 C 
BRANCH  26  28
HETATM   28  C14 UNL     1      25.368  -0.444  53.790  1.00  0.00    -0.036 A 
HETATM   29  C15 UNL     1      26.120  -0.908  52.721  1.00  0.00     0.009 A 
HETATM   30  C16 UNL     1      27.502  -0.857  52.732  1.00  0.00     0.001 A 
HETATM   31  C17 UNL     1      28.114  -0.327  53.851  1.00  0.00     0.000 A 
HETATM   32  C18 UNL     1      27.360   0.134  54.915  1.00  0.00     0.001 A 
HETATM   33  C19 UNL     1      25.992   0.077  54.889  1.00  0.00     0.009 A 
ENDBRANCH  26  28
ENDBRANCH  24  26
ENDBRANCH   5  24
TORSDOF 6
ENDMDL
MODEL 2
REMARK VINA RESULT:      -8.2      3.639      6.604
REMARK  6 active torsions:
REMARK  status: ('A' for Active; 'I' for Inactive)
REMARK    1  A    between atoms: C2_2  and  N1_3 
REMARK    2  A    between atoms: N2_6  and  C5_7 
REMARK    3  A    between atoms: C9_11  and  N3_12 
REMARK    4  A    between atoms: C11_16  and  N6_17 
REMARK    5  A    between atoms: N6_17  and  C12_18 
REMARK    6  A    between atoms: C12_18  and  C14_20 
ROOT
HETATM    1  N3  UNL     1      23.972   2.930  50.428  1.00  0.00    -0.295 N 
HETATM    2  C10 UNL     1      24.955   3.620  49.669  1.00  0.00     0.238 A 
HETATM    3  N4  UNL     1      26.168   3.743  50.048  1.00  0.00    -0.168 NA
HETATM    4  N5  UNL     1      26.631   3.194  51.270  1.00  0.00    -0.259 N 
HETATM    5  C11 UNL     1      25.739   2.495  52.092  1.00  0.00     0.158 A 
HETATM    6  C20 UNL     1      24.472   2.381  51.668  1.00  0.00     0.156 A 
HETATM    7 CL1  UNL     1      23.318   1.502  52.685  1.00  0.00    -0.060 Cl
HETATM    8  H15 UNL     1      27.623   3.312  51.552  1.00  0.00     0.191 HD
ENDROOT
BRANCH   1   9
HETATM    9  C9  UNL     1      22.603   2.739  50.102  1.00  0.00     0.025 A 
HETATM   10  C8  UNL     1      22.452   1.510  49.636  1.00  0.00     0.026 A 
HETATM   11  C7  UNL     1      21.109   1.072  49.225  1.00  0.00     0.000 A 
HETATM   12  C6  UNL     1      20.105   1.919  49.335  1.00  0.00    -0.001 A 
HETATM   13  C5  UNL     1      20.189   3.309  49.844  1.00  0.00     0.111 A 
HETATM   14  C21 UNL     1      21.543   3.755  50.261  1.00  0.00     0.058 A 
HETATM   15  C22 UNL     1      21.538   4.325  51.688  1.00  0.00     0.019 C 
BRANCH  13  16
HETATM   16  N2  UNL     1      19.119   3.619  50.767  1.00  0.00    -0.401 N 
HETATM   17  C4  UNL     1      18.596   2.565  51.525  1.00  0.00     0.137 C 
HETATM   18  C3  UNL     1      17.120   2.338  51.448  1.00  0.00     0.136 C 
HETATM   19  N1  UNL     1      16.341   3.490  51.170  1.00  0.00    -0.410 N 
HETATM   20  C24 UNL     1      16.826   4.183  50.029  1.00  0.00     0.136 C 
HETATM   21  C23 UNL     1      18.233   4.620  50.316  1.00  0.00     0.137 C 
BRANCH  19  22
HETATM   22  C2  UNL     1      15.945   4.283  52.286  1.00  0.00     0.112 C 
HETATM   23  C1  UNL     1      14.800   3.529  52.972  1.00  0.00     0.026 C 
ENDBRANCH  19  22
ENDBRANCH  13  16
ENDBRANCH   1   9
BRANCH   5  24
HETATM   24  N6  UNL     1      26.067   1.893  53.339  1.00  0.00    -0.364 N 
HETATM   25  H16 UNL     1      25.065   1.857  53.697  1.00  0.00     0.162 HD
BRANCH  24  26
HETATM   26  C12 UNL     1      27.279   1.457  53.974  1.00  0.00     0.112 C 
HETATM   27  C13 UNL     1      28.487   2.238  53.494  1.00  0.00     0.037 C 
BRANCH  26  28
HETATM   28  C14 UNL     1      27.537   0.043  53.517  1.00  0.00    -0.036 A 
HETATM   29  C15 UNL     1      28.854  -0.319  53.758  1.00  0.00     0.009 A 
HETATM   30  C16 UNL     1      29.334  -1.572  53.421  1.00  0.00     0.001 A 
HETATM   31  C17 UNL     1      28.454  -2.457  52.831  1.00  0.00     0.000 A 
HETATM   32  C18 UNL     1      27.141  -2.092  52.592  1.00  0.00     0.001 A 
HETATM   33  C19 UNL     1      26.680  -0.847  52.932  1.00  0.00     0.009 A 
ENDBRANCH  26  28
ENDBRANCH  24  26
ENDBRANCH   5  24
TORSDOF 6
ENDMDL
MODEL 3
REMARK VINA RESULT:      -7.9      1.362      2.464
REMARK  6 active torsions:
REMARK  status: ('A' for Active; 'I' for Inactive)
REMARK    1  A    between atoms: C2_2  and  N1_3 
REMARK    2  A    between atoms: N2_6  and  C5_7 
REMARK    3  A    between atoms: C9_11  and  N3_12 
REMARK    4  A    between atoms: C11_16  and  N6_17 
REMARK    5  A    between atoms: N6_17  and  C12_18 
REMARK    6  A    between atoms: C12_18  and  C14_20 
ROOT
HETATM    1  N3  UNL     1      22.370   3.217  50.229  1.00  0.00    -0.295 N 
HETATM    2  C10 UNL     1      21.537   2.444  49.376  1.00  0.00     0.238 A 
HETATM    3  N4  UNL     1      21.202   1.240  49.635  1.00  0.00    -0.168 NA
HETATM    4  N5  UNL     1      21.640   0.575  50.807  1.00  0.00    -0.259 N 
HETATM    5  C11 UNL     1      22.466   1.250  51.713  1.00  0.00     0.158 A 
HETATM    6  C20 UNL     1      22.802   2.514  51.416  1.00  0.00     0.156 A 
HETATM    7 CL1  UNL     1      23.846   3.397  52.542  1.00  0.00    -0.060 Cl
HETATM    8  H15 UNL     1      21.352  -0.406  50.989  1.00  0.00     0.191 HD
ENDROOT
BRANCH   1   9
HETATM    9  C9  UNL     1      22.803   4.556  50.035  1.00  0.00     0.025 A 
HETATM   10  C8  UNL     1      22.085   5.345  50.817  1.00  0.00     0.026 A 
HETATM   11  C7  UNL     1      22.350   6.792  50.792  1.00  0.00     0.000 A 
HETATM   12  C6  UNL     1      23.293   7.250  49.993  1.00  0.00    -0.001 A 
HETATM   13  C5  UNL     1      24.139   6.436  49.087  1.00  0.00     0.111 A 
HETATM   14  C21 UNL     1      23.875   4.975  49.110  1.00  0.00     0.058 A 
HETATM   15  C22 UNL     1      25.161   4.170  49.357  1.00  0.00     0.019 C 
BRANCH  13  16
HETATM   16  N2  UNL     1      25.532   6.819  49.150  1.00  0.00    -0.401 N 
HETATM   17  C4  UNL     1      25.958   7.516  50.286  1.00  0.00     0.137 C 
HETATM   18  C3  UNL     1      26.639   8.829  50.065  1.00  0.00     0.136 C 
HETATM   19  N1  UNL     1      27.331   8.955  48.833  1.00  0.00    -0.410 N 
HETATM   20  C24 UNL     1      26.504   8.599  47.734  1.00  0.00     0.136 C 
HETATM   21  C23 UNL     1      26.098   7.165  47.905  1.00  0.00     0.137 C 
BRANCH  19  22
HETATM   22  C2  UNL     1      28.678   8.493  48.802  1.00  0.00     0.112 C 
HETATM   23  C1  UNL     1      29.538   9.619  49.387  1.00  0.00     0.026 C 
ENDBRANCH  19  22
ENDBRANCH  13  16
ENDBRANCH   1   9
BRANCH   5  24
HETATM   24  N6  UNL     1      22.979   0.707  52.925  1.00  0.00    -0.364 N 
HETATM   25  H16 UNL     1      22.607   1.486  53.547  1.00  0.00     0.162 HD
BRANCH  24  26
HETATM   26  C12 UNL     1      23.734  -0.462  53.279  1.00  0.00     0.112 C 
HETATM   27  C13 UNL     1      23.463  -0.906  54.705  1.00  0.00     0.037 C 
BRANCH  26  28
HETATM   28  C14 UNL     1      25.190  -0.070  53.277  1.00  0.00    -0.036 A 
HETATM   29  C15 UNL     1      25.719  -0.134  54.558  1.00  0.00     0.009 A 
HETATM   30  C16 UNL     1      27.041   0.185  54.811  1.00  0.00     0.001 A 
HETATM   31  C17 UNL     1      27.823   0.572  53.742  1.00  0.00     0.000 A 
HETATM   32  C18 UNL     1      27.291   0.634  52.466  1.00  0.00     0.001 A 
HETATM   33  C19 UNL     1      25.980   0.315  52.230  1.00  0.00     0.009 A 
ENDBRANCH  26  28
ENDBRANCH  24  26
ENDBRANCH   5  24
TORSDOF 6
ENDMDL
MODEL 4
REMARK VINA RESULT:      -7.6      2.485      8.284
REMARK  6 active torsions:
REMARK  status: ('A' for Active; 'I' for Inactive)
REMARK    1  A    between atoms: C2_2  and  N1_3 
REMARK    2  A    between atoms: N2_6  and  C5_7 
REMARK    3  A    between atoms: C9_11  and  N3_12 
REMARK    4  A    between atoms: C11_16  and  N6_17 
REMARK    5  A    between atoms: N6_17  and  C12_18 
REMARK    6  A    between atoms: C12_18  and  C14_20 
ROOT
HETATM    1  N3  UNL     1      22.467   2.995  50.101  1.00  0.00    -0.295 N 
HETATM    2  C10 UNL     1      22.353   2.665  48.724  1.00  0.00     0.238 A 
HETATM    3  N4  UNL     1      21.809   3.437  47.866  1.00  0.00    -0.168 NA
HETATM    4  N5  UNL     1      21.270   4.697  48.226  1.00  0.00    -0.259 N 
HETATM    5  C11 UNL     1      21.332   5.116  49.560  1.00  0.00     0.158 A 
HETATM    6  C20 UNL     1      21.910   4.285  50.439  1.00  0.00     0.156 A 
HETATM    7 CL1  UNL     1      22.005   4.786  52.136  1.00  0.00    -0.060 Cl
HETATM    8  H15 UNL     1      20.832   5.302  47.504  1.00  0.00     0.191 HD
ENDROOT
BRANCH   1   9
HETATM    9  C9  UNL     1      23.049   2.212  51.135  1.00  0.00     0.025 A 
HETATM   10  C8  UNL     1      22.269   1.167  51.356  1.00  0.00     0.026 A 
HETATM   11  C7  UNL     1      22.663   0.201  52.394  1.00  0.00     0.000 A 
HETATM   12  C6  UNL     1      23.779   0.412  53.065  1.00  0.00    -0.001 A 
HETATM   13  C5  UNL     1      24.705   1.555  52.878  1.00  0.00     0.111 A 
HETATM   14  C21 UNL     1      24.311   2.532  51.832  1.00  0.00     0.058 A 
HETATM   15  C22 UNL     1      25.447   2.776  50.828  1.00  0.00     0.019 C 
BRANCH  13  16
HETATM   16  N2  UNL     1      26.089   1.138  52.853  1.00  0.00    -0.401 N 
HETATM   17  C4  UNL     1      26.387  -0.070  52.210  1.00  0.00     0.137 C 
HETATM   18  C3  UNL     1      27.130  -1.097  53.001  1.00  0.00     0.136 C 
HETATM   19  N1  UNL     1      27.979  -0.587  54.017  1.00  0.00    -0.410 N 
HETATM   20  C24 UNL     1      27.290   0.327  54.858  1.00  0.00     0.136 C 
HETATM   21  C23 UNL     1      26.821   1.474  54.011  1.00  0.00     0.137 C 
BRANCH  19  22
HETATM   22  C2  UNL     1      29.304  -0.234  53.631  1.00  0.00     0.112 C 
HETATM   23  C1  UNL     1      30.104  -1.542  53.578  1.00  0.00     0.026 C 
ENDBRANCH  19  22
ENDBRANCH  13  16
ENDBRANCH   1   9
BRANCH   5  24
HETATM   24  N6  UNL     1      20.834   6.352  50.060  1.00  0.00    -0.364 N 
HETATM   25  H16 UNL     1      19.833   6.011  50.184  1.00  0.00     0.162 HD
BRANCH  24  26
HETATM   26  C12 UNL     1      21.398   7.644  50.332  1.00  0.00     0.112 C 
HETATM   27  C13 UNL     1      20.640   8.757  49.633  1.00  0.00     0.037 C 
BRANCH  26  28
HETATM   28  C14 UNL     1      22.770   7.672  49.706  1.00  0.00    -0.036 A 
HETATM   29  C15 UNL     1      23.756   7.544  50.674  1.00  0.00     0.009 A 
HETATM   30  C16 UNL     1      25.099   7.545  50.344  1.00  0.00     0.001 A 
HETATM   31  C17 UNL     1      25.430   7.680  49.010  1.00  0.00     0.000 A 
HETATM   32  C18 UNL     1      24.444   7.806  48.048  1.00  0.00     0.001 A 
HETATM   33  C19 UNL     1      23.118   7.803  48.390  1.00  0.00     0.009 A 
ENDBRANCH  26  28
ENDBRANCH  24  26
ENDBRANCH   5  24
TORSDOF 6
ENDMDL
MODEL 5
REMARK VINA RESULT:      -7.6      2.922      4.668
REMARK  6 active torsions:
REMARK  status: ('A' for Active; 'I' for Inactive)
REMARK    1  A    between atoms: C2_2  and  N1_3 
REMARK    2  A    between atoms: N2_6  and  C5_7 
REMARK    3  A    between atoms: C9_11  and  N3_12 
REMARK    4  A    between atoms: C11_16  and  N6_17 
REMARK    5  A    between atoms: N6_17  and  C12_18 
REMARK    6  A    between atoms: C12_18  and  C14_20 
ROOT
HETATM    1  N3  UNL     1      25.059   7.290  49.565  1.00  0.00    -0.295 N 
HETATM    2  C10 UNL     1      24.110   8.098  50.247  1.00  0.00     0.238 A 
HETATM    3  N4  UNL     1      23.376   7.660  51.195  1.00  0.00    -0.168 NA
HETATM    4  N5  UNL     1      23.451   6.318  51.643  1.00  0.00    -0.259 N 
HETATM    5  C11 UNL     1      24.355   5.439  51.035  1.00  0.00     0.158 A 
HETATM    6  C20 UNL     1      25.114   5.927  50.043  1.00  0.00     0.156 A 
HETATM    7 CL1  UNL     1      26.268   4.841  49.251  1.00  0.00    -0.060 Cl
HETATM    8  H15 UNL     1      22.839   5.991  52.416  1.00  0.00     0.191 HD
ENDROOT
BRANCH   1   9
HETATM    9  C9  UNL     1      25.919   7.674  48.501  1.00  0.00     0.025 A 
HETATM   10  C8  UNL     1      25.193   7.807  47.404  1.00  0.00     0.026 A 
HETATM   11  C7  UNL     1      25.867   8.200  46.156  1.00  0.00     0.000 A 
HETATM   12  C6  UNL     1      27.169   8.407  46.178  1.00  0.00    -0.001 A 
HETATM   13  C5  UNL     1      28.052   8.279  47.362  1.00  0.00     0.111 A 
HETATM   14  C21 UNL     1      27.376   7.883  48.623  1.00  0.00     0.058 A 
HETATM   15  C22 UNL     1      27.699   8.853  49.769  1.00  0.00     0.019 C 
BRANCH  13  16
HETATM   16  N2  UNL     1      28.981   9.383  47.473  1.00  0.00    -0.401 N 
HETATM   17  C4  UNL     1      28.642  10.577  46.826  1.00  0.00     0.137 C 
HETATM   18  C3  UNL     1      29.640  11.138  45.864  1.00  0.00     0.136 C 
HETATM   19  N1  UNL     1      30.995  10.818  46.137  1.00  0.00    -0.410 N 
HETATM   20  C24 UNL     1      31.171   9.421  46.324  1.00  0.00     0.136 C 
HETATM   21  C23 UNL     1      30.339   9.002  47.500  1.00  0.00     0.137 C 
BRANCH  19  22
HETATM   22  C2  UNL     1      31.691  11.681  47.032  1.00  0.00     0.112 C 
HETATM   23  C1  UNL     1      33.177  11.321  46.914  1.00  0.00     0.026 C 
ENDBRANCH  19  22
ENDBRANCH  13  16
ENDBRANCH   1   9
BRANCH   5  24
HETATM   24  N6  UNL     1      24.536   4.071  51.383  1.00  0.00    -0.364 N 
HETATM   25  H16 UNL     1      25.491   4.209  51.831  1.00  0.00     0.162 HD
BRANCH  24  26
HETATM   26  C12 UNL     1      23.765   2.869  51.229  1.00  0.00     0.112 C 
HETATM   27  C13 UNL     1      22.481   2.908  52.035  1.00  0.00     0.037 C 
BRANCH  26  28
HETATM   28  C14 UNL     1      24.563   1.747  51.844  1.00  0.00    -0.036 A 
HETATM   29  C15 UNL     1      25.893   1.818  51.457  1.00  0.00     0.009 A 
HETATM   30  C16 UNL     1      26.824   0.892  51.892  1.00  0.00     0.001 A 
HETATM   31  C17 UNL     1      26.384  -0.114  52.728  1.00  0.00     0.000 A 
HETATM   32  C18 UNL     1      25.056  -0.182  53.112  1.00  0.00     0.001 A 
HETATM   33  C19 UNL     1      24.146   0.743  52.673  1.00  0.00     0.009 A 
ENDBRANCH  26  28
ENDBRANCH  24  26
ENDBRANCH   5  24
TORSDOF 6
ENDMDL
MODEL 6
REMARK VINA RESULT:      -7.5      3.514      4.364
REMARK  6 active torsions:
REMARK  status: ('A' for Active; 'I' for Inactive)
REMARK    1  A    between atoms: C2_2  and  N1_3 
REMARK    2  A    between atoms: N2_6  and  C5_7 
REMARK    3  A    between atoms: C9_11  and  N3_12 
REMARK    4  A    between atoms: C11_16  and  N6_17 
REMARK    5  A    between atoms: N6_17  and  C12_18 
REMARK    6  A    between atoms: C12_18  and  C14_20 
ROOT
HETATM    1  N3  UNL     1      21.950   1.396  51.868  1.00  0.00    -0.295 N 
HETATM    2  C10 UNL     1      21.059   0.691  52.722  1.00  0.00     0.238 A 
HETATM    3  N4  UNL     1      21.454  -0.117  53.627  1.00  0.00    -0.168 NA
HETATM    4  N5  UNL     1      22.829  -0.377  53.851  1.00  0.00    -0.259 N 
HETATM    5  C11 UNL     1      23.789   0.268  53.063  1.00  0.00     0.158 A 
HETATM    6  C20 UNL     1      23.345   1.112  52.120  1.00  0.00     0.156 A 
HETATM    7 CL1  UNL     1      24.534   1.944  51.105  1.00  0.00    -0.060 Cl
HETATM    8  H15 UNL     1      23.120  -1.042  54.595  1.00  0.00     0.191 HD
ENDROOT
BRANCH   1   9
HETATM    9  C9  UNL     1      21.618   2.311  50.834  1.00  0.00     0.025 A 
HETATM   10  C8  UNL     1      21.020   1.643  49.861  1.00  0.00     0.026 A 
HETATM   11  C7  UNL     1      20.579   2.380  48.667  1.00  0.00     0.000 A 
HETATM   12  C6  UNL     1      20.795   3.680  48.610  1.00  0.00    -0.001 A 
HETATM   13  C5  UNL     1      21.456   4.500  49.653  1.00  0.00     0.111 A 
HETATM   14  C21 UNL     1      21.902   3.759  50.860  1.00  0.00     0.058 A 
HETATM   15  C22 UNL     1      21.369   4.402  52.149  1.00  0.00     0.019 C 
BRANCH  13  16
HETATM   16  N2  UNL     1      20.750   5.737  49.906  1.00  0.00    -0.401 N 
HETATM   17  C4  UNL     1      19.422   5.820  49.471  1.00  0.00     0.137 C 
HETATM   18  C3  UNL     1      19.069   6.965  48.576  1.00  0.00     0.136 C 
HETATM   19  N1  UNL     1      19.852   8.135  48.746  1.00  0.00    -0.410 N 
HETATM   20  C24 UNL     1      21.241   7.840  48.701  1.00  0.00     0.136 C 
HETATM   21  C23 UNL     1      21.552   6.894  49.823  1.00  0.00     0.137 C 
BRANCH  19  22
HETATM   22  C2  UNL     1      19.422   9.058  49.742  1.00  0.00     0.112 C 
HETATM   23  C1  UNL     1      20.089  10.398  49.410  1.00  0.00     0.026 C 
ENDBRANCH  19  22
ENDBRANCH  13  16
ENDBRANCH   1   9
BRANCH   5  24
HETATM   24  N6  UNL     1      25.198   0.102  53.179  1.00  0.00    -0.364 N 
HETATM   25  H16 UNL     1      25.292  -0.534  52.331  1.00  0.00     0.162 HD
BRANCH  24  26
HETATM   26  C12 UNL     1      26.210   0.580  54.079  1.00  0.00     0.112 C 
HETATM   27  C13 UNL     1      26.626   2.005  53.765  1.00  0.00     0.037 C 
BRANCH  26  28
HETATM   28  C14 UNL     1      27.452  -0.239  53.827  1.00  0.00    -0.036 A 
HETATM   29  C15 UNL     1      27.144  -1.401  53.136  1.00  0.00     0.009 A 
HETATM   30  C16 UNL     1      28.120  -2.319  52.791  1.00  0.00     0.001 A 
HETATM   31  C17 UNL     1      29.420  -2.039  53.159  1.00  0.00     0.000 A 
HETATM   32  C18 UNL     1      29.724  -0.878  53.849  1.00  0.00     0.001 A 
HETATM   33  C19 UNL     1      28.746   0.021  54.183  1.00  0.00     0.009 A 
ENDBRANCH  26  28
ENDBRANCH  24  26
ENDBRANCH   5  24
TORSDOF 6
ENDMDL
MODEL 7
REMARK VINA RESULT:      -7.5      2.962      8.879
REMARK  6 active torsions:
REMARK  status: ('A' for Active; 'I' for Inactive)
REMARK    1  A    between atoms: C2_2  and  N1_3 
REMARK    2  A    between atoms: N2_6  and  C5_7 
REMARK    3  A    between atoms: C9_11  and  N3_12 
REMARK    4  A    between atoms: C11_16  and  N6_17 
REMARK    5  A    between atoms: N6_17  and  C12_18 
REMARK    6  A    between atoms: C12_18  and  C14_20 
ROOT
HETATM    1  N3  UNL     1      23.827   6.067  49.784  1.00  0.00    -0.295 N 
HETATM    2  C10 UNL     1      23.310   7.390  49.796  1.00  0.00     0.238 A 
HETATM    3  N4  UNL     1      24.044   8.426  49.670  1.00  0.00    -0.168 NA
HETATM    4  N5  UNL     1      25.448   8.334  49.506  1.00  0.00    -0.259 N 
HETATM    5  C11 UNL     1      26.057   7.074  49.481  1.00  0.00     0.158 A 
HETATM    6  C20 UNL     1      25.261   6.004  49.616  1.00  0.00     0.156 A 
HETATM    7 CL1  UNL     1      26.000   4.394  49.588  1.00  0.00    -0.060 Cl
HETATM    8  H15 UNL     1      26.020   9.196  49.407  1.00  0.00     0.191 HD
ENDROOT
BRANCH   1   9
HETATM    9  C9  UNL     1      23.103   4.852  49.919  1.00  0.00     0.025 A 
HETATM   10  C8  UNL     1      23.306   4.122  48.834  1.00  0.00     0.026 A 
HETATM   11  C7  UNL     1      22.652   2.808  48.737  1.00  0.00     0.000 A 
HETATM   12  C6  UNL     1      21.889   2.404  49.734  1.00  0.00    -0.001 A 
HETATM   13  C5  UNL     1      21.610   3.160  50.979  1.00  0.00     0.111 A 
HETATM   14  C21 UNL     1      22.269   4.487  51.081  1.00  0.00     0.058 A 
HETATM   15  C22 UNL     1      23.058   4.629  52.391  1.00  0.00     0.019 C 
BRANCH  13  16
HETATM   16  N2  UNL     1      21.703   2.325  52.157  1.00  0.00    -0.401 N 
HETATM   17  C4  UNL     1      22.656   1.300  52.146  1.00  0.00     0.137 C 
HETATM   18  C3  UNL     1      22.168  -0.086  52.424  1.00  0.00     0.136 C 
HETATM   19  N1  UNL     1      21.016  -0.172  53.248  1.00  0.00    -0.410 N 
HETATM   20  C24 UNL     1      19.974   0.667  52.772  1.00  0.00     0.136 C 
HETATM   21  C23 UNL     1      20.470   2.083  52.798  1.00  0.00     0.137 C 
BRANCH  19  22
HETATM   22  C2  UNL     1      21.233  -0.196  54.655  1.00  0.00     0.112 C 
HETATM   23  C1  UNL     1      22.374  -1.190  54.903  1.00  0.00     0.026 C 
ENDBRANCH  19  22
ENDBRANCH  13  16
ENDBRANCH   1   9
BRANCH   5  24
HETATM   24  N6  UNL     1      27.451   6.835  49.324  1.00  0.00    -0.364 N 
HETATM   25  H16 UNL     1      27.641   6.674  50.359  1.00  0.00     0.162 HD
BRANCH  24  26
HETATM   26  C12 UNL     1      28.361   6.802  48.213  1.00  0.00     0.112 C 
HETATM   27  C13 UNL     1      29.237   5.563  48.231  1.00  0.00     0.037 C 
BRANCH  26  28
HETATM   28  C14 UNL     1      29.326   7.948  48.393  1.00  0.00    -0.036 A 
HETATM   29  C15 UNL     1      30.448   7.776  47.596  1.00  0.00     0.009 A 
HETATM   30  C16 UNL     1      31.480   8.698  47.590  1.00  0.00     0.001 A 
HETATM   31  C17 UNL     1      31.356   9.802  48.409  1.00  0.00     0.000 A 
HETATM   32  C18 UNL     1      30.235   9.970  49.203  1.00  0.00     0.001 A 
HETATM   33  C19 UNL     1      29.221   9.048  49.197  1.00  0.00     0.009 A 
ENDBRANCH  26  28
ENDBRANCH  24  26
ENDBRANCH   5  24
TORSDOF 6
ENDMDL
MODEL 8
REMARK VINA RESULT:      -7.5      5.784      8.587
REMARK  6 active torsions:
REMARK  status: ('A' for Active; 'I' for Inactive)
REMARK    1  A    between atoms: C2_2  and  N1_3 
REMARK    2  A    between atoms: N2_6  and  C5_7 
REMARK    3  A    between atoms: C9_11  and  N3_12 
REMARK    4  A    between atoms: C11_16  and  N6_17 
REMARK    5  A    between atoms: N6_17  and  C12_18 
REMARK    6  A    between atoms: C12_18  and  C14_20 
ROOT
HETATM    1  N3  UNL     1      20.016   1.535  50.290  1.00  0.00    -0.295 N 
HETATM    2  C10 UNL     1      20.803   1.969  49.190  1.00  0.00     0.238 A 
HETATM    3  N4  UNL     1      22.079   2.010  49.219  1.00  0.00    -0.168 NA
HETATM    4  N5  UNL     1      22.815   1.621  50.366  1.00  0.00    -0.259 N 
HETATM    5  C11 UNL     1      22.132   1.177  51.504  1.00  0.00     0.158 A 
HETATM    6  C20 UNL     1      20.793   1.144  51.444  1.00  0.00     0.156 A 
HETATM    7 CL1  UNL     1      19.897   0.587  52.868  1.00  0.00    -0.060 Cl
HETATM    8  H15 UNL     1      23.852   1.666  50.360  1.00  0.00     0.191 HD
ENDROOT
BRANCH   1   9
HETATM    9  C9  UNL     1      18.599   1.454  50.362  1.00  0.00     0.025 A 
HETATM   10  C8  UNL     1      18.251   0.178  50.320  1.00  0.00     0.026 A 
HETATM   11  C7  UNL     1      16.821  -0.164  50.378  1.00  0.00     0.000 A 
HETATM   12  C6  UNL     1      15.939   0.812  50.472  1.00  0.00    -0.001 A 
HETATM   13  C5  UNL     1      16.246   2.262  50.525  1.00  0.00     0.111 A 
HETATM   14  C21 UNL     1      17.688   2.611  50.466  1.00  0.00     0.058 A 
HETATM   15  C22 UNL     1      18.096   3.530  51.627  1.00  0.00     0.019 C 
BRANCH  13  16
HETATM   16  N2  UNL     1      15.479   2.946  51.542  1.00  0.00    -0.401 N 
HETATM   17  C4  UNL     1      14.923   2.166  52.563  1.00  0.00     0.137 C 
HETATM   18  C3  UNL     1      13.450   2.285  52.786  1.00  0.00     0.136 C 
HETATM   19  N1  UNL     1      12.881   3.537  52.435  1.00  0.00    -0.410 N 
HETATM   20  C24 UNL     1      13.247   3.922  51.118  1.00  0.00     0.136 C 
HETATM   21  C23 UNL     1      14.741   4.052  51.071  1.00  0.00     0.137 C 
BRANCH  19  22
HETATM   22  C2  UNL     1      12.898   4.553  53.432  1.00  0.00     0.112 C 
HETATM   23  C1  UNL     1      12.037   4.039  54.593  1.00  0.00     0.026 C 
ENDBRANCH  19  22
ENDBRANCH  13  16
ENDBRANCH   1   9
BRANCH   5  24
HETATM   24  N6  UNL     1      22.741   0.756  52.720  1.00  0.00    -0.364 N 
HETATM   25  H16 UNL     1      22.604   1.684  53.224  1.00  0.00     0.162 HD
BRANCH  24  26
HETATM   26  C12 UNL     1      23.348  -0.457  53.190  1.00  0.00     0.112 C 
HETATM   27  C13 UNL     1      22.780  -0.899  54.525  1.00  0.00     0.037 C 
BRANCH  26  28
HETATM   28  C14 UNL     1      24.796  -0.147  53.480  1.00  0.00    -0.036 A 
HETATM   29  C15 UNL     1      25.468   0.198  52.317  1.00  0.00     0.009 A 
HETATM   30  C16 UNL     1      26.813   0.523  52.328  1.00  0.00     0.001 A 
HETATM   31  C17 UNL     1      27.470   0.491  53.542  1.00  0.00     0.000 A 
HETATM   32  C18 UNL     1      26.795   0.146  54.700  1.00  0.00     0.001 A 
HETATM   33  C19 UNL     1      25.463  -0.173  54.673  1.00  0.00     0.009 A 
ENDBRANCH  26  28
ENDBRANCH  24  26
ENDBRANCH   5  24
TORSDOF 6
ENDMDL
MODEL 9
REMARK VINA RESULT:      -7.5      6.227      9.638
REMARK  6 active torsions:
REMARK  status: ('A' for Active; 'I' for Inactive)
REMARK    1  A    between atoms: C2_2  and  N1_3 
REMARK    2  A    between atoms: N2_6  and  C5_7 
REMARK    3  A    between atoms: C9_11  and  N3_12 
REMARK    4  A    between atoms: C11_16  and  N6_17 
REMARK    5  A    between atoms: N6_17  and  C12_18 
REMARK    6  A    between atoms: C12_18  and  C14_20 
ROOT
HETATM    1  N3  UNL     1      32.437   8.130  47.793  1.00  0.00    -0.295 N 
HETATM    2  C10 UNL     1      33.489   8.133  48.749  1.00  0.00     0.238 A 
HETATM    3  N4  UNL     1      34.642   7.638  48.518  1.00  0.00    -0.168 NA
HETATM    4  N5  UNL     1      34.965   7.039  47.276  1.00  0.00    -0.259 N 
HETATM    5  C11 UNL     1      33.998   6.984  46.266  1.00  0.00     0.158 A 
HETATM    6  C20 UNL     1      32.796   7.513  46.536  1.00  0.00     0.156 A 
HETATM    7 CL1  UNL     1      31.548   7.460  45.279  1.00  0.00    -0.060 Cl
HETATM    8  H15 UNL     1      35.912   6.643  47.118  1.00  0.00     0.191 HD
ENDROOT
BRANCH   1   9
HETATM    9  C9  UNL     1      31.124   8.648  47.948  1.00  0.00     0.025 A 
HETATM   10  C8  UNL     1      31.056   9.808  47.315  1.00  0.00     0.026 A 
HETATM   11  C7  UNL     1      29.784  10.547  47.333  1.00  0.00     0.000 A 
HETATM   12  C6  UNL     1      28.758  10.027  47.979  1.00  0.00    -0.001 A 
HETATM   13  C5  UNL     1      28.752   8.738  48.711  1.00  0.00     0.111 A 
HETATM   14  C21 UNL     1      30.034   7.988  48.694  1.00  0.00     0.058 A 
HETATM   15  C22 UNL     1      29.839   6.541  48.218  1.00  0.00     0.019 C 
BRANCH  13  16
HETATM   16  N2  UNL     1      27.569   7.955  48.430  1.00  0.00    -0.401 N 
HETATM   17  C4  UNL     1      26.997   8.084  47.159  1.00  0.00     0.137 C 
HETATM   18  C3  UNL     1      25.551   8.457  47.097  1.00  0.00     0.136 C 
HETATM   19  N1  UNL     1      24.769   8.046  48.206  1.00  0.00    -0.410 N 
HETATM   20  C24 UNL     1      25.362   8.442  49.435  1.00  0.00     0.136 C 
HETATM   21  C23 UNL     1      26.707   7.785  49.534  1.00  0.00     0.137 C 
BRANCH  19  22
HETATM   22  C2  UNL     1      24.214   6.735  48.152  1.00  0.00     0.112 C 
HETATM   23  C1  UNL     1      23.238   6.724  46.970  1.00  0.00     0.026 C 
ENDBRANCH  19  22
ENDBRANCH  13  16
ENDBRANCH   1   9
BRANCH   5  24
HETATM   24  N6  UNL     1      34.185   6.415  44.975  1.00  0.00    -0.364 N 
HETATM   25  H16 UNL     1      34.184   7.344  44.456  1.00  0.00     0.162 HD
BRANCH  24  26
HETATM   26  C12 UNL     1      34.333   5.082  44.459  1.00  0.00     0.112 C 
HETATM   27  C13 UNL     1      33.292   4.760  43.403  1.00  0.00     0.037 C 
BRANCH  26  28
HETATM   28  C14 UNL     1      34.029   4.131  45.590  1.00  0.00    -0.036 A 
HETATM   29  C15 UNL     1      32.673   3.841  45.639  1.00  0.00     0.009 A 
HETATM   30  C16 UNL     1      32.149   2.991  46.595  1.00  0.00     0.001 A 
HETATM   31  C17 UNL     1      33.024   2.437  47.508  1.00  0.00     0.000 A 
HETATM   32  C18 UNL     1      34.375   2.728  47.456  1.00  0.00     0.001 A 
HETATM   33  C19 UNL     1      34.880   3.572  46.502  1.00  0.00     0.009 A 
ENDBRANCH  26  28
ENDBRANCH  24  26
ENDBRANCH   5  24
TORSDOF 6
ENDMDL
