MODEL 1
REMARK VINA RESULT:      -9.9      0.000      0.000
REMARK  4 active torsions:
REMARK  status: ('A' for Active; 'I' for Inactive)
REMARK    1  A    between atoms: C3_3  and  C4_4 
REMARK       I    between atoms: C4_4  and  N1_6 
REMARK    2  A    between atoms: N1_6  and  C5_7 
REMARK    3  A    between atoms: C6_8  and  C7_9 
REMARK    4  A    between atoms: C8_10  and  N2_11 
ROOT
HETATM    1  C7  UNL     1      24.472   1.391  51.790  1.00  0.00     0.003 C 
HETATM    2  C8  UNL     1      24.591   0.671  52.864  1.00  0.00     0.068 C 
HETATM    3  C14 UNL     1      23.969  -0.191  53.840  1.00  0.00     0.087 C 
HETATM    4  C15 UNL     1      24.739  -0.755  54.956  1.00  0.00     0.100 C 
HETATM    5  N3  UNL     1      25.353  -1.204  55.868  1.00  0.00    -0.192 NA
HETATM    6  C16 UNL     1      22.702  -0.575  53.869  1.00  0.00     0.711 C 
HETATM    7  N4  UNL     1      21.392  -1.085  54.062  1.00  0.00     0.034 NA
HETATM    8  C17 UNL     1      20.332  -0.664  53.460  1.00  0.00     0.261 C 
HETATM    9  C18 UNL     1      20.366   0.438  52.466  1.00  0.00     0.211 C 
HETATM   10  O2  UNL     1      21.764   0.659  52.222  1.00  0.00    -0.352 OA
HETATM   11  C19 UNL     1      22.196   1.353  51.124  1.00  0.00     0.058 A 
HETATM   12  C20 UNL     1      23.416   1.719  50.867  1.00  0.00    -0.010 A 
HETATM   13  C21 UNL     1      22.418   2.110  49.849  1.00  0.00     0.107 A 
ENDROOT
BRANCH   2  14
HETATM   14  N2  UNL     1      25.976   0.832  53.238  1.00  0.00    -0.327 N 
HETATM   15  C9  UNL     1      26.887  -0.149  52.968  1.00  0.00     0.106 A 
HETATM   16  C10 UNL     1      28.170   0.203  53.373  1.00  0.00    -0.006 A 
HETATM   17  C11 UNL     1      29.378  -0.638  53.224  1.00  0.00     0.053 C 
HETATM   18  C12 UNL     1      28.023   1.461  53.917  1.00  0.00     0.139 A 
HETATM   19  F1  UNL     1      29.005   2.208  54.445  1.00  0.00    -0.204 F 
HETATM   20  C13 UNL     1      26.697   1.816  53.825  1.00  0.00     0.139 A 
ENDBRANCH   2  14
BRANCH   1  21
HETATM   21  C6  UNL     1      25.778   2.009  51.482  1.00  0.00     0.031 C 
HETATM   22  C5  UNL     1      25.938   2.994  50.628  1.00  0.00     0.092 C 
BRANCH  22  23
HETATM   23  N1  UNL     1      26.732   3.923  49.943  1.00  0.00    -0.334 N 
HETATM   24  C4  UNL     1      26.363   5.002  49.119  1.00  0.00     0.244 C 
HETATM   25  O1  UNL     1      25.162   5.311  48.855  1.00  0.00    -0.268 OA
HETATM   26  H6  UNL     1      27.752   3.718  50.121  1.00  0.00     0.168 HD
BRANCH  24  27
HETATM   27  C3  UNL     1      27.383   5.823  48.527  1.00  0.00     0.070 C 
HETATM   28  C2  UNL     1      28.533   5.209  48.462  1.00  0.00    -0.026 C 
HETATM   29  C1  UNL     1      29.742   5.875  47.880  1.00  0.00     0.036 C 
ENDBRANCH  24  27
ENDBRANCH  22  23
ENDBRANCH   1  21
TORSDOF 4
ENDMDL
MODEL 2
REMARK VINA RESULT:      -9.2      3.549      6.052
REMARK  4 active torsions:
REMARK  status: ('A' for Active; 'I' for Inactive)
REMARK    1  A    between atoms: C3_3  and  C4_4 
REMARK       I    between atoms: C4_4  and  N1_6 
REMARK    2  A    between atoms: N1_6  and  C5_7 
REMARK    3  A    between atoms: C6_8  and  C7_9 
REMARK    4  A    between atoms: C8_10  and  N2_11 
ROOT
HETATM    1  C7  UNL     1      21.979   0.392  52.904  1.00  0.00     0.003 C 
HETATM    2  C8  UNL     1      21.150   0.969  52.089  1.00  0.00     0.068 C 
HETATM    3  C14 UNL     1      19.800   1.093  51.594  1.00  0.00     0.087 C 
HETATM    4  C15 UNL     1      19.465   2.048  50.529  1.00  0.00     0.100 C 
HETATM    5  N3  UNL     1      19.192   2.810  49.659  1.00  0.00    -0.192 NA
HETATM    6  C16 UNL     1      18.738   0.414  51.999  1.00  0.00     0.711 C 
HETATM    7  N4  UNL     1      17.501  -0.212  52.301  1.00  0.00     0.034 NA
HETATM    8  C17 UNL     1      17.359  -1.283  53.005  1.00  0.00     0.261 C 
HETATM    9  C18 UNL     1      18.514  -2.003  53.598  1.00  0.00     0.211 C 
HETATM   10  O2  UNL     1      19.628  -1.118  53.404  1.00  0.00    -0.352 OA
HETATM   11  C19 UNL     1      20.792  -1.272  54.109  1.00  0.00     0.058 A 
HETATM   12  C20 UNL     1      21.900  -0.615  53.930  1.00  0.00    -0.010 A 
HETATM   13  C21 UNL     1      21.936  -1.622  55.013  1.00  0.00     0.107 A 
ENDROOT
BRANCH   2  14
HETATM   14  N2  UNL     1      21.978   1.888  51.344  1.00  0.00    -0.327 N 
HETATM   15  C9  UNL     1      22.174   3.164  51.790  1.00  0.00     0.106 A 
HETATM   16  C10 UNL     1      23.025   3.883  50.958  1.00  0.00    -0.006 A 
HETATM   17  C11 UNL     1      23.437   5.290  51.162  1.00  0.00     0.053 C 
HETATM   18  C12 UNL     1      23.357   2.995  49.958  1.00  0.00     0.139 A 
HETATM   19  F1  UNL     1      24.166   3.249  48.918  1.00  0.00    -0.204 F 
HETATM   20  C13 UNL     1      22.715   1.804  50.212  1.00  0.00     0.139 A 
ENDBRANCH   2  14
BRANCH   1  21
HETATM   21  C6  UNL     1      23.331   0.941  52.678  1.00  0.00     0.031 C 
HETATM   22  C5  UNL     1      24.412   0.489  53.271  1.00  0.00     0.092 C 
BRANCH  22  23
HETATM   23  N1  UNL     1      25.794   0.506  53.511  1.00  0.00    -0.334 N 
HETATM   24  C4  UNL     1      26.531   0.026  54.608  1.00  0.00     0.244 C 
HETATM   25  O1  UNL     1      26.011  -0.536  55.618  1.00  0.00    -0.268 OA
HETATM   26  H6  UNL     1      26.289   0.967  52.701  1.00  0.00     0.168 HD
BRANCH  24  27
HETATM   27  C3  UNL     1      27.961   0.162  54.614  1.00  0.00     0.070 C 
HETATM   28  C2  UNL     1      28.530  -0.571  53.696  1.00  0.00    -0.026 C 
HETATM   29  C1  UNL     1      30.017  -0.587  53.519  1.00  0.00     0.036 C 
ENDBRANCH  24  27
ENDBRANCH  22  23
ENDBRANCH   1  21
TORSDOF 4
ENDMDL
MODEL 3
REMARK VINA RESULT:      -9.1      1.752      2.284
REMARK  4 active torsions:
REMARK  status: ('A' for Active; 'I' for Inactive)
REMARK    1  A    between atoms: C3_3  and  C4_4 
REMARK       I    between atoms: C4_4  and  N1_6 
REMARK    2  A    between atoms: N1_6  and  C5_7 
REMARK    3  A    between atoms: C6_8  and  C7_9 
REMARK    4  A    between atoms: C8_10  and  N2_11 
ROOT
HETATM    1  C7  UNL     1      22.188   0.852  51.457  1.00  0.00     0.003 C 
HETATM    2  C8  UNL     1      22.298   0.192  52.570  1.00  0.00     0.068 C 
HETATM    3  C14 UNL     1      21.675  -0.639  53.572  1.00  0.00     0.087 C 
HETATM    4  C15 UNL     1      22.430  -1.121  54.736  1.00  0.00     0.100 C 
HETATM    5  N3  UNL     1      23.032  -1.503  55.686  1.00  0.00    -0.192 NA
HETATM    6  C16 UNL     1      20.420  -1.060  53.588  1.00  0.00     0.711 C 
HETATM    7  N4  UNL     1      19.121  -1.601  53.772  1.00  0.00     0.034 NA
HETATM    8  C17 UNL     1      18.066  -1.244  53.121  1.00  0.00     0.261 C 
HETATM    9  C18 UNL     1      18.095  -0.194  52.073  1.00  0.00     0.211 C 
HETATM   10  O2  UNL     1      19.492   0.058  51.855  1.00  0.00    -0.352 OA
HETATM   11  C19 UNL     1      19.933   0.709  50.734  1.00  0.00     0.058 A 
HETATM   12  C20 UNL     1      21.149   1.100  50.491  1.00  0.00    -0.010 A 
HETATM   13  C21 UNL     1      20.168   1.407  49.428  1.00  0.00     0.107 A 
ENDROOT
BRANCH   2  14
HETATM   14  N2  UNL     1      23.667   0.415  52.972  1.00  0.00    -0.327 N 
HETATM   15  C9  UNL     1      24.631  -0.512  52.700  1.00  0.00     0.106 A 
HETATM   16  C10 UNL     1      25.887  -0.104  53.135  1.00  0.00    -0.006 A 
HETATM   17  C11 UNL     1      27.139  -0.880  52.991  1.00  0.00     0.053 C 
HETATM   18  C12 UNL     1      25.667   1.134  53.700  1.00  0.00     0.139 A 
HETATM   19  F1  UNL     1      26.601   1.919  54.259  1.00  0.00    -0.204 F 
HETATM   20  C13 UNL     1      24.326   1.423  53.590  1.00  0.00     0.139 A 
ENDBRANCH   2  14
BRANCH   1  21
HETATM   21  C6  UNL     1      23.482   1.495  51.152  1.00  0.00     0.031 C 
HETATM   22  C5  UNL     1      23.606   2.584  50.429  1.00  0.00     0.092 C 
BRANCH  22  23
HETATM   23  N1  UNL     1      24.373   3.591  49.826  1.00  0.00    -0.334 N 
HETATM   24  C4  UNL     1      25.767   3.765  49.779  1.00  0.00     0.244 C 
HETATM   25  O1  UNL     1      26.597   2.976  50.321  1.00  0.00    -0.268 OA
HETATM   26  H6  UNL     1      23.735   4.288  49.354  1.00  0.00     0.168 HD
BRANCH  24  27
HETATM   27  C3  UNL     1      26.317   4.895  49.082  1.00  0.00     0.070 C 
HETATM   28  C2  UNL     1      27.596   4.763  48.860  1.00  0.00    -0.026 C 
HETATM   29  C1  UNL     1      28.379   5.822  48.146  1.00  0.00     0.036 C 
ENDBRANCH  24  27
ENDBRANCH  22  23
ENDBRANCH   1  21
TORSDOF 4
ENDMDL
MODEL 4
REMARK VINA RESULT:      -9.0      2.840      4.870
REMARK  4 active torsions:
REMARK  status: ('A' for Active; 'I' for Inactive)
REMARK    1  A    between atoms: C3_3  and  C4_4 
REMARK       I    between atoms: C4_4  and  N1_6 
REMARK    2  A    between atoms: N1_6  and  C5_7 
REMARK    3  A    between atoms: C6_8  and  C7_9 
REMARK    4  A    between atoms: C8_10  and  N2_11 
ROOT
HETATM    1  C7  UNL     1      23.724   2.268  52.162  1.00  0.00     0.003 C 
HETATM    2  C8  UNL     1      22.453   2.532  52.177  1.00  0.00     0.068 C 
HETATM    3  C14 UNL     1      21.118   2.128  52.552  1.00  0.00     0.087 C 
HETATM    4  C15 UNL     1      19.956   2.973  52.249  1.00  0.00     0.100 C 
HETATM    5  N3  UNL     1      19.011   3.647  51.997  1.00  0.00    -0.192 NA
HETATM    6  C16 UNL     1      20.771   1.016  53.180  1.00  0.00     0.711 C 
HETATM    7  N4  UNL     1      20.216  -0.111  53.840  1.00  0.00     0.034 NA
HETATM    8  C17 UNL     1      20.834  -1.218  54.073  1.00  0.00     0.261 C 
HETATM    9  C18 UNL     1      22.243  -1.444  53.663  1.00  0.00     0.211 C 
HETATM   10  O2  UNL     1      22.707  -0.151  53.244  1.00  0.00    -0.352 OA
HETATM   11  C19 UNL     1      24.043   0.121  53.119  1.00  0.00     0.058 A 
HETATM   12  C20 UNL     1      24.572   1.204  52.633  1.00  0.00    -0.010 A 
HETATM   13  C21 UNL     1      25.541   0.183  53.087  1.00  0.00     0.107 A 
ENDROOT
BRANCH   2  14
HETATM   14  N2  UNL     1      22.353   3.802  51.497  1.00  0.00    -0.327 N 
HETATM   15  C9  UNL     1      22.139   3.854  50.150  1.00  0.00     0.106 A 
HETATM   16  C10 UNL     1      22.040   5.161  49.686  1.00  0.00    -0.006 A 
HETATM   17  C11 UNL     1      21.811   5.556  48.279  1.00  0.00     0.053 C 
HETATM   18  C12 UNL     1      22.205   5.937  50.813  1.00  0.00     0.139 A 
HETATM   19  F1  UNL     1      22.187   7.278  50.853  1.00  0.00    -0.204 F 
HETATM   20  C13 UNL     1      22.392   5.097  51.887  1.00  0.00     0.139 A 
ENDBRANCH   2  14
BRANCH   1  21
HETATM   21  C6  UNL     1      24.432   3.365  51.472  1.00  0.00     0.031 C 
HETATM   22  C5  UNL     1      25.588   3.223  50.867  1.00  0.00     0.092 C 
BRANCH  22  23
HETATM   23  N1  UNL     1      26.671   3.722  50.130  1.00  0.00    -0.334 N 
HETATM   24  C4  UNL     1      26.714   4.727  49.146  1.00  0.00     0.244 C 
HETATM   25  O1  UNL     1      25.699   5.374  48.752  1.00  0.00    -0.268 OA
HETATM   26  H6  UNL     1      27.555   3.218  50.412  1.00  0.00     0.168 HD
BRANCH  24  27
HETATM   27  C3  UNL     1      27.969   5.064  48.533  1.00  0.00     0.070 C 
HETATM   28  C2  UNL     1      28.029   6.323  48.194  1.00  0.00    -0.026 C 
HETATM   29  C1  UNL     1      29.246   6.898  47.537  1.00  0.00     0.036 C 
ENDBRANCH  24  27
ENDBRANCH  22  23
ENDBRANCH   1  21
TORSDOF 4
ENDMDL
MODEL 5
REMARK VINA RESULT:      -8.8      3.295      8.038
REMARK  4 active torsions:
REMARK  status: ('A' for Active; 'I' for Inactive)
REMARK    1  A    between atoms: C3_3  and  C4_4 
REMARK       I    between atoms: C4_4  and  N1_6 
REMARK    2  A    between atoms: N1_6  and  C5_7 
REMARK    3  A    between atoms: C6_8  and  C7_9 
REMARK    4  A    between atoms: C8_10  and  N2_11 
ROOT
HETATM    1  C7  UNL     1      23.605   0.475  53.319  1.00  0.00     0.003 C 
HETATM    2  C8  UNL     1      24.094   1.334  52.477  1.00  0.00     0.068 C 
HETATM    3  C14 UNL     1      25.255   1.990  51.926  1.00  0.00     0.087 C 
HETATM    4  C15 UNL     1      25.128   2.993  50.860  1.00  0.00     0.100 C 
HETATM    5  N3  UNL     1      25.030   3.813  50.007  1.00  0.00    -0.192 NA
HETATM    6  C16 UNL     1      26.518   1.798  52.275  1.00  0.00     0.711 C 
HETATM    7  N4  UNL     1      27.914   1.726  52.515  1.00  0.00     0.034 NA
HETATM    8  C17 UNL     1      28.469   1.154  53.529  1.00  0.00     0.261 C 
HETATM    9  C18 UNL     1      27.680   0.484  54.594  1.00  0.00     0.211 C 
HETATM   10  O2  UNL     1      26.341   0.441  54.076  1.00  0.00    -0.352 OA
HETATM   11  C19 UNL     1      25.396  -0.395  54.609  1.00  0.00     0.058 A 
HETATM   12  C20 UNL     1      24.132  -0.430  54.308  1.00  0.00    -0.010 A 
HETATM   13  C21 UNL     1      24.559  -1.405  55.335  1.00  0.00     0.107 A 
ENDROOT
BRANCH   2  14
HETATM   14  N2  UNL     1      22.929   1.868  51.811  1.00  0.00    -0.327 N 
HETATM   15  C9  UNL     1      22.478   1.314  50.648  1.00  0.00     0.106 A 
HETATM   16  C10 UNL     1      21.331   1.945  50.179  1.00  0.00    -0.006 A 
HETATM   17  C11 UNL     1      20.597   1.584  48.945  1.00  0.00     0.053 C 
HETATM   18  C12 UNL     1      21.078   2.930  51.108  1.00  0.00     0.139 A 
HETATM   19  F1  UNL     1      20.059   3.803  51.072  1.00  0.00    -0.204 F 
HETATM   20  C13 UNL     1      22.053   2.865  52.078  1.00  0.00     0.139 A 
ENDBRANCH   2  14
BRANCH   1  21
HETATM   21  C6  UNL     1      22.134   0.464  53.191  1.00  0.00     0.031 C 
HETATM   22  C5  UNL     1      21.369  -0.509  53.630  1.00  0.00     0.092 C 
BRANCH  22  23
HETATM   23  N1  UNL     1      20.117  -1.108  53.828  1.00  0.00    -0.334 N 
HETATM   24  C4  UNL     1      18.900  -0.915  53.150  1.00  0.00     0.244 C 
HETATM   25  O1  UNL     1      18.748  -0.106  52.187  1.00  0.00    -0.268 OA
HETATM   26  H6  UNL     1      20.176  -1.798  54.626  1.00  0.00     0.168 HD
BRANCH  24  27
HETATM   27  C3  UNL     1      17.741  -1.666  53.548  1.00  0.00     0.070 C 
HETATM   28  C2  UNL     1      17.925  -2.954  53.433  1.00  0.00    -0.026 C 
HETATM   29  C1  UNL     1      16.849  -3.931  53.792  1.00  0.00     0.036 C 
ENDBRANCH  24  27
ENDBRANCH  22  23
ENDBRANCH   1  21
TORSDOF 4
ENDMDL
MODEL 6
REMARK VINA RESULT:      -8.8      3.135      7.725
REMARK  4 active torsions:
REMARK  status: ('A' for Active; 'I' for Inactive)
REMARK    1  A    between atoms: C3_3  and  C4_4 
REMARK       I    between atoms: C4_4  and  N1_6 
REMARK    2  A    between atoms: N1_6  and  C5_7 
REMARK    3  A    between atoms: C6_8  and  C7_9 
REMARK    4  A    between atoms: C8_10  and  N2_11 
ROOT
HETATM    1  C7  UNL     1      24.182   0.633  53.219  1.00  0.00     0.003 C 
HETATM    2  C8  UNL     1      24.836   1.422  52.421  1.00  0.00     0.068 C 
HETATM    3  C14 UNL     1      26.106   1.955  51.990  1.00  0.00     0.087 C 
HETATM    4  C15 UNL     1      26.187   2.937  50.901  1.00  0.00     0.100 C 
HETATM    5  N3  UNL     1      26.258   3.741  50.029  1.00  0.00    -0.192 NA
HETATM    6  C16 UNL     1      27.300   1.657  52.477  1.00  0.00     0.711 C 
HETATM    7  N4  UNL     1      28.650   1.463  52.868  1.00  0.00     0.034 NA
HETATM    8  C17 UNL     1      29.037   0.869  53.945  1.00  0.00     0.261 C 
HETATM    9  C18 UNL     1      28.080   0.303  54.928  1.00  0.00     0.211 C 
HETATM   10  O2  UNL     1      26.805   0.369  54.269  1.00  0.00    -0.352 OA
HETATM   11  C19 UNL     1      25.735  -0.363  54.709  1.00  0.00     0.058 A 
HETATM   12  C20 UNL     1      24.513  -0.290  54.273  1.00  0.00    -0.010 A 
HETATM   13  C21 UNL     1      24.735  -1.273  55.356  1.00  0.00     0.107 A 
ENDROOT
BRANCH   2  14
HETATM   14  N2  UNL     1      23.804   2.044  51.625  1.00  0.00    -0.327 N 
HETATM   15  C9  UNL     1      23.265   3.241  51.998  1.00  0.00     0.106 A 
HETATM   16  C10 UNL     1      22.314   3.692  51.089  1.00  0.00    -0.006 A 
HETATM   17  C11 UNL     1      21.548   4.953  51.205  1.00  0.00     0.053 C 
HETATM   18  C12 UNL     1      22.277   2.715  50.119  1.00  0.00     0.139 A 
HETATM   19  F1  UNL     1      21.495   2.719  49.028  1.00  0.00    -0.204 F 
HETATM   20  C13 UNL     1      23.181   1.735  50.464  1.00  0.00     0.139 A 
ENDBRANCH   2  14
BRANCH   1  21
HETATM   21  C6  UNL     1      22.738   0.754  52.932  1.00  0.00     0.031 C 
HETATM   22  C5  UNL     1      21.825  -0.051  53.425  1.00  0.00     0.092 C 
BRANCH  22  23
HETATM   23  N1  UNL     1      20.497  -0.477  53.572  1.00  0.00    -0.334 N 
HETATM   24  C4  UNL     1      19.404  -0.361  52.695  1.00  0.00     0.244 C 
HETATM   25  O1  UNL     1      19.466   0.191  51.556  1.00  0.00    -0.268 OA
HETATM   26  H6  UNL     1      20.378  -0.948  54.510  1.00  0.00     0.168 HD
BRANCH  24  27
HETATM   27  C3  UNL     1      18.126  -0.892  53.083  1.00  0.00     0.070 C 
HETATM   28  C2  UNL     1      17.262  -0.861  52.105  1.00  0.00    -0.026 C 
HETATM   29  C1  UNL     1      15.862  -1.364  52.282  1.00  0.00     0.036 C 
ENDBRANCH  24  27
ENDBRANCH  22  23
ENDBRANCH   1  21
TORSDOF 4
ENDMDL
MODEL 7
REMARK VINA RESULT:      -8.5      2.528      4.818
REMARK  4 active torsions:
REMARK  status: ('A' for Active; 'I' for Inactive)
REMARK    1  A    between atoms: C3_3  and  C4_4 
REMARK       I    between atoms: C4_4  and  N1_6 
REMARK    2  A    between atoms: N1_6  and  C5_7 
REMARK    3  A    between atoms: C6_8  and  C7_9 
REMARK    4  A    between atoms: C8_10  and  N2_11 
ROOT
HETATM    1  C7  UNL     1      24.343   1.720  52.218  1.00  0.00     0.003 C 
HETATM    2  C8  UNL     1      23.102   1.337  52.229  1.00  0.00     0.068 C 
HETATM    3  C14 UNL     1      22.065   0.550  52.851  1.00  0.00     0.087 C 
HETATM    4  C15 UNL     1      20.695   0.542  52.321  1.00  0.00     0.100 C 
HETATM    5  N3  UNL     1      19.589   0.522  51.889  1.00  0.00    -0.192 NA
HETATM    6  C16 UNL     1      22.186  -0.226  53.917  1.00  0.00     0.711 C 
HETATM    7  N4  UNL     1      22.127  -1.096  55.036  1.00  0.00     0.034 NA
HETATM    8  C17 UNL     1      23.148  -1.577  55.661  1.00  0.00     0.261 C 
HETATM    9  C18 UNL     1      24.543  -1.262  55.267  1.00  0.00     0.211 C 
HETATM   10  O2  UNL     1      24.415  -0.205  54.303  1.00  0.00    -0.352 OA
HETATM   11  C19 UNL     1      25.481   0.583  53.961  1.00  0.00     0.058 A 
HETATM   12  C20 UNL     1      25.514   1.479  53.020  1.00  0.00    -0.010 A 
HETATM   13  C21 UNL     1      26.774   1.320  53.778  1.00  0.00     0.107 A 
ENDROOT
BRANCH   2  14
HETATM   14  N2  UNL     1      22.522   2.005  51.087  1.00  0.00    -0.327 N 
HETATM   15  C9  UNL     1      21.956   3.240  51.218  1.00  0.00     0.106 A 
HETATM   16  C10 UNL     1      21.484   3.731  50.006  1.00  0.00    -0.006 A 
HETATM   17  C11 UNL     1      20.819   5.038  49.810  1.00  0.00     0.053 C 
HETATM   18  C12 UNL     1      21.781   2.738  49.097  1.00  0.00     0.139 A 
HETATM   19  F1  UNL     1      21.509   2.769  47.783  1.00  0.00    -0.204 F 
HETATM   20  C13 UNL     1      22.404   1.713  49.771  1.00  0.00     0.139 A 
ENDBRANCH   2  14
BRANCH   1  21
HETATM   21  C6  UNL     1      24.553   2.627  51.072  1.00  0.00     0.031 C 
HETATM   22  C5  UNL     1      25.661   3.301  50.866  1.00  0.00     0.092 C 
BRANCH  22  23
HETATM   23  N1  UNL     1      26.449   4.197  50.129  1.00  0.00    -0.334 N 
HETATM   24  C4  UNL     1      26.077   5.156  49.170  1.00  0.00     0.244 C 
HETATM   25  O1  UNL     1      24.881   5.364  48.805  1.00  0.00    -0.268 OA
HETATM   26  H6  UNL     1      27.464   4.071  50.387  1.00  0.00     0.168 HD
BRANCH  24  27
HETATM   27  C3  UNL     1      27.088   5.967  48.550  1.00  0.00     0.070 C 
HETATM   28  C2  UNL     1      28.246   5.364  48.508  1.00  0.00    -0.026 C 
HETATM   29  C1  UNL     1      29.448   6.022  47.905  1.00  0.00     0.036 C 
ENDBRANCH  24  27
ENDBRANCH  22  23
ENDBRANCH   1  21
TORSDOF 4
ENDMDL
MODEL 8
REMARK VINA RESULT:      -8.5      2.972      7.276
REMARK  4 active torsions:
REMARK  status: ('A' for Active; 'I' for Inactive)
REMARK    1  A    between atoms: C3_3  and  C4_4 
REMARK       I    between atoms: C4_4  and  N1_6 
REMARK    2  A    between atoms: N1_6  and  C5_7 
REMARK    3  A    between atoms: C6_8  and  C7_9 
REMARK    4  A    between atoms: C8_10  and  N2_11 
ROOT
HETATM    1  C7  UNL     1      25.535   4.284  49.612  1.00  0.00     0.003 C 
HETATM    2  C8  UNL     1      24.333   4.771  49.668  1.00  0.00     0.068 C 
HETATM    3  C14 UNL     1      23.429   5.850  49.349  1.00  0.00     0.087 C 
HETATM    4  C15 UNL     1      22.013   5.794  49.734  1.00  0.00     0.100 C 
HETATM    5  N3  UNL     1      20.869   5.760  50.053  1.00  0.00    -0.192 NA
HETATM    6  C16 UNL     1      23.723   6.970  48.707  1.00  0.00     0.711 C 
HETATM    7  N4  UNL     1      23.850   8.217  48.042  1.00  0.00     0.034 NA
HETATM    8  C17 UNL     1      24.964   8.794  47.746  1.00  0.00     0.261 C 
HETATM    9  C18 UNL     1      26.282   8.197  48.078  1.00  0.00     0.211 C 
HETATM   10  O2  UNL     1      25.973   6.863  48.511  1.00  0.00    -0.352 OA
HETATM   11  C19 UNL     1      26.937   5.893  48.577  1.00  0.00     0.058 A 
HETATM   12  C20 UNL     1      26.802   4.697  49.068  1.00  0.00    -0.010 A 
HETATM   13  C21 UNL     1      28.147   5.008  48.536  1.00  0.00     0.107 A 
ENDROOT
BRANCH   2  14
HETATM   14  N2  UNL     1      23.584   3.769  50.389  1.00  0.00    -0.327 N 
HETATM   15  C9  UNL     1      22.971   2.747  49.724  1.00  0.00     0.106 A 
HETATM   16  C10 UNL     1      22.330   1.869  50.591  1.00  0.00    -0.006 A 
HETATM   17  C11 UNL     1      21.575   0.662  50.186  1.00  0.00     0.053 C 
HETATM   18  C12 UNL     1      22.570   2.389  51.844  1.00  0.00     0.139 A 
HETATM   19  F1  UNL     1      22.141   1.872  53.005  1.00  0.00    -0.204 F 
HETATM   20  C13 UNL     1      23.325   3.531  51.696  1.00  0.00     0.139 A 
ENDBRANCH   2  14
BRANCH   1  21
HETATM   21  C6  UNL     1      25.552   2.975  50.297  1.00  0.00     0.031 C 
HETATM   22  C5  UNL     1      26.533   2.567  51.070  1.00  0.00     0.092 C 
BRANCH  22  23
HETATM   23  N1  UNL     1      27.139   1.620  51.906  1.00  0.00    -0.334 N 
HETATM   24  C4  UNL     1      27.149   1.520  53.309  1.00  0.00     0.244 C 
HETATM   25  O1  UNL     1      26.566   2.340  54.080  1.00  0.00    -0.268 OA
HETATM   26  H6  UNL     1      27.648   0.904  51.320  1.00  0.00     0.168 HD
BRANCH  24  27
HETATM   27  C3  UNL     1      27.852   0.436  53.937  1.00  0.00     0.070 C 
HETATM   28  C2  UNL     1      28.963   0.145  53.318  1.00  0.00    -0.026 C 
HETATM   29  C1  UNL     1      29.860  -0.955  53.798  1.00  0.00     0.036 C 
ENDBRANCH  24  27
ENDBRANCH  22  23
ENDBRANCH   1  21
TORSDOF 4
ENDMDL
MODEL 9
REMARK VINA RESULT:      -8.0      3.422      8.449
REMARK  4 active torsions:
REMARK  status: ('A' for Active; 'I' for Inactive)
REMARK    1  A    between atoms: C3_3  and  C4_4 
REMARK       I    between atoms: C4_4  and  N1_6 
REMARK    2  A    between atoms: N1_6  and  C5_7 
REMARK    3  A    between atoms: C6_8  and  C7_9 
REMARK    4  A    between atoms: C8_10  and  N2_11 
ROOT
HETATM    1  C7  UNL     1      26.263   5.281  48.841  1.00  0.00     0.003 C 
HETATM    2  C8  UNL     1      25.229   6.055  48.707  1.00  0.00     0.068 C 
HETATM    3  C14 UNL     1      24.692   7.325  48.280  1.00  0.00     0.087 C 
HETATM    4  C15 UNL     1      23.261   7.628  48.412  1.00  0.00     0.100 C 
HETATM    5  N3  UNL     1      22.107   7.884  48.527  1.00  0.00    -0.192 NA
HETATM    6  C16 UNL     1      25.364   8.332  47.743  1.00  0.00     0.711 C 
HETATM    7  N4  UNL     1      25.912   9.504  47.161  1.00  0.00     0.034 NA
HETATM    8  C17 UNL     1      27.169   9.781  47.085  1.00  0.00     0.261 C 
HETATM    9  C18 UNL     1      28.217   8.873  47.616  1.00  0.00     0.211 C 
HETATM   10  O2  UNL     1      27.515   7.662  47.936  1.00  0.00    -0.352 OA
HETATM   11  C19 UNL     1      28.181   6.481  48.129  1.00  0.00     0.058 A 
HETATM   12  C20 UNL     1      27.669   5.360  48.541  1.00  0.00    -0.010 A 
HETATM   13  C21 UNL     1      29.121   5.321  48.262  1.00  0.00     0.107 A 
ENDROOT
BRANCH   2  14
HETATM   14  N2  UNL     1      24.140   5.277  49.248  1.00  0.00    -0.327 N 
HETATM   15  C9  UNL     1      23.755   5.430  50.549  1.00  0.00     0.106 A 
HETATM   16  C10 UNL     1      22.672   4.620  50.873  1.00  0.00    -0.006 A 
HETATM   17  C11 UNL     1      22.018   4.551  52.199  1.00  0.00     0.053 C 
HETATM   18  C12 UNL     1      22.390   3.944  49.706  1.00  0.00     0.139 A 
HETATM   19  F1  UNL     1      21.412   3.040  49.538  1.00  0.00    -0.204 F 
HETATM   20  C13 UNL     1      23.286   4.355  48.745  1.00  0.00     0.139 A 
ENDBRANCH   2  14
BRANCH   1  21
HETATM   21  C6  UNL     1      25.833   4.014  49.467  1.00  0.00     0.031 C 
HETATM   22  C5  UNL     1      26.554   3.348  50.339  1.00  0.00     0.092 C 
BRANCH  22  23
HETATM   23  N1  UNL     1      26.764   2.265  51.205  1.00  0.00    -0.334 N 
HETATM   24  C4  UNL     1      25.842   1.494  51.935  1.00  0.00     0.244 C 
HETATM   25  O1  UNL     1      24.589   1.684  51.915  1.00  0.00    -0.268 OA
HETATM   26  H6  UNL     1      27.797   2.056  51.267  1.00  0.00     0.168 HD
BRANCH  24  27
HETATM   27  C3  UNL     1      26.315   0.418  52.761  1.00  0.00     0.070 C 
HETATM   28  C2  UNL     1      26.627  -0.640  52.061  1.00  0.00    -0.026 C 
HETATM   29  C1  UNL     1      27.145  -1.884  52.715  1.00  0.00     0.036 C 
ENDBRANCH  24  27
ENDBRANCH  22  23
ENDBRANCH   1  21
TORSDOF 4
ENDMDL
