MODEL 1
REMARK VINA RESULT:      -7.6      0.000      0.000
REMARK  5 active torsions:
REMARK  status: ('A' for Active; 'I' for Inactive)
REMARK    1  A    between atoms: N1_2  and  O1_3 
REMARK    2  A    between atoms: O1_3  and  C2_4 
REMARK    3  A    between atoms: C5_7  and  N2_8 
REMARK    4  A    between atoms: N2_8  and  C6_9 
REMARK    5  A    between atoms: C15_21  and  O2_22 
ROOT
HETATM    1  C2  UNL     1      25.819   1.416  53.798  1.00  0.00     0.126 A 
HETATM    2  C3  UNL     1      25.421   2.392  52.910  1.00  0.00     0.059 A 
HETATM    3  C4  UNL     1      24.376   2.291  52.050  1.00  0.00     0.042 A 
HETATM    4  C5  UNL     1      23.968   3.257  51.158  1.00  0.00     0.142 A 
HETATM    5  N3  UNL     1      22.926   3.028  50.372  1.00  0.00    -0.224 NA
HETATM    6  C12 UNL     1      22.268   1.868  50.436  1.00  0.00     0.236 A 
HETATM    7  N4  UNL     1      22.637   0.885  51.302  1.00  0.00    -0.241 NA
HETATM    8  C13 UNL     1      23.708   1.089  52.126  1.00  0.00     0.075 A 
HETATM    9  C14 UNL     1      24.049   0.072  52.987  1.00  0.00     0.072 A 
HETATM   10  C15 UNL     1      25.121   0.229  53.841  1.00  0.00     0.105 A 
ENDROOT
BRANCH   4  11
HETATM   11  N2  UNL     1      24.696   4.474  51.109  1.00  0.00    -0.340 N 
HETATM   12  H6  UNL     1      24.590   5.199  51.821  1.00  0.00     0.167 HD
BRANCH  11  13
HETATM   13  C6  UNL     1      25.644   4.933  50.167  1.00  0.00     0.035 A 
HETATM   14  C7  UNL     1      26.667   4.170  49.599  1.00  0.00     0.029 A 
HETATM   15  C8  UNL     1      27.569   4.657  48.695  1.00  0.00     0.004 A 
HETATM   16  C9  UNL     1      27.516   5.970  48.284  1.00  0.00     0.019 A 
HETATM   17  C10 UNL     1      26.541   6.757  48.806  1.00  0.00     0.013 A 
HETATM   18 BR1  UNL     1      26.519   8.565  48.200  1.00  0.00    -0.051 Br
HETATM   19  C11 UNL     1      25.647   6.234  49.716  1.00  0.00     0.048 A 
ENDBRANCH  11  13
ENDBRANCH   4  11
BRANCH   1  20
HETATM   20  O1  UNL     1      26.884   1.516  54.678  1.00  0.00    -0.262 OA
BRANCH  20  21
HETATM   21  N1  UNL     1      27.882   0.626  54.854  1.00  0.00    -0.204 NA
HETATM   22  C1  UNL     1      29.048   1.155  54.145  1.00  0.00     0.141 C 
HETATM   23  H4  UNL     1      28.158   0.553  55.843  1.00  0.00     0.153 HD
ENDBRANCH  20  21
ENDBRANCH   1  20
BRANCH  10  24
HETATM   24  O2  UNL     1      25.463  -0.799  54.710  1.00  0.00    -0.353 OA
HETATM   25  C16 UNL     1      24.588  -1.262  55.708  1.00  0.00     0.210 C 
ENDBRANCH  10  24
TORSDOF 5
ENDMDL
MODEL 2
REMARK VINA RESULT:      -7.5      3.479      6.110
REMARK  5 active torsions:
REMARK  status: ('A' for Active; 'I' for Inactive)
REMARK    1  A    between atoms: N1_2  and  O1_3 
REMARK    2  A    between atoms: O1_3  and  C2_4 
REMARK    3  A    between atoms: C5_7  and  N2_8 
REMARK    4  A    between atoms: N2_8  and  C6_9 
REMARK    5  A    between atoms: C15_21  and  O2_22 
ROOT
HETATM    1  C2  UNL     1      26.320   0.974  52.431  1.00  0.00     0.126 A 
HETATM    2  C3  UNL     1      25.013   0.538  52.478  1.00  0.00     0.059 A 
HETATM    3  C4  UNL     1      24.453  -0.154  53.502  1.00  0.00     0.042 A 
HETATM    4  C5  UNL     1      23.150  -0.595  53.561  1.00  0.00     0.142 A 
HETATM    5  N3  UNL     1      22.730  -1.263  54.627  1.00  0.00    -0.224 NA
HETATM    6  C12 UNL     1      23.559  -1.512  55.643  1.00  0.00     0.236 A 
HETATM    7  N4  UNL     1      24.854  -1.095  55.626  1.00  0.00    -0.241 NA
HETATM    8  C13 UNL     1      25.319  -0.405  54.543  1.00  0.00     0.075 A 
HETATM    9  C14 UNL     1      26.634  -0.000  54.565  1.00  0.00     0.072 A 
HETATM   10  C15 UNL     1      27.151   0.702  53.495  1.00  0.00     0.105 A 
ENDROOT
BRANCH   4  11
HETATM   11  N2  UNL     1      22.299  -0.322  52.460  1.00  0.00    -0.340 N 
HETATM   12  H6  UNL     1      22.329  -0.874  51.600  1.00  0.00     0.167 HD
BRANCH  11  13
HETATM   13  C6  UNL     1      21.307   0.672  52.297  1.00  0.00     0.035 A 
HETATM   14  C7  UNL     1      21.468   2.036  52.551  1.00  0.00     0.029 A 
HETATM   15  C8  UNL     1      20.477   2.963  52.386  1.00  0.00     0.004 A 
HETATM   16  C9  UNL     1      19.227   2.589  51.949  1.00  0.00     0.019 A 
HETATM   17  C10 UNL     1      19.015   1.274  51.688  1.00  0.00     0.013 A 
HETATM   18 BR1  UNL     1      17.265   0.816  51.086  1.00  0.00    -0.051 Br
HETATM   19  C11 UNL     1      20.037   0.364  51.864  1.00  0.00     0.048 A 
ENDBRANCH  11  13
ENDBRANCH   4  11
BRANCH   1  20
HETATM   20  O1  UNL     1      26.895   1.681  51.388  1.00  0.00    -0.262 OA
BRANCH  20  21
HETATM   21  N1  UNL     1      27.165   3.002  51.350  1.00  0.00    -0.204 NA
HETATM   22  C1  UNL     1      26.412   3.553  50.223  1.00  0.00     0.141 C 
HETATM   23  H4  UNL     1      26.818   3.486  52.190  1.00  0.00     0.153 HD
ENDBRANCH  20  21
ENDBRANCH   1  20
BRANCH  10  24
HETATM   24  O2  UNL     1      28.479   1.109  53.520  1.00  0.00    -0.353 OA
HETATM   25  C16 UNL     1      29.542   0.200  53.662  1.00  0.00     0.210 C 
ENDBRANCH  10  24
TORSDOF 5
ENDMDL
MODEL 3
REMARK VINA RESULT:      -7.3      3.034      4.027
REMARK  5 active torsions:
REMARK  status: ('A' for Active; 'I' for Inactive)
REMARK    1  A    between atoms: N1_2  and  O1_3 
REMARK    2  A    between atoms: O1_3  and  C2_4 
REMARK    3  A    between atoms: C5_7  and  N2_8 
REMARK    4  A    between atoms: N2_8  and  C6_9 
REMARK    5  A    between atoms: C15_21  and  O2_22 
ROOT
HETATM    1  C2  UNL     1      25.487   1.015  53.431  1.00  0.00     0.126 A 
HETATM    2  C3  UNL     1      24.173   1.204  53.059  1.00  0.00     0.059 A 
HETATM    3  C4  UNL     1      23.138   0.394  53.397  1.00  0.00     0.042 A 
HETATM    4  C5  UNL     1      21.822   0.571  53.033  1.00  0.00     0.142 A 
HETATM    5  N3  UNL     1      20.907  -0.299  53.434  1.00  0.00    -0.224 NA
HETATM    6  C12 UNL     1      21.248  -1.346  54.188  1.00  0.00     0.236 A 
HETATM    7  N4  UNL     1      22.536  -1.559  54.571  1.00  0.00    -0.241 NA
HETATM    8  C13 UNL     1      23.505  -0.682  54.174  1.00  0.00     0.075 A 
HETATM    9  C14 UNL     1      24.794  -0.932  54.583  1.00  0.00     0.072 A 
HETATM   10  C15 UNL     1      25.809  -0.074  54.210  1.00  0.00     0.105 A 
ENDROOT
BRANCH   4  11
HETATM   11  N2  UNL     1      21.496   1.689  52.222  1.00  0.00    -0.340 N 
HETATM   12  H6  UNL     1      21.019   2.511  52.598  1.00  0.00     0.167 HD
BRANCH  11  13
HETATM   13  C6  UNL     1      21.726   1.917  50.846  1.00  0.00     0.035 A 
HETATM   14  C7  UNL     1      21.419   1.032  49.809  1.00  0.00     0.029 A 
HETATM   15  C8  UNL     1      21.665   1.291  48.490  1.00  0.00     0.004 A 
HETATM   16  C9  UNL     1      22.249   2.476  48.101  1.00  0.00     0.019 A 
HETATM   17  C10 UNL     1      22.569   3.371  49.069  1.00  0.00     0.013 A 
HETATM   18 BR1  UNL     1      23.375   4.992  48.470  1.00  0.00    -0.051 Br
HETATM   19  C11 UNL     1      22.306   3.079  50.391  1.00  0.00     0.048 A 
ENDBRANCH  11  13
ENDBRANCH   4  11
BRANCH   1  20
HETATM   20  O1  UNL     1      26.546   1.840  53.089  1.00  0.00    -0.262 OA
BRANCH  20  21
HETATM   21  N1  UNL     1      27.242   2.655  53.907  1.00  0.00    -0.204 NA
HETATM   22  C1  UNL     1      28.651   2.523  53.532  1.00  0.00     0.141 C 
HETATM   23  H4  UNL     1      26.998   3.643  53.759  1.00  0.00     0.153 HD
ENDBRANCH  20  21
ENDBRANCH   1  20
BRANCH  10  24
HETATM   24  O2  UNL     1      27.110  -0.329  54.624  1.00  0.00    -0.353 OA
HETATM   25  C16 UNL     1      28.040  -1.001  53.811  1.00  0.00     0.210 C 
ENDBRANCH  10  24
TORSDOF 5
ENDMDL
MODEL 4
REMARK VINA RESULT:      -7.3      3.423      5.642
REMARK  5 active torsions:
REMARK  status: ('A' for Active; 'I' for Inactive)
REMARK    1  A    between atoms: N1_2  and  O1_3 
REMARK    2  A    between atoms: O1_3  and  C2_4 
REMARK    3  A    between atoms: C5_7  and  N2_8 
REMARK    4  A    between atoms: N2_8  and  C6_9 
REMARK    5  A    between atoms: C15_21  and  O2_22 
ROOT
HETATM    1  C2  UNL     1      25.816  -0.373  53.835  1.00  0.00     0.126 A 
HETATM    2  C3  UNL     1      24.916   0.535  53.319  1.00  0.00     0.059 A 
HETATM    3  C4  UNL     1      25.214   1.516  52.430  1.00  0.00     0.042 A 
HETATM    4  C5  UNL     1      24.326   2.429  51.907  1.00  0.00     0.142 A 
HETATM    5  N3  UNL     1      24.751   3.338  51.042  1.00  0.00    -0.224 NA
HETATM    6  C12 UNL     1      26.033   3.380  50.674  1.00  0.00     0.236 A 
HETATM    7  N4  UNL     1      26.945   2.497  51.166  1.00  0.00    -0.241 NA
HETATM    8  C13 UNL     1      26.540   1.547  52.059  1.00  0.00     0.075 A 
HETATM    9  C14 UNL     1      27.492   0.674  52.532  1.00  0.00     0.072 A 
HETATM   10  C15 UNL     1      27.133  -0.306  53.436  1.00  0.00     0.105 A 
ENDROOT
BRANCH   4  11
HETATM   11  N2  UNL     1      22.972   2.363  52.328  1.00  0.00    -0.340 N 
HETATM   12  H6  UNL     1      22.650   2.805  53.191  1.00  0.00     0.167 HD
BRANCH  11  13
HETATM   13  C6  UNL     1      21.857   1.741  51.722  1.00  0.00     0.035 A 
HETATM   14  C7  UNL     1      21.501   1.835  50.375  1.00  0.00     0.029 A 
HETATM   15  C8  UNL     1      20.407   1.221  49.832  1.00  0.00     0.004 A 
HETATM   16  C9  UNL     1      19.571   0.453  50.610  1.00  0.00     0.019 A 
HETATM   17  C10 UNL     1      19.870   0.328  51.928  1.00  0.00     0.013 A 
HETATM   18 BR1  UNL     1      18.676  -0.747  52.955  1.00  0.00    -0.051 Br
HETATM   19  C11 UNL     1      20.982   0.961  52.444  1.00  0.00     0.048 A 
ENDBRANCH  11  13
ENDBRANCH   4  11
BRANCH   1  20
HETATM   20  O1  UNL     1      25.516  -1.375  54.742  1.00  0.00    -0.262 OA
BRANCH  20  21
HETATM   21  N1  UNL     1      24.883  -1.241  55.925  1.00  0.00    -0.204 NA
HETATM   22  C1  UNL     1      23.464  -1.497  55.675  1.00  0.00     0.141 C 
HETATM   23  H4  UNL     1      25.187  -1.954  56.603  1.00  0.00     0.153 HD
ENDBRANCH  20  21
ENDBRANCH   1  20
BRANCH  10  24
HETATM   24  O2  UNL     1      28.096  -1.186  53.912  1.00  0.00    -0.353 OA
HETATM   25  C16 UNL     1      29.470  -0.993  53.683  1.00  0.00     0.210 C 
ENDBRANCH  10  24
TORSDOF 5
ENDMDL
MODEL 5
REMARK VINA RESULT:      -7.2      1.642      2.165
REMARK  5 active torsions:
REMARK  status: ('A' for Active; 'I' for Inactive)
REMARK    1  A    between atoms: N1_2  and  O1_3 
REMARK    2  A    between atoms: O1_3  and  C2_4 
REMARK    3  A    between atoms: C5_7  and  N2_8 
REMARK    4  A    between atoms: N2_8  and  C6_9 
REMARK    5  A    between atoms: C15_21  and  O2_22 
ROOT
HETATM    1  C2  UNL     1      25.404   2.031  53.628  1.00  0.00     0.126 A 
HETATM    2  C3  UNL     1      24.696   3.104  53.129  1.00  0.00     0.059 A 
HETATM    3  C4  UNL     1      23.527   3.023  52.446  1.00  0.00     0.042 A 
HETATM    4  C5  UNL     1      22.810   4.085  51.943  1.00  0.00     0.142 A 
HETATM    5  N3  UNL     1      21.677   3.864  51.293  1.00  0.00    -0.224 NA
HETATM    6  C12 UNL     1      21.223   2.621  51.121  1.00  0.00     0.236 A 
HETATM    7  N4  UNL     1      21.898   1.542  51.601  1.00  0.00    -0.241 NA
HETATM    8  C13 UNL     1      23.071   1.735  52.276  1.00  0.00     0.075 A 
HETATM    9  C14 UNL     1      23.723   0.619  52.746  1.00  0.00     0.072 A 
HETATM   10  C15 UNL     1      24.910   0.759  53.435  1.00  0.00     0.105 A 
ENDROOT
BRANCH   4  11
HETATM   11  N2  UNL     1      23.327   5.392  52.135  1.00  0.00    -0.340 N 
HETATM   12  H6  UNL     1      23.231   5.889  53.023  1.00  0.00     0.167 HD
BRANCH  11  13
HETATM   13  C6  UNL     1      24.026   6.238  51.243  1.00  0.00     0.035 A 
HETATM   14  C7  UNL     1      23.753   7.589  51.017  1.00  0.00     0.029 A 
HETATM   15  C8  UNL     1      24.452   8.370  50.138  1.00  0.00     0.004 A 
HETATM   16  C9  UNL     1      25.493   7.848  49.405  1.00  0.00     0.019 A 
HETATM   17  C10 UNL     1      25.800   6.538  49.586  1.00  0.00     0.013 A 
HETATM   18 BR1  UNL     1      27.251   5.871  48.544  1.00  0.00    -0.051 Br
HETATM   19  C11 UNL     1      25.076   5.778  50.481  1.00  0.00     0.048 A 
ENDBRANCH  11  13
ENDBRANCH   4  11
BRANCH   1  20
HETATM   20  O1  UNL     1      26.598   2.110  54.326  1.00  0.00    -0.262 OA
BRANCH  20  21
HETATM   21  N1  UNL     1      27.703   2.799  53.975  1.00  0.00    -0.204 NA
HETATM   22  C1  UNL     1      28.710   1.811  53.587  1.00  0.00     0.141 C 
HETATM   23  H4  UNL     1      27.539   3.383  53.143  1.00  0.00     0.153 HD
ENDBRANCH  20  21
ENDBRANCH   1  20
BRANCH  10  24
HETATM   24  O2  UNL     1      25.567  -0.369  53.909  1.00  0.00    -0.353 OA
HETATM   25  C16 UNL     1      26.371  -1.173  53.083  1.00  0.00     0.210 C 
ENDBRANCH  10  24
TORSDOF 5
ENDMDL
MODEL 6
REMARK VINA RESULT:      -7.2      2.080      3.833
REMARK  5 active torsions:
REMARK  status: ('A' for Active; 'I' for Inactive)
REMARK    1  A    between atoms: N1_2  and  O1_3 
REMARK    2  A    between atoms: O1_3  and  C2_4 
REMARK    3  A    between atoms: C5_7  and  N2_8 
REMARK    4  A    between atoms: N2_8  and  C6_9 
REMARK    5  A    between atoms: C15_21  and  O2_22 
ROOT
HETATM    1  C2  UNL     1      22.761   0.721  52.052  1.00  0.00     0.126 A 
HETATM    2  C3  UNL     1      23.689   1.555  51.465  1.00  0.00     0.059 A 
HETATM    3  C4  UNL     1      24.997   1.640  51.812  1.00  0.00     0.042 A 
HETATM    4  C5  UNL     1      25.934   2.467  51.234  1.00  0.00     0.142 A 
HETATM    5  N3  UNL     1      27.185   2.450  51.671  1.00  0.00    -0.224 NA
HETATM    6  C12 UNL     1      27.546   1.637  52.666  1.00  0.00     0.236 A 
HETATM    7  N4  UNL     1      26.654   0.803  53.266  1.00  0.00    -0.241 NA
HETATM    8  C13 UNL     1      25.356   0.797  52.840  1.00  0.00     0.075 A 
HETATM    9  C14 UNL     1      24.485  -0.061  53.471  1.00  0.00     0.072 A 
HETATM   10  C15 UNL     1      23.163  -0.106  53.077  1.00  0.00     0.105 A 
ENDROOT
BRANCH   4  11
HETATM   11  N2  UNL     1      25.514   3.326  50.186  1.00  0.00    -0.340 N 
HETATM   12  H6  UNL     1      24.642   3.172  49.674  1.00  0.00     0.167 HD
BRANCH  11  13
HETATM   13  C6  UNL     1      26.128   4.480  49.649  1.00  0.00     0.035 A 
HETATM   14  C7  UNL     1      27.304   4.503  48.894  1.00  0.00     0.029 A 
HETATM   15  C8  UNL     1      27.868   5.645  48.399  1.00  0.00     0.004 A 
HETATM   16  C9  UNL     1      27.290   6.873  48.627  1.00  0.00     0.019 A 
HETATM   17  C10 UNL     1      26.147   6.909  49.357  1.00  0.00     0.013 A 
HETATM   18 BR1  UNL     1      25.393   8.637  49.641  1.00  0.00    -0.051 Br
HETATM   19  C11 UNL     1      25.603   5.737  49.841  1.00  0.00     0.048 A 
ENDBRANCH  11  13
ENDBRANCH   4  11
BRANCH   1  20
HETATM   20  O1  UNL     1      21.424   0.632  51.700  1.00  0.00    -0.262 OA
BRANCH  20  21
HETATM   21  N1  UNL     1      20.356   0.821  52.502  1.00  0.00    -0.204 NA
HETATM   22  C1  UNL     1      19.179   0.394  51.743  1.00  0.00     0.141 C 
HETATM   23  H4  UNL     1      20.393   0.217  53.335  1.00  0.00     0.153 HD
ENDBRANCH  20  21
ENDBRANCH   1  20
BRANCH  10  24
HETATM   24  O2  UNL     1      22.286  -0.973  53.716  1.00  0.00    -0.353 OA
HETATM   25  C16 UNL     1      22.366  -1.244  55.093  1.00  0.00     0.210 C 
ENDBRANCH  10  24
TORSDOF 5
ENDMDL
MODEL 7
REMARK VINA RESULT:      -7.1      3.836      7.060
REMARK  5 active torsions:
REMARK  status: ('A' for Active; 'I' for Inactive)
REMARK    1  A    between atoms: N1_2  and  O1_3 
REMARK    2  A    between atoms: O1_3  and  C2_4 
REMARK    3  A    between atoms: C5_7  and  N2_8 
REMARK    4  A    between atoms: N2_8  and  C6_9 
REMARK    5  A    between atoms: C15_21  and  O2_22 
ROOT
HETATM    1  C2  UNL     1      28.211   5.530  48.478  1.00  0.00     0.126 A 
HETATM    2  C3  UNL     1      27.173   4.727  48.902  1.00  0.00     0.059 A 
HETATM    3  C4  UNL     1      25.868   5.093  48.948  1.00  0.00     0.042 A 
HETATM    4  C5  UNL     1      24.822   4.302  49.369  1.00  0.00     0.142 A 
HETATM    5  N3  UNL     1      23.588   4.785  49.362  1.00  0.00    -0.224 NA
HETATM    6  C12 UNL     1      23.349   6.032  48.953  1.00  0.00     0.236 A 
HETATM    7  N4  UNL     1      24.352   6.849  48.529  1.00  0.00    -0.241 NA
HETATM    8  C13 UNL     1      25.636   6.382  48.524  1.00  0.00     0.075 A 
HETATM    9  C14 UNL     1      26.621   7.238  48.088  1.00  0.00     0.072 A 
HETATM   10  C15 UNL     1      27.933   6.813  48.061  1.00  0.00     0.105 A 
ENDROOT
BRANCH   4  11
HETATM   11  N2  UNL     1      25.113   2.984  49.807  1.00  0.00    -0.340 N 
HETATM   12  H6  UNL     1      25.183   2.198  49.157  1.00  0.00     0.167 HD
BRANCH  11  13
HETATM   13  C6  UNL     1      25.353   2.487  51.108  1.00  0.00     0.035 A 
HETATM   14  C7  UNL     1      24.394   1.936  51.962  1.00  0.00     0.029 A 
HETATM   15  C8  UNL     1      24.669   1.473  53.218  1.00  0.00     0.004 A 
HETATM   16  C9  UNL     1      25.948   1.528  53.725  1.00  0.00     0.019 A 
HETATM   17  C10 UNL     1      26.919   2.055  52.938  1.00  0.00     0.013 A 
HETATM   18 BR1  UNL     1      28.668   2.105  53.694  1.00  0.00    -0.051 Br
HETATM   19  C11 UNL     1      26.608   2.513  51.674  1.00  0.00     0.048 A 
ENDBRANCH  11  13
ENDBRANCH   4  11
BRANCH   1  20
HETATM   20  O1  UNL     1      29.545   5.160  48.429  1.00  0.00    -0.262 OA
BRANCH  20  21
HETATM   21  N1  UNL     1      30.525   5.531  49.278  1.00  0.00    -0.204 NA
HETATM   22  C1  UNL     1      31.775   5.503  48.516  1.00  0.00     0.141 C 
HETATM   23  H4  UNL     1      30.406   6.503  49.596  1.00  0.00     0.153 HD
ENDBRANCH  20  21
ENDBRANCH   1  20
BRANCH  10  24
HETATM   24  O2  UNL     1      28.925   7.679  47.621  1.00  0.00    -0.353 OA
HETATM   25  C16 UNL     1      28.742   8.537  46.522  1.00  0.00     0.210 C 
ENDBRANCH  10  24
TORSDOF 5
ENDMDL
MODEL 8
REMARK VINA RESULT:      -7.0      3.967      7.004
REMARK  5 active torsions:
REMARK  status: ('A' for Active; 'I' for Inactive)
REMARK    1  A    between atoms: N1_2  and  O1_3 
REMARK    2  A    between atoms: O1_3  and  C2_4 
REMARK    3  A    between atoms: C5_7  and  N2_8 
REMARK    4  A    between atoms: N2_8  and  C6_9 
REMARK    5  A    between atoms: C15_21  and  O2_22 
ROOT
HETATM    1  C2  UNL     1      26.603   5.405  49.174  1.00  0.00     0.126 A 
HETATM    2  C3  UNL     1      25.742   4.458  49.688  1.00  0.00     0.059 A 
HETATM    3  C4  UNL     1      24.586   4.723  50.346  1.00  0.00     0.042 A 
HETATM    4  C5  UNL     1      23.719   3.788  50.864  1.00  0.00     0.142 A 
HETATM    5  N3  UNL     1      22.618   4.185  51.485  1.00  0.00    -0.224 NA
HETATM    6  C12 UNL     1      22.342   5.485  51.615  1.00  0.00     0.236 A 
HETATM    7  N4  UNL     1      23.171   6.443  51.118  1.00  0.00    -0.241 NA
HETATM    8  C13 UNL     1      24.314   6.067  50.472  1.00  0.00     0.075 A 
HETATM    9  C14 UNL     1      25.125   7.065  49.985  1.00  0.00     0.072 A 
HETATM   10  C15 UNL     1      26.291   6.738  49.323  1.00  0.00     0.105 A 
ENDROOT
BRANCH   4  11
HETATM   11  N2  UNL     1      24.048   2.416  50.717  1.00  0.00    -0.340 N 
HETATM   12  H6  UNL     1      24.072   1.957  49.804  1.00  0.00     0.167 HD
BRANCH  11  13
HETATM   13  C6  UNL     1      24.388   1.449  51.692  1.00  0.00     0.035 A 
HETATM   14  C7  UNL     1      25.675   0.976  51.957  1.00  0.00     0.029 A 
HETATM   15  C8  UNL     1      25.959   0.034  52.906  1.00  0.00     0.004 A 
HETATM   16  C9  UNL     1      24.958  -0.517  53.674  1.00  0.00     0.019 A 
HETATM   17  C10 UNL     1      23.687  -0.093  53.456  1.00  0.00     0.013 A 
HETATM   18 BR1  UNL     1      22.345  -0.892  54.549  1.00  0.00    -0.051 Br
HETATM   19  C11 UNL     1      23.435   0.859  52.491  1.00  0.00     0.048 A 
ENDBRANCH  11  13
ENDBRANCH   4  11
BRANCH   1  20
HETATM   20  O1  UNL     1      27.784   5.138  48.502  1.00  0.00    -0.262 OA
BRANCH  20  21
HETATM   21  N1  UNL     1      29.040   5.323  48.957  1.00  0.00    -0.204 NA
HETATM   22  C1  UNL     1      29.822   5.842  47.833  1.00  0.00     0.141 C 
HETATM   23  H4  UNL     1      29.077   6.045  49.689  1.00  0.00     0.153 HD
ENDBRANCH  20  21
ENDBRANCH   1  20
BRANCH  10  24
HETATM   24  O2  UNL     1      27.108   7.748  48.832  1.00  0.00    -0.353 OA
HETATM   25  C16 UNL     1      26.617   9.030  48.526  1.00  0.00     0.210 C 
ENDBRANCH  10  24
TORSDOF 5
ENDMDL
MODEL 9
REMARK VINA RESULT:      -6.6      3.580      6.596
REMARK  5 active torsions:
REMARK  status: ('A' for Active; 'I' for Inactive)
REMARK    1  A    between atoms: N1_2  and  O1_3 
REMARK    2  A    between atoms: O1_3  and  C2_4 
REMARK    3  A    between atoms: C5_7  and  N2_8 
REMARK    4  A    between atoms: N2_8  and  C6_9 
REMARK    5  A    between atoms: C15_21  and  O2_22 
ROOT
HETATM    1  C2  UNL     1      25.676   5.627  49.744  1.00  0.00     0.126 A 
HETATM    2  C3  UNL     1      25.182   4.443  50.247  1.00  0.00     0.059 A 
HETATM    3  C4  UNL     1      24.013   4.304  50.921  1.00  0.00     0.042 A 
HETATM    4  C5  UNL     1      23.508   3.128  51.428  1.00  0.00     0.142 A 
HETATM    5  N3  UNL     1      22.347   3.133  52.068  1.00  0.00    -0.224 NA
HETATM    6  C12 UNL     1      21.663   4.268  52.227  1.00  0.00     0.236 A 
HETATM    7  N4  UNL     1      22.125   5.453  51.742  1.00  0.00    -0.241 NA
HETATM    8  C13 UNL     1      23.318   5.483  51.078  1.00  0.00     0.075 A 
HETATM    9  C14 UNL     1      23.750   6.699  50.602  1.00  0.00     0.072 A 
HETATM   10  C15 UNL     1      24.948   6.783  49.923  1.00  0.00     0.105 A 
ENDROOT
BRANCH   4  11
HETATM   11  N2  UNL     1      24.265   1.942  51.251  1.00  0.00    -0.340 N 
HETATM   12  H6  UNL     1      24.372   1.497  50.337  1.00  0.00     0.167 HD
BRANCH  11  13
HETATM   13  C6  UNL     1      24.983   1.167  52.191  1.00  0.00     0.035 A 
HETATM   14  C7  UNL     1      24.450   0.151  52.988  1.00  0.00     0.029 A 
HETATM   15  C8  UNL     1      25.180  -0.570  53.891  1.00  0.00     0.004 A 
HETATM   16  C9  UNL     1      26.522  -0.322  54.071  1.00  0.00     0.019 A 
HETATM   17  C10 UNL     1      27.090   0.657  53.323  1.00  0.00     0.013 A 
HETATM   18 BR1  UNL     1      28.951   0.954  53.616  1.00  0.00    -0.051 Br
HETATM   19  C11 UNL     1      26.326   1.365  52.419  1.00  0.00     0.048 A 
ENDBRANCH  11  13
ENDBRANCH   4  11
BRANCH   1  20
HETATM   20  O1  UNL     1      26.869   5.773  49.055  1.00  0.00    -0.262 OA
BRANCH  20  21
HETATM   21  N1  UNL     1      27.994   5.046  49.212  1.00  0.00    -0.204 NA
HETATM   22  C1  UNL     1      28.957   5.543  48.228  1.00  0.00     0.141 C 
HETATM   23  H4  UNL     1      28.423   5.202  50.135  1.00  0.00     0.153 HD
ENDBRANCH  20  21
ENDBRANCH   1  20
BRANCH  10  24
HETATM   24  O2  UNL     1      25.381   8.012  49.444  1.00  0.00    -0.353 OA
HETATM   25  C16 UNL     1      24.541   8.876  48.720  1.00  0.00     0.210 C 
ENDBRANCH  10  24
TORSDOF 5
ENDMDL
