MODEL 1
REMARK VINA RESULT:      -8.3      0.000      0.000
REMARK  8 active torsions:
REMARK  status: ('A' for Active; 'I' for Inactive)
REMARK    1  A    between atoms: O1_2  and  C2_3 
REMARK    2  A    between atoms: C5_6  and  C6_7 
REMARK    3  A    between atoms: C6_7  and  O2_8 
REMARK    4  A    between atoms: O2_8  and  C7_9 
REMARK    5  A    between atoms: C10_12  and  C11_13 
REMARK    6  A    between atoms: C11_13  and  C12_14 
REMARK    7  A    between atoms: C14_17  and  N1_18 
REMARK    8  A    between atoms: C15_20  and  N3_21 
ROOT
HETATM    1  C7  UNL     1      25.310   2.719  51.876  1.00  0.00     0.047 C 
HETATM    2  C8  UNL     1      25.075   2.661  53.178  1.00  0.00     0.007 C 
HETATM    3  C9  UNL     1      25.600   1.755  54.229  1.00  0.00     0.048 C 
HETATM    4  C10 UNL     1      26.562   0.712  53.710  1.00  0.00     0.008 A 
HETATM    5  C16 UNL     1      27.968   0.909  53.647  1.00  0.00    -0.008 A 
HETATM    6  C17 UNL     1      27.217   1.308  52.528  1.00  0.00    -0.064 A 
HETATM    7  C18 UNL     1      26.272   1.684  51.410  1.00  0.00     0.099 C 
ENDROOT
BRANCH   4   8
HETATM    8  C11 UNL     1      26.041  -0.687  53.650  1.00  0.00     0.062 C 
BRANCH   8   9
HETATM    9  C12 UNL     1      24.605  -0.847  53.947  1.00  0.00     0.010 A 
HETATM   10  C13 UNL     1      23.633  -0.677  53.071  1.00  0.00     0.150 A 
HETATM   11  O3  UNL     1      22.316  -0.823  53.342  1.00  0.00    -0.310 OA
HETATM   12  C14 UNL     1      21.811  -1.143  54.592  1.00  0.00     0.489 A 
HETATM   13  N2  UNL     1      22.858  -1.329  55.548  1.00  0.00    -0.212 NA
HETATM   14  C15 UNL     1      24.092  -1.196  55.259  1.00  0.00     0.129 A 
BRANCH  12  15
HETATM   15  N1  UNL     1      20.972  -0.040  55.087  1.00  0.00     0.129 N 
HETATM   16  H15 UNL     1      19.972  -0.246  54.905  1.00  0.00     0.318 HD
HETATM   17  H16 UNL     1      21.162   0.088  56.091  1.00  0.00     0.318 HD
ENDBRANCH  12  15
BRANCH  14  18
HETATM   18  N3  UNL     1      24.981  -1.410  56.354  1.00  0.00    -0.384 N 
HETATM   19  H17 UNL     1      24.901  -1.629  57.378  1.00  0.00     0.157 HD
HETATM   20  H18 UNL     1      26.012  -1.409  56.444  1.00  0.00     0.157 HD
ENDBRANCH  14  18
ENDBRANCH   8   9
ENDBRANCH   4   8
BRANCH   1  21
HETATM   21  O2  UNL     1      24.759   3.609  50.996  1.00  0.00    -0.351 OA
BRANCH  21  22
HETATM   22  C6  UNL     1      24.890   3.581  49.609  1.00  0.00     0.214 C 
BRANCH  22  23
HETATM   23  C5  UNL     1      25.841   4.653  49.170  1.00  0.00    -0.034 A 
HETATM   24  C4  UNL     1      27.162   4.262  48.946  1.00  0.00     0.012 A 
HETATM   25  C3  UNL     1      28.107   5.178  48.542  1.00  0.00     0.037 A 
HETATM   26  C2  UNL     1      27.775   6.499  48.345  1.00  0.00     0.068 A 
HETATM   27  C20 UNL     1      26.471   6.866  48.570  1.00  0.00     0.037 A 
HETATM   28  C19 UNL     1      25.498   5.975  48.977  1.00  0.00     0.012 A 
BRANCH  26  29
HETATM   29  O1  UNL     1      28.749   7.397  47.937  1.00  0.00    -0.356 OA
HETATM   30  C1  UNL     1      28.692   8.736  48.418  1.00  0.00     0.210 C 
ENDBRANCH  26  29
ENDBRANCH  22  23
ENDBRANCH  21  22
ENDBRANCH   1  21
TORSDOF 8
ENDMDL
MODEL 2
REMARK VINA RESULT:      -7.9      2.412      3.938
REMARK  8 active torsions:
REMARK  status: ('A' for Active; 'I' for Inactive)
REMARK    1  A    between atoms: O1_2  and  C2_3 
REMARK    2  A    between atoms: C5_6  and  C6_7 
REMARK    3  A    between atoms: C6_7  and  O2_8 
REMARK    4  A    between atoms: O2_8  and  C7_9 
REMARK    5  A    between atoms: C10_12  and  C11_13 
REMARK    6  A    between atoms: C11_13  and  C12_14 
REMARK    7  A    between atoms: C14_17  and  N1_18 
REMARK    8  A    between atoms: C15_20  and  N3_21 
ROOT
HETATM    1  C7  UNL     1      25.057   4.106  50.839  1.00  0.00     0.047 C 
HETATM    2  C8  UNL     1      25.755   2.991  50.687  1.00  0.00     0.007 C 
HETATM    3  C9  UNL     1      25.591   1.643  51.284  1.00  0.00     0.048 C 
HETATM    4  C10 UNL     1      24.426   1.538  52.241  1.00  0.00     0.008 A 
HETATM    5  C16 UNL     1      23.118   1.153  51.838  1.00  0.00    -0.008 A 
HETATM    6  C17 UNL     1      23.426   2.523  51.781  1.00  0.00    -0.064 A 
HETATM    7  C18 UNL     1      23.912   3.954  51.777  1.00  0.00     0.099 C 
ENDROOT
BRANCH   4   8
HETATM    8  C11 UNL     1      24.775   1.448  53.691  1.00  0.00     0.062 C 
BRANCH   8   9
HETATM    9  C12 UNL     1      26.207   1.260  53.992  1.00  0.00     0.010 A 
HETATM   10  C13 UNL     1      27.109   2.223  53.976  1.00  0.00     0.150 A 
HETATM   11  O3  UNL     1      28.423   2.053  54.252  1.00  0.00    -0.310 OA
HETATM   12  C14 UNL     1      29.000   0.832  54.561  1.00  0.00     0.489 A 
HETATM   13  N2  UNL     1      28.029  -0.217  54.581  1.00  0.00    -0.212 NA
HETATM   14  C15 UNL     1      26.794  -0.023  54.328  1.00  0.00     0.129 A 
BRANCH  12  15
HETATM   15  N1  UNL     1      29.991   0.476  53.533  1.00  0.00     0.129 N 
HETATM   16  H15 UNL     1      29.509   0.174  52.665  1.00  0.00     0.318 HD
HETATM   17  H16 UNL     1      30.599   1.291  53.371  1.00  0.00     0.318 HD
ENDBRANCH  12  15
BRANCH  14  18
HETATM   18  N3  UNL     1      25.989  -1.199  54.386  1.00  0.00    -0.384 N 
HETATM   19  H17 UNL     1      25.193  -1.559  54.970  1.00  0.00     0.157 HD
HETATM   20  H18 UNL     1      25.966  -2.073  53.833  1.00  0.00     0.157 HD
ENDBRANCH  14  18
ENDBRANCH   8   9
ENDBRANCH   4   8
BRANCH   1  21
HETATM   21  O2  UNL     1      25.308   5.304  50.228  1.00  0.00    -0.351 OA
BRANCH  21  22
HETATM   22  C6  UNL     1      25.383   5.525  48.854  1.00  0.00     0.214 C 
BRANCH  22  23
HETATM   23  C5  UNL     1      26.786   5.895  48.479  1.00  0.00    -0.034 A 
HETATM   24  C4  UNL     1      26.987   7.201  48.027  1.00  0.00     0.012 A 
HETATM   25  C3  UNL     1      28.242   7.631  47.658  1.00  0.00     0.037 A 
HETATM   26  C2  UNL     1      29.329   6.789  47.727  1.00  0.00     0.068 A 
HETATM   27  C20 UNL     1      29.113   5.509  48.174  1.00  0.00     0.037 A 
HETATM   28  C19 UNL     1      27.869   5.043  48.551  1.00  0.00     0.012 A 
BRANCH  26  29
HETATM   29  O1  UNL     1      30.579   7.253  47.350  1.00  0.00    -0.356 OA
HETATM   30  C1  UNL     1      31.533   7.557  48.363  1.00  0.00     0.210 C 
ENDBRANCH  26  29
ENDBRANCH  22  23
ENDBRANCH  21  22
ENDBRANCH   1  21
TORSDOF 8
ENDMDL
MODEL 3
REMARK VINA RESULT:      -7.9      2.390      4.008
REMARK  8 active torsions:
REMARK  status: ('A' for Active; 'I' for Inactive)
REMARK    1  A    between atoms: O1_2  and  C2_3 
REMARK    2  A    between atoms: C5_6  and  C6_7 
REMARK    3  A    between atoms: C6_7  and  O2_8 
REMARK    4  A    between atoms: O2_8  and  C7_9 
REMARK    5  A    between atoms: C10_12  and  C11_13 
REMARK    6  A    between atoms: C11_13  and  C12_14 
REMARK    7  A    between atoms: C14_17  and  N1_18 
REMARK    8  A    between atoms: C15_20  and  N3_21 
ROOT
HETATM    1  C7  UNL     1      23.321   3.489  50.855  1.00  0.00     0.047 C 
HETATM    2  C8  UNL     1      24.346   2.716  50.534  1.00  0.00     0.007 C 
HETATM    3  C9  UNL     1      25.088   1.698  51.316  1.00  0.00     0.048 C 
HETATM    4  C10 UNL     1      24.585   1.529  52.731  1.00  0.00     0.008 A 
HETATM    5  C16 UNL     1      23.580   0.593  53.095  1.00  0.00    -0.008 A 
HETATM    6  C17 UNL     1      23.148   1.869  52.699  1.00  0.00    -0.064 A 
HETATM    7  C18 UNL     1      22.847   3.281  52.251  1.00  0.00     0.099 C 
ENDROOT
BRANCH   4   8
HETATM    8  C11 UNL     1      25.460   2.082  53.809  1.00  0.00     0.062 C 
BRANCH   8   9
HETATM    9  C12 UNL     1      26.794   1.463  53.927  1.00  0.00     0.010 A 
HETATM   10  C13 UNL     1      27.884   1.911  53.335  1.00  0.00     0.150 A 
HETATM   11  O3  UNL     1      29.108   1.345  53.443  1.00  0.00    -0.310 OA
HETATM   12  C14 UNL     1      29.371   0.196  54.171  1.00  0.00     0.489 A 
HETATM   13  N2  UNL     1      28.194  -0.296  54.816  1.00  0.00    -0.212 NA
HETATM   14  C15 UNL     1      27.056   0.267  54.705  1.00  0.00     0.129 A 
BRANCH  12  15
HETATM   15  N1  UNL     1      29.839  -0.868  53.269  1.00  0.00     0.129 N 
HETATM   16  H15 UNL     1      29.337  -0.812  52.363  1.00  0.00     0.318 HD
HETATM   17  H16 UNL     1      30.857  -0.768  53.150  1.00  0.00     0.318 HD
ENDBRANCH  12  15
BRANCH  14  18
HETATM   18  N3  UNL     1      26.004  -0.385  55.414  1.00  0.00    -0.384 N 
HETATM   19  H17 UNL     1      25.368  -0.166  56.221  1.00  0.00     0.157 HD
HETATM   20  H18 UNL     1      25.550  -1.310  55.320  1.00  0.00     0.157 HD
ENDBRANCH  14  18
ENDBRANCH   8   9
ENDBRANCH   4   8
BRANCH   1  21
HETATM   21  O2  UNL     1      22.714   4.404  50.039  1.00  0.00    -0.351 OA
BRANCH  21  22
HETATM   22  C6  UNL     1      23.274   4.994  48.908  1.00  0.00     0.214 C 
BRANCH  22  23
HETATM   23  C5  UNL     1      24.226   6.076  49.322  1.00  0.00    -0.034 A 
HETATM   24  C4  UNL     1      25.551   5.933  48.907  1.00  0.00     0.012 A 
HETATM   25  C3  UNL     1      26.497   6.876  49.241  1.00  0.00     0.037 A 
HETATM   26  C2  UNL     1      26.162   7.982  49.988  1.00  0.00     0.068 A 
HETATM   27  C20 UNL     1      24.855   8.107  50.388  1.00  0.00     0.037 A 
HETATM   28  C19 UNL     1      23.880   7.180  50.072  1.00  0.00     0.012 A 
BRANCH  26  29
HETATM   29  O1  UNL     1      27.137   8.913  50.307  1.00  0.00    -0.356 OA
HETATM   30  C1  UNL     1      28.232   9.094  49.414  1.00  0.00     0.210 C 
ENDBRANCH  26  29
ENDBRANCH  22  23
ENDBRANCH  21  22
ENDBRANCH   1  21
TORSDOF 8
ENDMDL
MODEL 4
REMARK VINA RESULT:      -7.8      4.563      9.273
REMARK  8 active torsions:
REMARK  status: ('A' for Active; 'I' for Inactive)
REMARK    1  A    between atoms: O1_2  and  C2_3 
REMARK    2  A    between atoms: C5_6  and  C6_7 
REMARK    3  A    between atoms: C6_7  and  O2_8 
REMARK    4  A    between atoms: O2_8  and  C7_9 
REMARK    5  A    between atoms: C10_12  and  C11_13 
REMARK    6  A    between atoms: C11_13  and  C12_14 
REMARK    7  A    between atoms: C14_17  and  N1_18 
REMARK    8  A    between atoms: C15_20  and  N3_21 
ROOT
HETATM    1  C7  UNL     1      21.293   0.405  51.900  1.00  0.00     0.047 C 
HETATM    2  C8  UNL     1      21.919  -0.150  52.925  1.00  0.00     0.007 C 
HETATM    3  C9  UNL     1      23.257   0.107  53.513  1.00  0.00     0.048 C 
HETATM    4  C10 UNL     1      24.038   1.187  52.801  1.00  0.00     0.008 A 
HETATM    5  C16 UNL     1      23.981   2.559  53.167  1.00  0.00    -0.008 A 
HETATM    6  C17 UNL     1      23.036   2.110  52.230  1.00  0.00    -0.064 A 
HETATM    7  C18 UNL     1      22.090   1.473  51.238  1.00  0.00     0.099 C 
ENDROOT
BRANCH   4   8
HETATM    8  C11 UNL     1      25.188   0.723  51.968  1.00  0.00     0.062 C 
BRANCH   8   9
HETATM    9  C12 UNL     1      26.522   0.892  52.573  1.00  0.00     0.010 A 
HETATM   10  C13 UNL     1      27.092   0.024  53.388  1.00  0.00     0.150 A 
HETATM   11  O3  UNL     1      28.316   0.177  53.944  1.00  0.00    -0.310 OA
HETATM   12  C14 UNL     1      29.124   1.286  53.749  1.00  0.00     0.489 A 
HETATM   13  N2  UNL     1      28.515   2.230  52.866  1.00  0.00    -0.212 NA
HETATM   14  C15 UNL     1      27.364   2.052  52.349  1.00  0.00     0.129 A 
BRANCH  12  15
HETATM   15  N1  UNL     1      29.337   1.976  55.031  1.00  0.00     0.129 N 
HETATM   16  H15 UNL     1      30.092   1.506  55.566  1.00  0.00     0.318 HD
HETATM   17  H16 UNL     1      29.562   2.962  54.836  1.00  0.00     0.318 HD
ENDBRANCH  12  15
BRANCH  14  18
HETATM   18  N3  UNL     1      26.926   3.117  51.505  1.00  0.00    -0.384 N 
HETATM   19  H17 UNL     1      27.207   4.109  51.310  1.00  0.00     0.157 HD
HETATM   20  H18 UNL     1      26.163   3.206  50.811  1.00  0.00     0.157 HD
ENDBRANCH  14  18
ENDBRANCH   8   9
ENDBRANCH   4   8
BRANCH   1  21
HETATM   21  O2  UNL     1      20.044   0.080  51.445  1.00  0.00    -0.351 OA
BRANCH  21  22
HETATM   22  C6  UNL     1      18.836   0.556  51.951  1.00  0.00     0.214 C 
BRANCH  22  23
HETATM   23  C5  UNL     1      17.939  -0.597  52.284  1.00  0.00    -0.034 A 
HETATM   24  C4  UNL     1      18.419  -1.509  53.227  1.00  0.00     0.012 A 
HETATM   25  C3  UNL     1      17.665  -2.600  53.595  1.00  0.00     0.037 A 
HETATM   26  C2  UNL     1      16.421  -2.821  53.048  1.00  0.00     0.068 A 
HETATM   27  C20 UNL     1      15.965  -1.914  52.123  1.00  0.00     0.037 A 
HETATM   28  C19 UNL     1      16.694  -0.809  51.729  1.00  0.00     0.012 A 
BRANCH  26  29
HETATM   29  O1  UNL     1      15.687  -3.928  53.440  1.00  0.00    -0.356 OA
HETATM   30  C1  UNL     1      14.333  -4.040  53.013  1.00  0.00     0.210 C 
ENDBRANCH  26  29
ENDBRANCH  22  23
ENDBRANCH  21  22
ENDBRANCH   1  21
TORSDOF 8
ENDMDL
MODEL 5
REMARK VINA RESULT:      -7.6      2.462      4.476
REMARK  8 active torsions:
REMARK  status: ('A' for Active; 'I' for Inactive)
REMARK    1  A    between atoms: O1_2  and  C2_3 
REMARK    2  A    between atoms: C5_6  and  C6_7 
REMARK    3  A    between atoms: C6_7  and  O2_8 
REMARK    4  A    between atoms: O2_8  and  C7_9 
REMARK    5  A    between atoms: C10_12  and  C11_13 
REMARK    6  A    between atoms: C11_13  and  C12_14 
REMARK    7  A    between atoms: C14_17  and  N1_18 
REMARK    8  A    between atoms: C15_20  and  N3_21 
ROOT
HETATM    1  C7  UNL     1      25.826   2.589  51.711  1.00  0.00     0.047 C 
HETATM    2  C8  UNL     1      25.329   2.580  52.937  1.00  0.00     0.007 C 
HETATM    3  C9  UNL     1      25.540   1.650  54.073  1.00  0.00     0.048 C 
HETATM    4  C10 UNL     1      26.480   0.509  53.761  1.00  0.00     0.008 A 
HETATM    5  C16 UNL     1      27.882   0.570  53.985  1.00  0.00    -0.008 A 
HETATM    6  C17 UNL     1      27.416   1.016  52.737  1.00  0.00    -0.064 A 
HETATM    7  C18 UNL     1      26.758   1.458  51.450  1.00  0.00     0.099 C 
ENDROOT
BRANCH   4   8
HETATM    8  C11 UNL     1      25.847  -0.835  53.596  1.00  0.00     0.062 C 
BRANCH   8   9
HETATM    9  C12 UNL     1      24.406  -0.904  53.901  1.00  0.00     0.010 A 
HETATM   10  C13 UNL     1      23.443  -0.669  53.030  1.00  0.00     0.150 A 
HETATM   11  O3  UNL     1      22.120  -0.732  53.308  1.00  0.00    -0.310 OA
HETATM   12  C14 UNL     1      21.602  -1.024  54.560  1.00  0.00     0.489 A 
HETATM   13  N2  UNL     1      22.640  -1.279  55.509  1.00  0.00    -0.212 NA
HETATM   14  C15 UNL     1      23.878  -1.225  55.214  1.00  0.00     0.129 A 
BRANCH  12  15
HETATM   15  N1  UNL     1      20.838   0.129  55.063  1.00  0.00     0.129 N 
HETATM   16  H15 UNL     1      20.984   0.949  54.444  1.00  0.00     0.318 HD
HETATM   17  H16 UNL     1      19.845  -0.138  55.118  1.00  0.00     0.318 HD
ENDBRANCH  12  15
BRANCH  14  18
HETATM   18  N3  UNL     1      24.757  -1.499  56.304  1.00  0.00    -0.384 N 
HETATM   19  H17 UNL     1      25.588  -2.115  56.486  1.00  0.00     0.157 HD
HETATM   20  H18 UNL     1      24.821  -1.142  57.273  1.00  0.00     0.157 HD
ENDBRANCH  14  18
ENDBRANCH   8   9
ENDBRANCH   4   8
BRANCH   1  21
HETATM   21  O2  UNL     1      25.555   3.510  50.737  1.00  0.00    -0.351 OA
BRANCH  21  22
HETATM   22  C6  UNL     1      24.408   4.296  50.648  1.00  0.00     0.214 C 
BRANCH  22  23
HETATM   23  C5  UNL     1      23.234   3.437  50.283  1.00  0.00    -0.034 A 
HETATM   24  C4  UNL     1      22.207   3.354  51.225  1.00  0.00     0.012 A 
HETATM   25  C3  UNL     1      21.089   2.588  50.978  1.00  0.00     0.037 A 
HETATM   26  C2  UNL     1      20.955   1.888  49.800  1.00  0.00     0.068 A 
HETATM   27  C20 UNL     1      21.975   1.982  48.886  1.00  0.00     0.037 A 
HETATM   28  C19 UNL     1      23.110   2.739  49.100  1.00  0.00     0.012 A 
BRANCH  26  29
HETATM   29  O1  UNL     1      19.818   1.127  49.582  1.00  0.00    -0.356 OA
HETATM   30  C1  UNL     1      19.039   0.721  50.703  1.00  0.00     0.210 C 
ENDBRANCH  26  29
ENDBRANCH  22  23
ENDBRANCH  21  22
ENDBRANCH   1  21
TORSDOF 8
ENDMDL
MODEL 6
REMARK VINA RESULT:      -7.5      4.123      7.793
REMARK  8 active torsions:
REMARK  status: ('A' for Active; 'I' for Inactive)
REMARK    1  A    between atoms: O1_2  and  C2_3 
REMARK    2  A    between atoms: C5_6  and  C6_7 
REMARK    3  A    between atoms: C6_7  and  O2_8 
REMARK    4  A    between atoms: O2_8  and  C7_9 
REMARK    5  A    between atoms: C10_12  and  C11_13 
REMARK    6  A    between atoms: C11_13  and  C12_14 
REMARK    7  A    between atoms: C14_17  and  N1_18 
REMARK    8  A    between atoms: C15_20  and  N3_21 
ROOT
HETATM    1  C7  UNL     1      23.231   1.377  52.676  1.00  0.00     0.047 C 
HETATM    2  C8  UNL     1      22.827   1.272  51.419  1.00  0.00     0.007 C 
HETATM    3  C9  UNL     1      23.045   2.150  50.244  1.00  0.00     0.048 C 
HETATM    4  C10 UNL     1      23.862   3.384  50.547  1.00  0.00     0.008 A 
HETATM    5  C16 UNL     1      25.278   3.431  50.425  1.00  0.00    -0.008 A 
HETATM    6  C17 UNL     1      24.758   3.019  51.663  1.00  0.00    -0.064 A 
HETATM    7  C18 UNL     1      24.045   2.597  52.927  1.00  0.00     0.099 C 
ENDROOT
BRANCH   4   8
HETATM    8  C11 UNL     1      23.112   4.675  50.582  1.00  0.00     0.062 C 
BRANCH   8   9
HETATM    9  C12 UNL     1      23.725   5.789  49.835  1.00  0.00     0.010 A 
HETATM   10  C13 UNL     1      23.731   5.898  48.520  1.00  0.00     0.150 A 
HETATM   11  O3  UNL     1      24.292   6.920  47.833  1.00  0.00    -0.310 OA
HETATM   12  C14 UNL     1      24.964   7.977  48.425  1.00  0.00     0.489 A 
HETATM   13  N2  UNL     1      24.962   7.867  49.850  1.00  0.00    -0.212 NA
HETATM   14  C15 UNL     1      24.414   6.897  50.469  1.00  0.00     0.129 A 
BRANCH  12  15
HETATM   15  N1  UNL     1      26.372   7.972  47.999  1.00  0.00     0.129 N 
HETATM   16  H15 UNL     1      26.644   8.913  47.657  1.00  0.00     0.318 HD
HETATM   17  H16 UNL     1      26.952   7.670  48.794  1.00  0.00     0.318 HD
ENDBRANCH  12  15
BRANCH  14  18
HETATM   18  N3  UNL     1      24.532   6.963  51.890  1.00  0.00    -0.384 N 
HETATM   19  H17 UNL     1      23.922   6.768  52.722  1.00  0.00     0.157 HD
HETATM   20  H18 UNL     1      25.300   7.236  52.528  1.00  0.00     0.157 HD
ENDBRANCH  14  18
ENDBRANCH   8   9
ENDBRANCH   4   8
BRANCH   1  21
HETATM   21  O2  UNL     1      22.964   0.493  53.685  1.00  0.00    -0.351 OA
BRANCH  21  22
HETATM   22  C6  UNL     1      23.644  -0.697  53.936  1.00  0.00     0.214 C 
BRANCH  22  23
HETATM   23  C5  UNL     1      25.117  -0.485  53.754  1.00  0.00    -0.034 A 
HETATM   24  C4  UNL     1      25.824  -0.036  54.870  1.00  0.00     0.012 A 
HETATM   25  C3  UNL     1      27.181   0.188  54.798  1.00  0.00     0.037 A 
HETATM   26  C2  UNL     1      27.874  -0.025  53.629  1.00  0.00     0.068 A 
HETATM   27  C20 UNL     1      27.162  -0.467  52.541  1.00  0.00     0.037 A 
HETATM   28  C19 UNL     1      25.801  -0.701  52.576  1.00  0.00     0.012 A 
BRANCH  26  29
HETATM   29  O1  UNL     1      29.239   0.209  53.589  1.00  0.00    -0.356 OA
HETATM   30  C1  UNL     1      30.128  -0.899  53.689  1.00  0.00     0.210 C 
ENDBRANCH  26  29
ENDBRANCH  22  23
ENDBRANCH  21  22
ENDBRANCH   1  21
TORSDOF 8
ENDMDL
MODEL 7
REMARK VINA RESULT:      -7.4      1.732      2.265
REMARK  8 active torsions:
REMARK  status: ('A' for Active; 'I' for Inactive)
REMARK    1  A    between atoms: O1_2  and  C2_3 
REMARK    2  A    between atoms: C5_6  and  C6_7 
REMARK    3  A    between atoms: C6_7  and  O2_8 
REMARK    4  A    between atoms: O2_8  and  C7_9 
REMARK    5  A    between atoms: C10_12  and  C11_13 
REMARK    6  A    between atoms: C11_13  and  C12_14 
REMARK    7  A    between atoms: C14_17  and  N1_18 
REMARK    8  A    between atoms: C15_20  and  N3_21 
ROOT
HETATM    1  C7  UNL     1      26.221   2.223  51.575  1.00  0.00     0.047 C 
HETATM    2  C8  UNL     1      25.325   2.686  52.431  1.00  0.00     0.007 C 
HETATM    3  C9  UNL     1      24.595   2.023  53.539  1.00  0.00     0.048 C 
HETATM    4  C10 UNL     1      24.933   0.559  53.703  1.00  0.00     0.008 A 
HETATM    5  C16 UNL     1      25.973   0.089  54.551  1.00  0.00    -0.008 A 
HETATM    6  C17 UNL     1      26.323   0.403  53.227  1.00  0.00    -0.064 A 
HETATM    7  C18 UNL     1      26.536   0.783  51.780  1.00  0.00     0.099 C 
ENDROOT
BRANCH   4   8
HETATM    8  C11 UNL     1      23.881  -0.409  53.270  1.00  0.00     0.062 C 
BRANCH   8   9
HETATM    9  C12 UNL     1      22.608   0.189  52.825  1.00  0.00     0.010 A 
HETATM   10  C13 UNL     1      22.419   0.765  51.653  1.00  0.00     0.150 A 
HETATM   11  O3  UNL     1      21.252   1.314  51.243  1.00  0.00    -0.310 OA
HETATM   12  C14 UNL     1      20.105   1.368  52.018  1.00  0.00     0.489 A 
HETATM   13  N2  UNL     1      20.301   0.745  53.289  1.00  0.00    -0.212 NA
HETATM   14  C15 UNL     1      21.410   0.226  53.642  1.00  0.00     0.129 A 
BRANCH  12  15
HETATM   15  N1  UNL     1      19.748   2.771  52.280  1.00  0.00     0.129 N 
HETATM   16  H15 UNL     1      20.511   3.397  51.961  1.00  0.00     0.318 HD
HETATM   17  H16 UNL     1      18.859   2.976  51.803  1.00  0.00     0.318 HD
ENDBRANCH  12  15
BRANCH  14  18
HETATM   18  N3  UNL     1      21.408  -0.334  54.955  1.00  0.00    -0.384 N 
HETATM   19  H17 UNL     1      21.689  -1.240  55.405  1.00  0.00     0.157 HD
HETATM   20  H18 UNL     1      21.112   0.024  55.879  1.00  0.00     0.157 HD
ENDBRANCH  14  18
ENDBRANCH   8   9
ENDBRANCH   4   8
BRANCH   1  21
HETATM   21  O2  UNL     1      26.833   2.939  50.582  1.00  0.00    -0.351 OA
BRANCH  21  22
HETATM   22  C6  UNL     1      26.229   3.407  49.416  1.00  0.00     0.214 C 
BRANCH  22  23
HETATM   23  C5  UNL     1      26.746   4.777  49.095  1.00  0.00    -0.034 A 
HETATM   24  C4  UNL     1      28.024   4.846  48.539  1.00  0.00     0.012 A 
HETATM   25  C3  UNL     1      28.582   6.062  48.212  1.00  0.00     0.037 A 
HETATM   26  C2  UNL     1      27.896   7.237  48.422  1.00  0.00     0.068 A 
HETATM   27  C20 UNL     1      26.640   7.149  48.970  1.00  0.00     0.037 A 
HETATM   28  C19 UNL     1      26.050   5.948  49.311  1.00  0.00     0.012 A 
BRANCH  26  29
HETATM   29  O1  UNL     1      28.485   8.444  48.082  1.00  0.00    -0.356 OA
HETATM   30  C1  UNL     1      27.877   9.244  47.074  1.00  0.00     0.210 C 
ENDBRANCH  26  29
ENDBRANCH  22  23
ENDBRANCH  21  22
ENDBRANCH   1  21
TORSDOF 8
ENDMDL
MODEL 8
REMARK VINA RESULT:      -7.3      1.982      2.557
REMARK  8 active torsions:
REMARK  status: ('A' for Active; 'I' for Inactive)
REMARK    1  A    between atoms: O1_2  and  C2_3 
REMARK    2  A    between atoms: C5_6  and  C6_7 
REMARK    3  A    between atoms: C6_7  and  O2_8 
REMARK    4  A    between atoms: O2_8  and  C7_9 
REMARK    5  A    between atoms: C10_12  and  C11_13 
REMARK    6  A    between atoms: C11_13  and  C12_14 
REMARK    7  A    between atoms: C14_17  and  N1_18 
REMARK    8  A    between atoms: C15_20  and  N3_21 
ROOT
HETATM    1  C7  UNL     1      25.543   3.195  50.546  1.00  0.00     0.047 C 
HETATM    2  C8  UNL     1      24.494   3.459  51.308  1.00  0.00     0.007 C 
HETATM    3  C9  UNL     1      24.010   2.829  52.561  1.00  0.00     0.048 C 
HETATM    4  C10 UNL     1      24.866   1.679  53.036  1.00  0.00     0.008 A 
HETATM    5  C16 UNL     1      25.959   1.836  53.931  1.00  0.00    -0.008 A 
HETATM    6  C17 UNL     1      26.235   1.961  52.559  1.00  0.00    -0.064 A 
HETATM    7  C18 UNL     1      26.367   2.065  51.057  1.00  0.00     0.099 C 
ENDROOT
BRANCH   4   8
HETATM    8  C11 UNL     1      24.281   0.314  52.867  1.00  0.00     0.062 C 
BRANCH   8   9
HETATM    9  C12 UNL     1      22.861   0.178  53.238  1.00  0.00     0.010 A 
HETATM   10  C13 UNL     1      22.424  -0.073  54.458  1.00  0.00     0.150 A 
HETATM   11  O3  UNL     1      21.121  -0.198  54.800  1.00  0.00    -0.310 OA
HETATM   12  C14 UNL     1      20.070  -0.106  53.902  1.00  0.00     0.489 A 
HETATM   13  N2  UNL     1      20.534   0.166  52.578  1.00  0.00    -0.212 NA
HETATM   14  C15 UNL     1      21.769   0.290  52.289  1.00  0.00     0.129 A 
BRANCH  12  15
HETATM   15  N1  UNL     1      19.350  -1.388  53.847  1.00  0.00     0.129 N 
HETATM   16  H15 UNL     1      18.713  -1.473  54.661  1.00  0.00     0.318 HD
HETATM   17  H16 UNL     1      18.841  -1.437  52.953  1.00  0.00     0.318 HD
ENDBRANCH  12  15
BRANCH  14  18
HETATM   18  N3  UNL     1      22.029   0.547  50.909  1.00  0.00    -0.384 N 
HETATM   19  H17 UNL     1      22.465   0.038  50.101  1.00  0.00     0.157 HD
HETATM   20  H18 UNL     1      21.845   1.355  50.290  1.00  0.00     0.157 HD
ENDBRANCH  14  18
ENDBRANCH   8   9
ENDBRANCH   4   8
BRANCH   1  21
HETATM   21  O2  UNL     1      25.892   3.852  49.398  1.00  0.00    -0.351 OA
BRANCH  21  22
HETATM   22  C6  UNL     1      25.634   5.190  49.107  1.00  0.00     0.214 C 
BRANCH  22  23
HETATM   23  C5  UNL     1      26.899   5.864  48.668  1.00  0.00    -0.034 A 
HETATM   24  C4  UNL     1      28.027   5.051  48.541  1.00  0.00     0.012 A 
HETATM   25  C3  UNL     1      29.234   5.581  48.144  1.00  0.00     0.037 A 
HETATM   26  C2  UNL     1      29.360   6.922  47.861  1.00  0.00     0.068 A 
HETATM   27  C20 UNL     1      28.241   7.707  47.991  1.00  0.00     0.037 A 
HETATM   28  C19 UNL     1      27.016   7.209  48.388  1.00  0.00     0.012 A 
BRANCH  26  29
HETATM   29  O1  UNL     1      30.589   7.426  47.463  1.00  0.00    -0.356 OA
HETATM   30  C1  UNL     1      31.539   6.537  46.883  1.00  0.00     0.210 C 
ENDBRANCH  26  29
ENDBRANCH  22  23
ENDBRANCH  21  22
ENDBRANCH   1  21
TORSDOF 8
ENDMDL
MODEL 9
REMARK VINA RESULT:      -7.2      4.697      8.813
REMARK  8 active torsions:
REMARK  status: ('A' for Active; 'I' for Inactive)
REMARK    1  A    between atoms: O1_2  and  C2_3 
REMARK    2  A    between atoms: C5_6  and  C6_7 
REMARK    3  A    between atoms: C6_7  and  O2_8 
REMARK    4  A    between atoms: O2_8  and  C7_9 
REMARK    5  A    between atoms: C10_12  and  C11_13 
REMARK    6  A    between atoms: C11_13  and  C12_14 
REMARK    7  A    between atoms: C14_17  and  N1_18 
REMARK    8  A    between atoms: C15_20  and  N3_21 
ROOT
HETATM    1  C7  UNL     1      23.187   2.937  50.429  1.00  0.00     0.047 C 
HETATM    2  C8  UNL     1      23.017   4.142  50.949  1.00  0.00     0.007 C 
HETATM    3  C9  UNL     1      23.164   5.494  50.357  1.00  0.00     0.048 C 
HETATM    4  C10 UNL     1      23.594   5.482  48.909  1.00  0.00     0.008 A 
HETATM    5  C16 UNL     1      22.677   5.471  47.823  1.00  0.00    -0.008 A 
HETATM    6  C17 UNL     1      23.073   4.224  48.336  1.00  0.00    -0.064 A 
HETATM    7  C18 UNL     1      23.596   2.970  48.998  1.00  0.00     0.099 C 
ENDROOT
BRANCH   4   8
HETATM    8  C11 UNL     1      25.003   5.900  48.640  1.00  0.00     0.062 C 
BRANCH   8   9
HETATM    9  C12 UNL     1      25.236   7.355  48.571  1.00  0.00     0.010 A 
HETATM   10  C13 UNL     1      25.017   8.100  47.505  1.00  0.00     0.150 A 
HETATM   11  O3  UNL     1      25.229   9.435  47.441  1.00  0.00    -0.310 OA
HETATM   12  C14 UNL     1      25.735  10.192  48.485  1.00  0.00     0.489 A 
HETATM   13  N2  UNL     1      25.974   9.392  49.645  1.00  0.00    -0.212 NA
HETATM   14  C15 UNL     1      25.752   8.137  49.679  1.00  0.00     0.129 A 
BRANCH  12  15
HETATM   15  N1  UNL     1      27.028  10.776  48.095  1.00  0.00     0.129 N 
HETATM   16  H15 UNL     1      27.738  10.027  47.989  1.00  0.00     0.318 HD
HETATM   17  H16 UNL     1      26.895  11.306  47.222  1.00  0.00     0.318 HD
ENDBRANCH  12  15
BRANCH  14  18
HETATM   18  N3  UNL     1      26.068   7.516  50.924  1.00  0.00    -0.384 N 
HETATM   19  H17 UNL     1      25.813   6.631  51.428  1.00  0.00     0.157 HD
HETATM   20  H18 UNL     1      26.674   7.784  51.718  1.00  0.00     0.157 HD
ENDBRANCH  14  18
ENDBRANCH   8   9
ENDBRANCH   4   8
BRANCH   1  21
HETATM   21  O2  UNL     1      23.022   1.746  51.082  1.00  0.00    -0.351 OA
BRANCH  21  22
HETATM   22  C6  UNL     1      22.802   1.582  52.448  1.00  0.00     0.214 C 
BRANCH  22  23
HETATM   23  C5  UNL     1      24.080   1.174  53.119  1.00  0.00    -0.034 A 
HETATM   24  C4  UNL     1      24.194  -0.171  53.476  1.00  0.00     0.012 A 
HETATM   25  C3  UNL     1      25.330  -0.638  54.098  1.00  0.00     0.037 A 
HETATM   26  C2  UNL     1      26.381   0.205  54.381  1.00  0.00     0.068 A 
HETATM   27  C20 UNL     1      26.252   1.523  54.022  1.00  0.00     0.037 A 
HETATM   28  C19 UNL     1      25.127   2.027  53.398  1.00  0.00     0.012 A 
BRANCH  26  29
HETATM   29  O1  UNL     1      27.511  -0.296  55.007  1.00  0.00    -0.356 OA
HETATM   30  C1  UNL     1      28.771  -0.164  54.356  1.00  0.00     0.210 C 
ENDBRANCH  26  29
ENDBRANCH  22  23
ENDBRANCH  21  22
ENDBRANCH   1  21
TORSDOF 8
ENDMDL
