MODEL 1
REMARK VINA RESULT:      -7.4      0.000      0.000
REMARK  1 active torsions:
REMARK  status: ('A' for Active; 'I' for Inactive)
REMARK    1  A    between atoms: O1_2  and  C2_3 
ROOT
HETATM    1  C2  UNL     1      25.441   1.695  53.239  1.00  0.00     0.200 C 
HETATM    2  C3  UNL     1      24.538   2.857  53.458  1.00  0.00     0.047 C 
HETATM    3  C4  UNL     1      23.842   3.568  52.570  1.00  0.00     0.053 C 
HETATM    4  C5  UNL     1      23.793   5.033  52.915  1.00  0.00     0.150 C 
HETATM    5  C6  UNL     1      23.719   5.777  51.598  1.00  0.00     0.152 C 
HETATM    6  N1  UNL     1      23.283   5.112  50.601  1.00  0.00    -0.221 NA
HETATM    7  C7  UNL     1      23.077   5.434  49.272  1.00  0.00     0.236 C 
HETATM    8  N2  UNL     1      24.040   5.712  48.535  1.00  0.00    -0.241 NA
HETATM    9  C8  UNL     1      25.408   5.776  48.777  1.00  0.00     0.067 C 
HETATM   10  C9  UNL     1      26.034   4.843  49.494  1.00  0.00     0.011 C 
HETATM   11  C10 UNL     1      26.418   3.683  50.303  1.00  0.00     0.072 C 
HETATM   12  C11 UNL     1      25.378   2.695  50.608  1.00  0.00    -0.026 C 
HETATM   13  S1  UNL     1      26.202   1.689  51.614  1.00  0.00    -0.170 SA
HETATM   14  C12 UNL     1      23.932   2.330  50.350  1.00  0.00     0.216 C 
HETATM   15  O2  UNL     1      23.243   2.954  51.447  1.00  0.00    -0.351 OA
HETATM   16  C13 UNL     1      26.228   6.851  48.207  1.00  0.00     0.007 C 
HETATM   17  C14 UNL     1      27.661   7.054  48.315  1.00  0.00     0.059 C 
HETATM   18  S2  UNL     1      25.413   7.965  47.337  1.00  0.00    -0.104 SA
HETATM   19  C15 UNL     1      24.018   8.548  48.017  1.00  0.00     0.052 C 
HETATM   20  C16 UNL     1      23.641   8.245  49.344  1.00  0.00     0.032 C 
HETATM   21  C17 UNL     1      23.357   7.927  50.566  1.00  0.00     0.144 C 
HETATM   22  O3  UNL     1      24.085   7.128  51.397  1.00  0.00    -0.307 OA
HETATM   23  H12 UNL     1      26.121   0.402  51.077  1.00  0.00     0.098 HD
ENDROOT
BRANCH   1  24
HETATM   24  O1  UNL     1      26.488   1.866  54.168  1.00  0.00    -0.377 OA
HETATM   25  C1  UNL     1      27.698   2.107  53.567  1.00  0.00     0.203 C 
ENDBRANCH   1  24
TORSDOF 1
ENDMDL
MODEL 2
REMARK VINA RESULT:      -7.0      6.394      8.646
REMARK  1 active torsions:
REMARK  status: ('A' for Active; 'I' for Inactive)
REMARK    1  A    between atoms: O1_2  and  C2_3 
ROOT
HETATM    1  C2  UNL     1      14.712   0.755  51.794  1.00  0.00     0.200 C 
HETATM    2  C3  UNL     1      15.498   2.003  51.589  1.00  0.00     0.047 C 
HETATM    3  C4  UNL     1      16.717   2.160  51.073  1.00  0.00     0.053 C 
HETATM    4  C5  UNL     1      17.503   3.241  51.767  1.00  0.00     0.150 C 
HETATM    5  C6  UNL     1      18.957   2.828  51.688  1.00  0.00     0.152 C 
HETATM    6  N1  UNL     1      19.257   2.006  50.760  1.00  0.00    -0.221 NA
HETATM    7  C7  UNL     1      20.446   1.410  50.378  1.00  0.00     0.236 C 
HETATM    8  N2  UNL     1      21.018   0.606  51.136  1.00  0.00    -0.241 NA
HETATM    9  C8  UNL     1      20.696   0.130  52.401  1.00  0.00     0.067 C 
HETATM   10  C9  UNL     1      19.452  -0.232  52.715  1.00  0.00     0.011 C 
HETATM   11  C10 UNL     1      18.020  -0.542  52.743  1.00  0.00     0.072 C 
HETATM   12  C11 UNL     1      17.268  -0.388  51.494  1.00  0.00    -0.026 C 
HETATM   13  S1  UNL     1      15.740  -0.697  52.021  1.00  0.00    -0.170 SA
HETATM   14  C12 UNL     1      17.403  -0.054  50.025  1.00  0.00     0.216 C 
HETATM   15  O2  UNL     1      17.165   1.364  49.995  1.00  0.00    -0.351 OA
HETATM   16  C13 UNL     1      21.727  -0.042  53.431  1.00  0.00     0.007 C 
HETATM   17  C14 UNL     1      21.586  -0.561  54.779  1.00  0.00     0.059 C 
HETATM   18  S2  UNL     1      23.232   0.413  52.995  1.00  0.00    -0.104 SA
HETATM   19  C15 UNL     1      23.361   1.879  52.232  1.00  0.00     0.052 C 
HETATM   20  C16 UNL     1      22.271   2.772  52.121  1.00  0.00     0.032 C 
HETATM   21  C17 UNL     1      21.232   3.540  52.057  1.00  0.00     0.144 C 
HETATM   22  O3  UNL     1      19.986   3.279  52.546  1.00  0.00    -0.307 OA
HETATM   23  H12 UNL     1      15.234  -1.741  51.243  1.00  0.00     0.098 HD
ENDROOT
BRANCH   1  24
HETATM   24  O1  UNL     1      14.028   0.952  53.012  1.00  0.00    -0.377 OA
HETATM   25  C1  UNL     1      13.524   2.222  53.139  1.00  0.00     0.203 C 
ENDBRANCH   1  24
TORSDOF 1
ENDMDL
MODEL 3
REMARK VINA RESULT:      -6.9      3.518      5.658
REMARK  1 active torsions:
REMARK  status: ('A' for Active; 'I' for Inactive)
REMARK    1  A    between atoms: O1_2  and  C2_3 
ROOT
HETATM    1  C2  UNL     1      26.283   2.459  51.807  1.00  0.00     0.200 C 
HETATM    2  C3  UNL     1      25.631   2.954  50.564  1.00  0.00     0.047 C 
HETATM    3  C4  UNL     1      24.480   3.611  50.415  1.00  0.00     0.053 C 
HETATM    4  C5  UNL     1      23.736   3.196  49.173  1.00  0.00     0.150 C 
HETATM    5  C6  UNL     1      22.263   3.350  49.489  1.00  0.00     0.152 C 
HETATM    6  N1  UNL     1      21.974   4.149  50.440  1.00  0.00    -0.221 NA
HETATM    7  C7  UNL     1      20.776   4.542  51.009  1.00  0.00     0.236 C 
HETATM    8  N2  UNL     1      20.071   3.719  51.622  1.00  0.00    -0.241 NA
HETATM    9  C8  UNL     1      20.237   2.365  51.885  1.00  0.00     0.067 C 
HETATM   10  C9  UNL     1      21.413   1.869  52.272  1.00  0.00     0.011 C 
HETATM   11  C10 UNL     1      22.804   1.642  52.674  1.00  0.00     0.072 C 
HETATM   12  C11 UNL     1      23.673   2.816  52.800  1.00  0.00    -0.026 C 
HETATM   13  S1  UNL     1      25.115   2.091  53.118  1.00  0.00    -0.170 SA
HETATM   14  C12 UNL     1      23.697   4.327  52.726  1.00  0.00     0.216 C 
HETATM   15  O2  UNL     1      24.060   4.575  51.357  1.00  0.00    -0.351 OA
HETATM   16  C13 UNL     1      19.109   1.431  51.795  1.00  0.00     0.007 C 
HETATM   17  C14 UNL     1      19.085   0.007  52.073  1.00  0.00     0.059 C 
HETATM   18  S2  UNL     1      17.695   2.089  51.319  1.00  0.00    -0.104 SA
HETATM   19  C15 UNL     1      17.762   3.102  50.009  1.00  0.00     0.052 C 
HETATM   20  C16 UNL     1      18.932   3.253  49.230  1.00  0.00     0.032 C 
HETATM   21  C17 UNL     1      20.036   3.342  48.562  1.00  0.00     0.144 C 
HETATM   22  O3  UNL     1      21.207   2.692  48.820  1.00  0.00    -0.307 OA
HETATM   23  H12 UNL     1      25.594   2.623  54.318  1.00  0.00     0.098 HD
ENDROOT
BRANCH   1  24
HETATM   24  O1  UNL     1      26.873   1.230  51.444  1.00  0.00    -0.377 OA
HETATM   25  C1  UNL     1      26.366   0.168  52.149  1.00  0.00     0.203 C 
ENDBRANCH   1  24
TORSDOF 1
ENDMDL
MODEL 4
REMARK VINA RESULT:      -6.8      6.195      9.345
REMARK  1 active torsions:
REMARK  status: ('A' for Active; 'I' for Inactive)
REMARK    1  A    between atoms: O1_2  and  C2_3 
ROOT
HETATM    1  C2  UNL     1      28.119   8.811  47.349  1.00  0.00     0.200 C 
HETATM    2  C3  UNL     1      28.413   7.517  48.023  1.00  0.00     0.047 C 
HETATM    3  C4  UNL     1      29.589   6.972  48.332  1.00  0.00     0.053 C 
HETATM    4  C5  UNL     1      29.594   5.475  48.162  1.00  0.00     0.150 C 
HETATM    5  C6  UNL     1      31.007   5.096  47.772  1.00  0.00     0.152 C 
HETATM    6  N1  UNL     1      31.919   5.930  48.089  1.00  0.00    -0.221 NA
HETATM    7  C7  UNL     1      33.290   5.939  47.908  1.00  0.00     0.236 C 
HETATM    8  N2  UNL     1      33.773   6.000  46.763  1.00  0.00    -0.241 NA
HETATM    9  C8  UNL     1      33.183   6.067  45.506  1.00  0.00     0.067 C 
HETATM   10  C9  UNL     1      32.137   6.860  45.268  1.00  0.00     0.011 C 
HETATM   11  C10 UNL     1      31.025   7.812  45.329  1.00  0.00     0.072 C 
HETATM   12  C11 UNL     1      30.815   8.530  46.589  1.00  0.00    -0.026 C 
HETATM   13  S1  UNL     1      29.428   9.346  46.246  1.00  0.00    -0.170 SA
HETATM   14  C12 UNL     1      31.378   8.744  47.977  1.00  0.00     0.216 C 
HETATM   15  O2  UNL     1      30.674   7.766  48.763  1.00  0.00    -0.351 OA
HETATM   16  C13 UNL     1      33.719   5.303  44.374  1.00  0.00     0.007 C 
HETATM   17  C14 UNL     1      33.266   5.282  42.996  1.00  0.00     0.059 C 
HETATM   18  S2  UNL     1      34.999   4.352  44.719  1.00  0.00    -0.104 SA
HETATM   19  C15 UNL     1      34.873   3.422  46.087  1.00  0.00     0.052 C 
HETATM   20  C16 UNL     1      33.669   3.313  46.817  1.00  0.00     0.032 C 
HETATM   21  C17 UNL     1      32.535   3.259  47.438  1.00  0.00     0.144 C 
HETATM   22  O3  UNL     1      31.384   3.910  47.103  1.00  0.00    -0.307 OA
HETATM   23  H12 UNL     1      29.679  10.704  46.459  1.00  0.00     0.098 HD
ENDROOT
BRANCH   1  24
HETATM   24  O1  UNL     1      26.995   8.552  46.536  1.00  0.00    -0.377 OA
HETATM   25  C1  UNL     1      25.977   7.934  47.217  1.00  0.00     0.203 C 
ENDBRANCH   1  24
TORSDOF 1
ENDMDL
MODEL 5
REMARK VINA RESULT:      -6.8      2.577      6.235
REMARK  1 active torsions:
REMARK  status: ('A' for Active; 'I' for Inactive)
REMARK    1  A    between atoms: O1_2  and  C2_3 
ROOT
HETATM    1  C2  UNL     1      24.464   7.085  48.645  1.00  0.00     0.200 C 
HETATM    2  C3  UNL     1      23.583   6.051  48.036  1.00  0.00     0.047 C 
HETATM    3  C4  UNL     1      22.619   5.323  48.599  1.00  0.00     0.053 C 
HETATM    4  C5  UNL     1      22.571   3.916  48.063  1.00  0.00     0.150 C 
HETATM    5  C6  UNL     1      22.079   3.044  49.198  1.00  0.00     0.152 C 
HETATM    6  N1  UNL     1      21.426   3.638  50.119  1.00  0.00    -0.221 NA
HETATM    7  C7  UNL     1      20.832   3.196  51.288  1.00  0.00     0.236 C 
HETATM    8  N2  UNL     1      21.528   2.743  52.214  1.00  0.00    -0.241 NA
HETATM    9  C8  UNL     1      22.901   2.566  52.346  1.00  0.00     0.067 C 
HETATM   10  C9  UNL     1      23.765   3.503  51.957  1.00  0.00     0.011 C 
HETATM   11  C10 UNL     1      24.438   4.700  51.444  1.00  0.00     0.072 C 
HETATM   12  C11 UNL     1      23.595   5.815  51.002  1.00  0.00    -0.026 C 
HETATM   13  S1  UNL     1      24.736   6.836  50.400  1.00  0.00    -0.170 SA
HETATM   14  C12 UNL     1      22.164   6.295  50.904  1.00  0.00     0.216 C 
HETATM   15  O2  UNL     1      21.772   5.868  49.589  1.00  0.00    -0.351 OA
HETATM   16  C13 UNL     1      23.453   1.358  52.969  1.00  0.00     0.007 C 
HETATM   17  C14 UNL     1      24.841   1.023  53.228  1.00  0.00     0.059 C 
HETATM   18  S2  UNL     1      22.353   0.245  53.429  1.00  0.00    -0.104 SA
HETATM   19  C15 UNL     1      21.169  -0.116  52.326  1.00  0.00     0.052 C 
HETATM   20  C16 UNL     1      21.203   0.366  50.998  1.00  0.00     0.032 C 
HETATM   21  C17 UNL     1      21.297   0.842  49.799  1.00  0.00     0.144 C 
HETATM   22  O3  UNL     1      22.282   1.650  49.310  1.00  0.00    -0.307 OA
HETATM   23  H12 UNL     1      24.593   8.059  51.062  1.00  0.00     0.098 HD
ENDROOT
BRANCH   1  24
HETATM   24  O1  UNL     1      25.717   6.910  48.020  1.00  0.00    -0.377 OA
HETATM   25  C1  UNL     1      26.636   6.294  48.832  1.00  0.00     0.203 C 
ENDBRANCH   1  24
TORSDOF 1
ENDMDL
MODEL 6
REMARK VINA RESULT:      -6.5      2.568      4.208
REMARK  1 active torsions:
REMARK  status: ('A' for Active; 'I' for Inactive)
REMARK    1  A    between atoms: O1_2  and  C2_3 
ROOT
HETATM    1  C2  UNL     1      22.313   2.705  49.986  1.00  0.00     0.200 C 
HETATM    2  C3  UNL     1      23.792   2.757  50.142  1.00  0.00     0.047 C 
HETATM    3  C4  UNL     1      24.585   3.808  50.346  1.00  0.00     0.053 C 
HETATM    4  C5  UNL     1      25.899   3.689  49.619  1.00  0.00     0.150 C 
HETATM    5  C6  UNL     1      26.321   5.101  49.270  1.00  0.00     0.152 C 
HETATM    6  N1  UNL     1      25.810   6.030  49.978  1.00  0.00    -0.221 NA
HETATM    7  C7  UNL     1      25.945   7.407  49.965  1.00  0.00     0.236 C 
HETATM    8  N2  UNL     1      25.545   8.069  48.990  1.00  0.00    -0.241 NA
HETATM    9  C8  UNL     1      24.936   7.695  47.798  1.00  0.00     0.067 C 
HETATM   10  C9  UNL     1      23.961   6.785  47.769  1.00  0.00     0.011 C 
HETATM   11  C10 UNL     1      22.939   5.779  48.067  1.00  0.00     0.072 C 
HETATM   12  C11 UNL     1      22.706   5.445  49.476  1.00  0.00    -0.026 C 
HETATM   13  S1  UNL     1      21.620   4.220  49.321  1.00  0.00    -0.170 SA
HETATM   14  C12 UNL     1      23.101   5.800  50.892  1.00  0.00     0.216 C 
HETATM   15  O2  UNL     1      24.179   4.886  51.163  1.00  0.00    -0.351 OA
HETATM   16  C13 UNL     1      25.307   8.325  46.526  1.00  0.00     0.007 C 
HETATM   17  C14 UNL     1      24.756   8.095  45.204  1.00  0.00     0.059 C 
HETATM   18  S2  UNL     1      26.503   9.431  46.619  1.00  0.00    -0.104 SA
HETATM   19  C15 UNL     1      27.835   8.997  47.505  1.00  0.00     0.052 C 
HETATM   20  C16 UNL     1      28.018   7.688  48.003  1.00  0.00     0.032 C 
HETATM   21  C17 UNL     1      28.120   6.470  48.428  1.00  0.00     0.144 C 
HETATM   22  O3  UNL     1      27.225   5.458  48.244  1.00  0.00    -0.307 OA
HETATM   23  H12 UNL     1      20.488   4.568  50.062  1.00  0.00     0.098 HD
ENDROOT
BRANCH   1  24
HETATM   24  O1  UNL     1      22.083   1.704  49.019  1.00  0.00    -0.377 OA
HETATM   25  C1  UNL     1      22.426   2.101  47.751  1.00  0.00     0.203 C 
ENDBRANCH   1  24
TORSDOF 1
ENDMDL
MODEL 7
REMARK VINA RESULT:      -6.3      2.856      3.859
REMARK  1 active torsions:
REMARK  status: ('A' for Active; 'I' for Inactive)
REMARK    1  A    between atoms: O1_2  and  C2_3 
ROOT
HETATM    1  C2  UNL     1      19.927   1.368  50.366  1.00  0.00     0.200 C 
HETATM    2  C3  UNL     1      19.997   2.651  51.118  1.00  0.00     0.047 C 
HETATM    3  C4  UNL     1      20.420   3.848  50.712  1.00  0.00     0.053 C 
HETATM    4  C5  UNL     1      21.156   4.596  51.792  1.00  0.00     0.150 C 
HETATM    5  C6  UNL     1      22.186   5.454  51.088  1.00  0.00     0.152 C 
HETATM    6  N1  UNL     1      21.953   5.719  49.863  1.00  0.00    -0.221 NA
HETATM    7  C7  UNL     1      22.641   6.449  48.910  1.00  0.00     0.236 C 
HETATM    8  N2  UNL     1      23.756   6.070  48.510  1.00  0.00    -0.241 NA
HETATM    9  C8  UNL     1      24.539   4.970  48.842  1.00  0.00     0.067 C 
HETATM   10  C9  UNL     1      24.010   3.754  48.980  1.00  0.00     0.011 C 
HETATM   11  C10 UNL     1      23.143   2.574  49.054  1.00  0.00     0.072 C 
HETATM   12  C11 UNL     1      21.731   2.747  48.702  1.00  0.00    -0.026 C 
HETATM   13  S1  UNL     1      21.146   1.251  49.056  1.00  0.00    -0.170 SA
HETATM   14  C12 UNL     1      20.717   3.746  48.188  1.00  0.00     0.216 C 
HETATM   15  O2  UNL     1      20.176   4.305  49.398  1.00  0.00    -0.351 OA
HETATM   16  C13 UNL     1      25.991   5.095  49.005  1.00  0.00     0.007 C 
HETATM   17  C14 UNL     1      26.964   4.060  49.304  1.00  0.00     0.059 C 
HETATM   18  S2  UNL     1      26.587   6.603  48.824  1.00  0.00    -0.104 SA
HETATM   19  C15 UNL     1      25.772   7.812  49.613  1.00  0.00     0.052 C 
HETATM   20  C16 UNL     1      24.734   7.547  50.534  1.00  0.00     0.032 C 
HETATM   21  C17 UNL     1      23.794   7.231  51.365  1.00  0.00     0.144 C 
HETATM   22  O3  UNL     1      23.360   5.977  51.677  1.00  0.00    -0.307 OA
HETATM   23  H12 UNL     1      20.530   0.759  47.902  1.00  0.00     0.098 HD
ENDROOT
BRANCH   1  24
HETATM   24  O1  UNL     1      20.260   0.374  51.310  1.00  0.00    -0.377 OA
HETATM   25  C1  UNL     1      19.210   0.044  52.129  1.00  0.00     0.203 C 
ENDBRANCH   1  24
TORSDOF 1
ENDMDL
MODEL 8
REMARK VINA RESULT:      -6.3      2.778      6.095
REMARK  1 active torsions:
REMARK  status: ('A' for Active; 'I' for Inactive)
REMARK    1  A    between atoms: O1_2  and  C2_3 
ROOT
HETATM    1  C2  UNL     1      24.182   8.876  48.482  1.00  0.00     0.200 C 
HETATM    2  C3  UNL     1      23.099   8.708  49.488  1.00  0.00     0.047 C 
HETATM    3  C4  UNL     1      22.962   7.783  50.438  1.00  0.00     0.053 C 
HETATM    4  C5  UNL     1      21.528   7.367  50.637  1.00  0.00     0.150 C 
HETATM    5  C6  UNL     1      21.562   5.917  51.069  1.00  0.00     0.152 C 
HETATM    6  N1  UNL     1      22.656   5.510  51.585  1.00  0.00    -0.221 NA
HETATM    7  C7  UNL     1      23.064   4.287  52.086  1.00  0.00     0.236 C 
HETATM    8  N2  UNL     1      23.171   3.303  51.333  1.00  0.00    -0.241 NA
HETATM    9  C8  UNL     1      22.951   3.146  49.970  1.00  0.00     0.067 C 
HETATM   10  C9  UNL     1      23.368   4.054  49.087  1.00  0.00     0.011 C 
HETATM   11  C10 UNL     1      23.941   5.208  48.389  1.00  0.00     0.072 C 
HETATM   12  C11 UNL     1      24.666   6.196  49.194  1.00  0.00    -0.026 C 
HETATM   13  S1  UNL     1      24.993   7.335  48.052  1.00  0.00    -0.170 SA
HETATM   14  C12 UNL     1      25.156   6.505  50.591  1.00  0.00     0.216 C 
HETATM   15  O2  UNL     1      24.080   7.285  51.142  1.00  0.00    -0.351 OA
HETATM   16  C13 UNL     1      22.292   1.946  49.441  1.00  0.00     0.007 C 
HETATM   17  C14 UNL     1      22.019   1.594  48.060  1.00  0.00     0.059 C 
HETATM   18  S2  UNL     1      21.804   0.867  50.563  1.00  0.00    -0.104 SA
HETATM   19  C15 UNL     1      20.999   1.486  51.873  1.00  0.00     0.052 C 
HETATM   20  C16 UNL     1      20.593   2.838  51.941  1.00  0.00     0.032 C 
HETATM   21  C17 UNL     1      20.252   4.086  51.936  1.00  0.00     0.144 C 
HETATM   22  O3  UNL     1      20.493   5.000  50.952  1.00  0.00    -0.307 OA
HETATM   23  H12 UNL     1      26.376   7.533  48.044  1.00  0.00     0.098 HD
ENDROOT
BRANCH   1  24
HETATM   24  O1  UNL     1      23.529   9.321  47.313  1.00  0.00    -0.377 OA
HETATM   25  C1  UNL     1      23.755   8.504  46.234  1.00  0.00     0.203 C 
ENDBRANCH   1  24
TORSDOF 1
ENDMDL
MODEL 9
REMARK VINA RESULT:      -6.3      3.578      5.508
REMARK  1 active torsions:
REMARK  status: ('A' for Active; 'I' for Inactive)
REMARK    1  A    between atoms: O1_2  and  C2_3 
ROOT
HETATM    1  C2  UNL     1      18.734   0.955  50.660  1.00  0.00     0.200 C 
HETATM    2  C3  UNL     1      20.103   0.793  50.099  1.00  0.00     0.047 C 
HETATM    3  C4  UNL     1      21.254   1.326  50.507  1.00  0.00     0.053 C 
HETATM    4  C5  UNL     1      22.160   1.692  49.361  1.00  0.00     0.150 C 
HETATM    5  C6  UNL     1      22.960   2.893  49.818  1.00  0.00     0.152 C 
HETATM    6  N1  UNL     1      23.059   3.054  51.079  1.00  0.00    -0.221 NA
HETATM    7  C7  UNL     1      23.689   4.007  51.860  1.00  0.00     0.236 C 
HETATM    8  N2  UNL     1      23.304   5.190  51.842  1.00  0.00    -0.241 NA
HETATM    9  C8  UNL     1      22.285   5.826  51.143  1.00  0.00     0.067 C 
HETATM   10  C9  UNL     1      21.077   5.276  51.017  1.00  0.00     0.011 C 
HETATM   11  C10 UNL     1      19.884   4.425  51.060  1.00  0.00     0.072 C 
HETATM   12  C11 UNL     1      19.959   3.193  51.851  1.00  0.00    -0.026 C 
HETATM   13  S1  UNL     1      18.498   2.521  51.502  1.00  0.00    -0.170 SA
HETATM   14  C12 UNL     1      20.847   2.393  52.779  1.00  0.00     0.216 C 
HETATM   15  O2  UNL     1      21.533   1.505  51.880  1.00  0.00    -0.351 OA
HETATM   16  C13 UNL     1      22.483   7.156  50.557  1.00  0.00     0.007 C 
HETATM   17  C14 UNL     1      21.531   7.983  49.839  1.00  0.00     0.059 C 
HETATM   18  S2  UNL     1      23.977   7.784  50.741  1.00  0.00    -0.104 SA
HETATM   19  C15 UNL     1      25.245   6.769  50.409  1.00  0.00     0.052 C 
HETATM   20  C16 UNL     1      25.059   5.495  49.826  1.00  0.00     0.032 C 
HETATM   21  C17 UNL     1      24.816   4.342  49.293  1.00  0.00     0.144 C 
HETATM   22  O3  UNL     1      23.596   3.827  48.968  1.00  0.00    -0.307 OA
HETATM   23  H12 UNL     1      17.843   2.293  52.715  1.00  0.00     0.098 HD
ENDROOT
BRANCH   1  24
HETATM   24  O1  UNL     1      17.880   0.974  49.538  1.00  0.00    -0.377 OA
HETATM   25  C1  UNL     1      16.563   1.163  49.875  1.00  0.00     0.203 C 
ENDBRANCH   1  24
TORSDOF 1
ENDMDL
