MODEL 1
REMARK VINA RESULT:      -9.3      0.000      0.000
REMARK  4 active torsions:
REMARK  status: ('A' for Active; 'I' for Inactive)
REMARK    1  A    between atoms: C3_3  and  C4_4 
REMARK    2  A    between atoms: C5_6  and  C8_9 
REMARK    3  A    between atoms: C10_11  and  C11_12 
REMARK    4  A    between atoms: C11_12  and  N1_13 
ROOT
HETATM    1  C4  UNL     1      22.450   4.019  49.395  1.00  0.00     0.138 C 
HETATM    2  F1  UNL     1      22.053   4.971  48.633  1.00  0.00    -0.237 F 
HETATM    3  C5  UNL     1      24.210   4.619  49.690  1.00  0.00     0.020 A 
HETATM    4  C6  UNL     1      25.572   4.407  49.871  1.00  0.00     0.077 A 
HETATM    5  C7  UNL     1      26.489   3.535  50.121  1.00  0.00     0.014 A 
HETATM    6  C8  UNL     1      24.996   3.346  49.993  1.00  0.00     0.026 A 
HETATM    7  C9  UNL     1      24.294   4.563  49.710  1.00  0.00    -0.005 A 
HETATM    8  C10 UNL     1      23.872   5.882  49.438  1.00  0.00     0.018 A 
HETATM    9  C14 UNL     1      22.830   3.982  50.736  1.00  0.00     0.063 C 
HETATM   10  C15 UNL     1      23.149   4.737  51.834  1.00  0.00    -0.020 C 
HETATM   11  C16 UNL     1      23.937   4.217  52.833  1.00  0.00    -0.011 C 
HETATM   12  C17 UNL     1      24.540   2.899  52.945  1.00  0.00     0.144 C 
HETATM   13  N2  UNL     1      25.991   2.846  53.039  1.00  0.00    -0.389 N 
HETATM   14  C18 UNL     1      26.315   1.393  53.068  1.00  0.00     0.154 A 
HETATM   15  N3  UNL     1      26.305   1.386  54.456  1.00  0.00    -0.247 NA
HETATM   16  C19 UNL     1      26.427   0.242  55.184  1.00  0.00     0.225 A 
HETATM   17  N4  UNL     1      26.563  -0.966  54.336  1.00  0.00    -0.267 N 
HETATM   18  C20 UNL     1      26.505  -0.279  53.051  1.00  0.00     0.116 A 
HETATM   19  C21 UNL     1      26.641  -1.566  52.158  1.00  0.00     0.047 C 
HETATM   20  C22 UNL     1      26.462   0.243  51.996  1.00  0.00     0.094 A 
HETATM   21  C23 UNL     1      26.474   1.378  51.321  1.00  0.00     0.028 A 
HETATM   22  C24 UNL     1      26.484   2.350  50.768  1.00  0.00    -0.141 C 
HETATM   23  H21 UNL     1      26.810   3.478  53.083  1.00  0.00     0.156 HD
ENDROOT
BRANCH   1  24
HETATM   24  C3  UNL     1      22.839   2.912  48.458  1.00  0.00     0.013 C 
HETATM   25  C2  UNL     1      22.331   1.716  48.305  1.00  0.00    -0.032 C 
HETATM   26  C1  UNL     1      21.233   0.956  48.922  1.00  0.00     0.036 C 
ENDBRANCH   1  24
BRANCH   8  27
HETATM   27  C11 UNL     1      23.788   7.411  49.455  1.00  0.00     0.283 C 
BRANCH  27  28
HETATM   28  N1  UNL     1      24.975   8.050  49.039  1.00  0.00     0.080 N 
HETATM   29  C12 UNL     1      26.019   8.073  50.038  1.00  0.00     0.309 C 
HETATM   30  C13 UNL     1      25.473   7.728  47.738  1.00  0.00     0.309 C 
ENDBRANCH  27  28
ENDBRANCH   8  27
TORSDOF 4
ENDMDL
MODEL 2
REMARK VINA RESULT:      -9.2      2.714      6.239
REMARK  4 active torsions:
REMARK  status: ('A' for Active; 'I' for Inactive)
REMARK    1  A    between atoms: C3_3  and  C4_4 
REMARK    2  A    between atoms: C5_6  and  C8_9 
REMARK    3  A    between atoms: C10_11  and  C11_12 
REMARK    4  A    between atoms: C11_12  and  N1_13 
ROOT
HETATM    1  C4  UNL     1      24.826   1.266  52.912  1.00  0.00     0.138 C 
HETATM    2  F1  UNL     1      24.260   0.193  53.329  1.00  0.00    -0.237 F 
HETATM    3  C5  UNL     1      23.559   1.757  51.609  1.00  0.00     0.020 A 
HETATM    4  C6  UNL     1      23.200   2.287  50.375  1.00  0.00     0.077 A 
HETATM    5  C7  UNL     1      23.594   2.976  49.359  1.00  0.00     0.014 A 
HETATM    6  C8  UNL     1      24.355   2.581  50.601  1.00  0.00     0.026 A 
HETATM    7  C9  UNL     1      23.574   1.809  51.523  1.00  0.00    -0.005 A 
HETATM    8  C10 UNL     1      22.591   1.082  52.227  1.00  0.00     0.018 A 
HETATM    9  C14 UNL     1      24.458   2.610  52.976  1.00  0.00     0.063 C 
HETATM   10  C15 UNL     1      23.444   3.484  53.264  1.00  0.00    -0.020 C 
HETATM   11  C16 UNL     1      23.425   4.739  52.704  1.00  0.00    -0.011 C 
HETATM   12  C17 UNL     1      24.368   5.359  51.788  1.00  0.00     0.144 C 
HETATM   13  N2  UNL     1      23.849   5.783  50.496  1.00  0.00    -0.389 N 
HETATM   14  C18 UNL     1      25.035   6.301  49.763  1.00  0.00     0.154 A 
HETATM   15  N3  UNL     1      24.781   7.594  50.200  1.00  0.00    -0.247 NA
HETATM   16  C19 UNL     1      25.630   8.630  49.961  1.00  0.00     0.225 A 
HETATM   17  N4  UNL     1      26.836   8.220  49.200  1.00  0.00    -0.267 N 
HETATM   18  C20 UNL     1      26.481   6.812  49.068  1.00  0.00     0.116 A 
HETATM   19  C21 UNL     1      27.765   6.383  48.268  1.00  0.00     0.047 C 
HETATM   20  C22 UNL     1      26.227   5.669  48.941  1.00  0.00     0.094 A 
HETATM   21  C23 UNL     1      25.323   4.714  49.074  1.00  0.00     0.028 A 
HETATM   22  C24 UNL     1      24.545   3.919  49.195  1.00  0.00    -0.141 C 
HETATM   23  H21 UNL     1      22.958   5.822  49.970  1.00  0.00     0.156 HD
ENDROOT
BRANCH   1  24
HETATM   24  C3  UNL     1      25.859   0.800  51.928  1.00  0.00     0.013 C 
HETATM   25  C2  UNL     1      26.731  -0.172  52.014  1.00  0.00    -0.032 C 
HETATM   26  C1  UNL     1      27.079  -1.182  53.024  1.00  0.00     0.036 C 
ENDBRANCH   1  24
BRANCH   8  27
HETATM   27  C11 UNL     1      21.236   0.637  52.783  1.00  0.00     0.283 C 
BRANCH  27  28
HETATM   28  N1  UNL     1      20.132   1.208  52.114  1.00  0.00     0.080 N 
HETATM   29  C12 UNL     1      20.003   2.636  52.294  1.00  0.00     0.309 C 
HETATM   30  C13 UNL     1      19.904   0.806  50.761  1.00  0.00     0.309 C 
ENDBRANCH  27  28
ENDBRANCH   8  27
TORSDOF 4
ENDMDL
MODEL 3
REMARK VINA RESULT:      -8.8      3.818      7.078
REMARK  4 active torsions:
REMARK  status: ('A' for Active; 'I' for Inactive)
REMARK    1  A    between atoms: C3_3  and  C4_4 
REMARK    2  A    between atoms: C5_6  and  C8_9 
REMARK    3  A    between atoms: C10_11  and  C11_12 
REMARK    4  A    between atoms: C11_12  and  N1_13 
ROOT
HETATM    1  C4  UNL     1      20.600   0.396  52.879  1.00  0.00     0.138 C 
HETATM    2  F1  UNL     1      19.713  -0.502  53.101  1.00  0.00    -0.237 F 
HETATM    3  C5  UNL     1      20.253   0.679  51.050  1.00  0.00     0.020 A 
HETATM    4  C6  UNL     1      20.653   0.941  49.744  1.00  0.00     0.077 A 
HETATM    5  C7  UNL     1      21.616   1.344  48.987  1.00  0.00     0.014 A 
HETATM    6  C8  UNL     1      21.580   1.182  50.488  1.00  0.00     0.026 A 
HETATM    7  C9  UNL     1      20.319   0.709  50.977  1.00  0.00    -0.005 A 
HETATM    8  C10 UNL     1      19.001   0.246  51.171  1.00  0.00     0.018 A 
HETATM    9  C14 UNL     1      20.509   1.745  52.534  1.00  0.00     0.063 C 
HETATM   10  C15 UNL     1      19.668   2.743  52.116  1.00  0.00    -0.020 C 
HETATM   11  C16 UNL     1      20.163   3.833  51.441  1.00  0.00    -0.011 C 
HETATM   12  C17 UNL     1      21.532   4.147  51.064  1.00  0.00     0.144 C 
HETATM   13  N2  UNL     1      21.803   4.306  49.643  1.00  0.00    -0.389 N 
HETATM   14  C18 UNL     1      23.270   4.543  49.562  1.00  0.00     0.154 A 
HETATM   15  N3  UNL     1      23.081   5.918  49.598  1.00  0.00    -0.247 NA
HETATM   16  C19 UNL     1      24.117   6.799  49.678  1.00  0.00     0.225 A 
HETATM   17  N4  UNL     1      25.438   6.127  49.727  1.00  0.00    -0.267 N 
HETATM   18  C20 UNL     1      24.937   4.760  49.649  1.00  0.00     0.116 A 
HETATM   19  C21 UNL     1      26.341   4.055  49.709  1.00  0.00     0.047 C 
HETATM   20  C22 UNL     1      24.567   3.644  49.587  1.00  0.00     0.094 A 
HETATM   21  C23 UNL     1      23.554   2.822  49.376  1.00  0.00     0.028 A 
HETATM   22  C24 UNL     1      22.683   2.143  49.198  1.00  0.00    -0.141 C 
HETATM   23  H21 UNL     1      21.310   4.297  48.733  1.00  0.00     0.156 HD
ENDROOT
BRANCH   1  24
HETATM   24  C3  UNL     1      21.875  -0.365  52.659  1.00  0.00     0.013 C 
HETATM   25  C2  UNL     1      22.634  -1.006  53.511  1.00  0.00    -0.032 C 
HETATM   26  C1  UNL     1      22.601  -1.263  54.958  1.00  0.00     0.036 C 
ENDBRANCH   1  24
BRANCH   8  27
HETATM   27  C11 UNL     1      17.490   0.053  51.005  1.00  0.00     0.283 C 
BRANCH  27  28
HETATM   28  N1  UNL     1      16.804  -0.135  52.224  1.00  0.00     0.080 N 
HETATM   29  C12 UNL     1      15.571   0.610  52.333  1.00  0.00     0.309 C 
HETATM   30  C13 UNL     1      16.676  -1.475  52.706  1.00  0.00     0.309 C 
ENDBRANCH  27  28
ENDBRANCH   8  27
TORSDOF 4
ENDMDL
MODEL 4
REMARK VINA RESULT:      -8.8      2.508      6.633
REMARK  4 active torsions:
REMARK  status: ('A' for Active; 'I' for Inactive)
REMARK    1  A    between atoms: C3_3  and  C4_4 
REMARK    2  A    between atoms: C5_6  and  C8_9 
REMARK    3  A    between atoms: C10_11  and  C11_12 
REMARK    4  A    between atoms: C11_12  and  N1_13 
ROOT
HETATM    1  C4  UNL     1      24.152   0.360  52.455  1.00  0.00     0.138 C 
HETATM    2  F1  UNL     1      24.559  -0.491  53.324  1.00  0.00    -0.237 F 
HETATM    3  C5  UNL     1      24.821   1.923  53.264  1.00  0.00     0.020 A 
HETATM    4  C6  UNL     1      24.738   3.267  53.606  1.00  0.00     0.077 A 
HETATM    5  C7  UNL     1      24.131   4.384  53.389  1.00  0.00     0.014 A 
HETATM    6  C8  UNL     1      23.900   3.030  52.761  1.00  0.00     0.026 A 
HETATM    7  C9  UNL     1      24.784   2.018  53.258  1.00  0.00    -0.005 A 
HETATM    8  C10 UNL     1      25.761   1.240  53.915  1.00  0.00     0.018 A 
HETATM    9  C14 UNL     1      24.829   1.197  51.568  1.00  0.00     0.063 C 
HETATM   10  C15 UNL     1      26.050   1.711  51.219  1.00  0.00    -0.020 C 
HETATM   11  C16 UNL     1      26.135   2.903  50.540  1.00  0.00    -0.011 C 
HETATM   12  C17 UNL     1      25.075   3.787  50.083  1.00  0.00     0.144 C 
HETATM   13  N2  UNL     1      25.082   5.146  50.605  1.00  0.00    -0.389 N 
HETATM   14  C18 UNL     1      23.863   5.778  50.030  1.00  0.00     0.154 A 
HETATM   15  N3  UNL     1      24.588   6.272  48.955  1.00  0.00    -0.247 NA
HETATM   16  C19 UNL     1      24.000   6.906  47.902  1.00  0.00     0.225 A 
HETATM   17  N4  UNL     1      22.526   6.995  48.037  1.00  0.00    -0.267 N 
HETATM   18  C20 UNL     1      22.433   6.322  49.327  1.00  0.00     0.116 A 
HETATM   19  C21 UNL     1      20.869   6.414  49.460  1.00  0.00     0.047 C 
HETATM   20  C22 UNL     1      22.321   5.783  50.369  1.00  0.00     0.094 A 
HETATM   21  C23 UNL     1      22.930   5.293  51.434  1.00  0.00     0.028 A 
HETATM   22  C24 UNL     1      23.465   4.882  52.326  1.00  0.00    -0.141 C 
HETATM   23  H21 UNL     1      25.644   5.759  51.221  1.00  0.00     0.156 HD
ENDROOT
BRANCH   1  24
HETATM   24  C3  UNL     1      22.719   0.623  52.814  1.00  0.00     0.013 C 
HETATM   25  C2  UNL     1      21.843  -0.142  53.413  1.00  0.00    -0.032 C 
HETATM   26  C1  UNL     1      21.846  -1.503  53.971  1.00  0.00     0.036 C 
ENDBRANCH   1  24
BRANCH   8  27
HETATM   27  C11 UNL     1      27.070   0.824  54.593  1.00  0.00     0.283 C 
BRANCH  27  28
HETATM   28  N1  UNL     1      28.212   1.008  53.785  1.00  0.00     0.080 N 
HETATM   29  C12 UNL     1      28.637   2.384  53.663  1.00  0.00     0.309 C 
HETATM   30  C13 UNL     1      29.309   0.114  53.983  1.00  0.00     0.309 C 
ENDBRANCH  27  28
ENDBRANCH   8  27
TORSDOF 4
ENDMDL
MODEL 5
REMARK VINA RESULT:      -8.7      2.758      6.943
REMARK  4 active torsions:
REMARK  status: ('A' for Active; 'I' for Inactive)
REMARK    1  A    between atoms: C3_3  and  C4_4 
REMARK    2  A    between atoms: C5_6  and  C8_9 
REMARK    3  A    between atoms: C10_11  and  C11_12 
REMARK    4  A    between atoms: C11_12  and  N1_13 
ROOT
HETATM    1  C4  UNL     1      23.670   0.774  52.643  1.00  0.00     0.138 C 
HETATM    2  F1  UNL     1      24.357   0.145  53.525  1.00  0.00    -0.237 F 
HETATM    3  C5  UNL     1      24.279   2.517  53.011  1.00  0.00     0.020 A 
HETATM    4  C6  UNL     1      24.092   3.888  53.137  1.00  0.00     0.077 A 
HETATM    5  C7  UNL     1      23.312   4.883  52.884  1.00  0.00     0.014 A 
HETATM    6  C8  UNL     1      23.137   3.419  52.556  1.00  0.00     0.026 A 
HETATM    7  C9  UNL     1      24.230   2.605  52.998  1.00  0.00    -0.005 A 
HETATM    8  C10 UNL     1      25.416   2.060  53.534  1.00  0.00     0.018 A 
HETATM    9  C14 UNL     1      24.031   1.487  51.500  1.00  0.00     0.063 C 
HETATM   10  C15 UNL     1      25.075   2.037  50.803  1.00  0.00    -0.020 C 
HETATM   11  C16 UNL     1      24.860   3.082  49.936  1.00  0.00    -0.011 C 
HETATM   12  C17 UNL     1      23.621   3.761  49.594  1.00  0.00     0.144 C 
HETATM   13  N2  UNL     1      23.556   5.189  49.870  1.00  0.00    -0.389 N 
HETATM   14  C18 UNL     1      22.172   5.585  49.491  1.00  0.00     0.154 A 
HETATM   15  N3  UNL     1      22.587   5.932  48.214  1.00  0.00    -0.247 NA
HETATM   16  C19 UNL     1      21.715   6.298  47.233  1.00  0.00     0.225 A 
HETATM   17  N4  UNL     1      20.302   6.273  47.683  1.00  0.00    -0.267 N 
HETATM   18  C20 UNL     1      20.568   5.851  49.053  1.00  0.00     0.116 A 
HETATM   19  C21 UNL     1      19.067   5.821  49.521  1.00  0.00     0.047 C 
HETATM   20  C22 UNL     1      20.746   5.511  50.167  1.00  0.00     0.094 A 
HETATM   21  C23 UNL     1      21.622   5.290  51.131  1.00  0.00     0.028 A 
HETATM   22  C24 UNL     1      22.380   5.106  51.934  1.00  0.00    -0.141 C 
HETATM   23  H21 UNL     1      24.147   5.957  50.233  1.00  0.00     0.156 HD
ENDROOT
BRANCH   1  24
HETATM   24  C3  UNL     1      22.320   0.966  53.271  1.00  0.00     0.013 C 
HETATM   25  C2  UNL     1      21.603   0.151  54.001  1.00  0.00    -0.032 C 
HETATM   26  C1  UNL     1      21.766  -1.218  54.510  1.00  0.00     0.036 C 
ENDBRANCH   1  24
BRANCH   8  27
HETATM   27  C11 UNL     1      26.880   1.903  53.956  1.00  0.00     0.283 C 
BRANCH  27  28
HETATM   28  N1  UNL     1      27.313   0.560  54.011  1.00  0.00     0.080 N 
HETATM   29  C12 UNL     1      27.429  -0.080  52.721  1.00  0.00     0.309 C 
HETATM   30  C13 UNL     1      28.415   0.261  54.870  1.00  0.00     0.309 C 
ENDBRANCH  27  28
ENDBRANCH   8  27
TORSDOF 4
ENDMDL
MODEL 6
REMARK VINA RESULT:      -8.0     19.493     20.830
REMARK  4 active torsions:
REMARK  status: ('A' for Active; 'I' for Inactive)
REMARK    1  A    between atoms: C3_3  and  C4_4 
REMARK    2  A    between atoms: C5_6  and  C8_9 
REMARK    3  A    between atoms: C10_11  and  C11_12 
REMARK    4  A    between atoms: C11_12  and  N1_13 
ROOT
HETATM    1  C4  UNL     1      45.280   0.096  53.326  1.00  0.00     0.138 C 
HETATM    2  F1  UNL     1      45.476   0.479  52.118  1.00  0.00    -0.237 F 
HETATM    3  C5  UNL     1      44.277  -1.456  52.963  1.00  0.00     0.020 A 
HETATM    4  C6  UNL     1      43.257  -2.358  53.240  1.00  0.00     0.077 A 
HETATM    5  C7  UNL     1      42.406  -2.764  54.119  1.00  0.00     0.014 A 
HETATM    6  C8  UNL     1      43.426  -1.655  54.214  1.00  0.00     0.026 A 
HETATM    7  C9  UNL     1      44.206  -1.500  53.021  1.00  0.00    -0.005 A 
HETATM    8  C10 UNL     1      44.808  -1.572  51.747  1.00  0.00     0.018 A 
HETATM    9  C14 UNL     1      45.710  -1.022  54.042  1.00  0.00     0.063 C 
HETATM   10  C15 UNL     1      46.310  -2.251  53.951  1.00  0.00    -0.020 C 
HETATM   11  C16 UNL     1      46.081  -3.209  54.909  1.00  0.00    -0.011 C 
HETATM   12  C17 UNL     1      45.252  -3.148  56.101  1.00  0.00     0.144 C 
HETATM   13  N2  UNL     1      44.166  -4.112  56.198  1.00  0.00    -0.389 N 
HETATM   14  C18 UNL     1      43.463  -3.765  57.463  1.00  0.00     0.154 A 
HETATM   15  N3  UNL     1      44.228  -4.676  58.176  1.00  0.00    -0.247 NA
HETATM   16  C19 UNL     1      44.164  -4.787  59.532  1.00  0.00     0.225 A 
HETATM   17  N4  UNL     1      43.204  -3.834  60.140  1.00  0.00    -0.267 N 
HETATM   18  C20 UNL     1      42.767  -3.215  58.894  1.00  0.00     0.116 A 
HETATM   19  C21 UNL     1      41.757  -2.202  59.547  1.00  0.00     0.047 C 
HETATM   20  C22 UNL     1      42.391  -2.694  57.907  1.00  0.00     0.094 A 
HETATM   21  C23 UNL     1      42.378  -2.701  56.586  1.00  0.00     0.028 A 
HETATM   22  C24 UNL     1      42.381  -2.723  55.468  1.00  0.00    -0.141 C 
HETATM   23  H21 UNL     1      43.762  -4.911  55.678  1.00  0.00     0.156 HD
ENDROOT
BRANCH   1  24
HETATM   24  C3  UNL     1      44.110   0.906  53.802  1.00  0.00     0.013 C 
HETATM   25  C2  UNL     1      44.073   1.987  54.538  1.00  0.00    -0.032 C 
HETATM   26  C1  UNL     1      45.073   2.847  55.189  1.00  0.00     0.036 C 
ENDBRANCH   1  24
BRANCH   8  27
HETATM   27  C11 UNL     1      45.376  -2.132  50.440  1.00  0.00     0.283 C 
BRANCH  27  28
HETATM   28  N1  UNL     1      44.708  -1.668  49.286  1.00  0.00     0.080 N 
HETATM   29  C12 UNL     1      45.014  -0.301  48.932  1.00  0.00     0.309 C 
HETATM   30  C13 UNL     1      44.683  -2.534  48.149  1.00  0.00     0.309 C 
ENDBRANCH  27  28
ENDBRANCH   8  27
TORSDOF 4
ENDMDL
MODEL 7
REMARK VINA RESULT:      -8.0      2.986      7.113
REMARK  4 active torsions:
REMARK  status: ('A' for Active; 'I' for Inactive)
REMARK    1  A    between atoms: C3_3  and  C4_4 
REMARK    2  A    between atoms: C5_6  and  C8_9 
REMARK    3  A    between atoms: C10_11  and  C11_12 
REMARK    4  A    between atoms: C11_12  and  N1_13 
ROOT
HETATM    1  C4  UNL     1      25.536   2.566  51.777  1.00  0.00     0.138 C 
HETATM    2  F1  UNL     1      25.998   1.581  52.456  1.00  0.00    -0.237 F 
HETATM    3  C5  UNL     1      23.866   1.826  51.321  1.00  0.00     0.020 A 
HETATM    4  C6  UNL     1      22.805   1.619  50.446  1.00  0.00     0.077 A 
HETATM    5  C7  UNL     1      22.234   2.006  49.357  1.00  0.00     0.014 A 
HETATM    6  C8  UNL     1      23.482   2.533  50.024  1.00  0.00     0.026 A 
HETATM    7  C9  UNL     1      23.809   1.845  51.238  1.00  0.00    -0.005 A 
HETATM    8  C10 UNL     1      23.887   1.009  52.372  1.00  0.00     0.018 A 
HETATM    9  C14 UNL     1      24.468   3.438  51.988  1.00  0.00     0.063 C 
HETATM   10  C15 UNL     1      23.352   3.683  52.744  1.00  0.00    -0.020 C 
HETATM   11  C16 UNL     1      22.328   4.451  52.245  1.00  0.00    -0.011 C 
HETATM   12  C17 UNL     1      22.207   5.109  50.954  1.00  0.00     0.144 C 
HETATM   13  N2  UNL     1      21.083   4.714  50.117  1.00  0.00    -0.389 N 
HETATM   14  C18 UNL     1      21.261   5.485  48.856  1.00  0.00     0.154 A 
HETATM   15  N3  UNL     1      20.449   6.506  49.328  1.00  0.00    -0.247 NA
HETATM   16  C19 UNL     1      20.269   7.673  48.651  1.00  0.00     0.225 A 
HETATM   17  N4  UNL     1      21.034   7.724  47.382  1.00  0.00    -0.267 N 
HETATM   18  C20 UNL     1      21.633   6.399  47.492  1.00  0.00     0.116 A 
HETATM   19  C21 UNL     1      22.447   6.463  46.149  1.00  0.00     0.047 C 
HETATM   20  C22 UNL     1      22.133   5.334  47.549  1.00  0.00     0.094 A 
HETATM   21  C23 UNL     1      22.183   4.164  48.161  1.00  0.00     0.028 A 
HETATM   22  C24 UNL     1      22.211   3.181  48.694  1.00  0.00    -0.141 C 
HETATM   23  H21 UNL     1      20.256   4.093  50.137  1.00  0.00     0.156 HD
ENDROOT
BRANCH   1  24
HETATM   24  C3  UNL     1      26.134   2.405  50.409  1.00  0.00     0.013 C 
HETATM   25  C2  UNL     1      26.495   3.307  49.533  1.00  0.00    -0.032 C 
HETATM   26  C1  UNL     1      26.490   4.777  49.478  1.00  0.00     0.036 C 
ENDBRANCH   1  24
BRANCH   8  27
HETATM   27  C11 UNL     1      23.481   0.145  53.569  1.00  0.00     0.283 C 
BRANCH  27  28
HETATM   28  N1  UNL     1      22.144  -0.307  53.515  1.00  0.00     0.080 N 
HETATM   29  C12 UNL     1      21.890  -1.503  54.285  1.00  0.00     0.309 C 
HETATM   30  C13 UNL     1      21.113   0.670  53.669  1.00  0.00     0.309 C 
ENDBRANCH  27  28
ENDBRANCH   8  27
TORSDOF 4
ENDMDL
MODEL 8
REMARK VINA RESULT:      -7.9      2.264      3.924
REMARK  4 active torsions:
REMARK  status: ('A' for Active; 'I' for Inactive)
REMARK    1  A    between atoms: C3_3  and  C4_4 
REMARK    2  A    between atoms: C5_6  and  C8_9 
REMARK    3  A    between atoms: C10_11  and  C11_12 
REMARK    4  A    between atoms: C11_12  and  N1_13 
ROOT
HETATM    1  C4  UNL     1      23.464   4.758  48.490  1.00  0.00     0.138 C 
HETATM    2  F1  UNL     1      22.798   5.603  47.794  1.00  0.00    -0.237 F 
HETATM    3  C5  UNL     1      22.456   4.850  50.077  1.00  0.00     0.020 A 
HETATM    4  C6  UNL     1      22.331   4.850  51.461  1.00  0.00     0.077 A 
HETATM    5  C7  UNL     1      22.916   4.596  52.582  1.00  0.00     0.014 A 
HETATM    6  C8  UNL     1      23.441   4.455  51.173  1.00  0.00     0.026 A 
HETATM    7  C9  UNL     1      22.487   4.835  50.173  1.00  0.00    -0.005 A 
HETATM    8  C10 UNL     1      21.373   5.264  49.421  1.00  0.00     0.018 A 
HETATM    9  C14 UNL     1      23.142   3.506  49.015  1.00  0.00     0.063 C 
HETATM   10  C15 UNL     1      22.125   2.621  49.264  1.00  0.00    -0.020 C 
HETATM   11  C16 UNL     1      22.248   1.682  50.260  1.00  0.00    -0.011 C 
HETATM   12  C17 UNL     1      23.355   1.436  51.169  1.00  0.00     0.144 C 
HETATM   13  N2  UNL     1      23.078   1.561  52.593  1.00  0.00    -0.389 N 
HETATM   14  C18 UNL     1      24.389   1.329  53.256  1.00  0.00     0.154 A 
HETATM   15  N3  UNL     1      24.112  -0.023  53.402  1.00  0.00    -0.247 NA
HETATM   16  C19 UNL     1      25.028  -0.912  53.876  1.00  0.00     0.225 A 
HETATM   17  N4  UNL     1      26.328  -0.279  54.201  1.00  0.00    -0.267 N 
HETATM   18  C20 UNL     1      25.950   1.081  53.837  1.00  0.00     0.116 A 
HETATM   19  C21 UNL     1      27.334   1.745  54.177  1.00  0.00     0.047 C 
HETATM   20  C22 UNL     1      25.678   2.192  53.553  1.00  0.00     0.094 A 
HETATM   21  C23 UNL     1      24.731   3.050  53.218  1.00  0.00     0.028 A 
HETATM   22  C24 UNL     1      23.915   3.760  52.933  1.00  0.00    -0.141 C 
HETATM   23  H21 UNL     1      22.290   1.757  53.236  1.00  0.00     0.156 HD
ENDROOT
BRANCH   1  24
HETATM   24  C3  UNL     1      24.632   5.534  49.026  1.00  0.00     0.013 C 
HETATM   25  C2  UNL     1      25.857   5.151  49.281  1.00  0.00    -0.032 C 
HETATM   26  C1  UNL     1      26.605   3.890  49.173  1.00  0.00     0.036 C 
ENDBRANCH   1  24
BRANCH   8  27
HETATM   27  C11 UNL     1      19.928   5.502  48.975  1.00  0.00     0.283 C 
BRANCH  27  28
HETATM   28  N1  UNL     1      19.072   4.405  49.212  1.00  0.00     0.080 N 
HETATM   29  C12 UNL     1      18.774   4.175  50.607  1.00  0.00     0.309 C 
HETATM   30  C13 UNL     1      17.917   4.280  48.380  1.00  0.00     0.309 C 
ENDBRANCH  27  28
ENDBRANCH   8  27
TORSDOF 4
ENDMDL
MODEL 9
REMARK VINA RESULT:      -7.8      1.738      6.504
REMARK  4 active torsions:
REMARK  status: ('A' for Active; 'I' for Inactive)
REMARK    1  A    between atoms: C3_3  and  C4_4 
REMARK    2  A    between atoms: C5_6  and  C8_9 
REMARK    3  A    between atoms: C10_11  and  C11_12 
REMARK    4  A    between atoms: C11_12  and  N1_13 
ROOT
HETATM    1  C4  UNL     1      22.539   1.884  50.407  1.00  0.00     0.138 C 
HETATM    2  F1  UNL     1      22.294   0.782  51.017  1.00  0.00    -0.237 F 
HETATM    3  C5  UNL     1      23.341   2.816  51.833  1.00  0.00     0.020 A 
HETATM    4  C6  UNL     1      23.588   3.968  52.570  1.00  0.00     0.077 A 
HETATM    5  C7  UNL     1      23.507   5.255  52.591  1.00  0.00     0.014 A 
HETATM    6  C8  UNL     1      23.089   4.286  51.511  1.00  0.00     0.026 A 
HETATM    7  C9  UNL     1      23.342   2.917  51.850  1.00  0.00    -0.005 A 
HETATM    8  C10 UNL     1      23.696   1.683  52.436  1.00  0.00     0.018 A 
HETATM    9  C14 UNL     1      23.728   2.521  50.053  1.00  0.00     0.063 C 
HETATM   10  C15 UNL     1      25.088   2.533  50.219  1.00  0.00    -0.020 C 
HETATM   11  C16 UNL     1      25.803   3.689  50.021  1.00  0.00    -0.011 C 
HETATM   12  C17 UNL     1      25.340   5.011  49.631  1.00  0.00     0.144 C 
HETATM   13  N2  UNL     1      25.603   6.101  50.559  1.00  0.00    -0.389 N 
HETATM   14  C18 UNL     1      24.961   7.291  49.937  1.00  0.00     0.154 A 
HETATM   15  N3  UNL     1      26.148   7.643  49.310  1.00  0.00    -0.247 NA
HETATM   16  C19 UNL     1      26.230   8.667  48.416  1.00  0.00     0.225 A 
HETATM   17  N4  UNL     1      24.926   9.339  48.193  1.00  0.00    -0.267 N 
HETATM   18  C20 UNL     1      24.152   8.518  49.116  1.00  0.00     0.116 A 
HETATM   19  C21 UNL     1      22.772   9.231  48.869  1.00  0.00     0.047 C 
HETATM   20  C22 UNL     1      23.496   7.875  49.854  1.00  0.00     0.094 A 
HETATM   21  C23 UNL     1      23.476   6.966  50.813  1.00  0.00     0.028 A 
HETATM   22  C24 UNL     1      23.479   6.194  51.622  1.00  0.00    -0.141 C 
HETATM   23  H21 UNL     1      26.070   6.279  51.466  1.00  0.00     0.156 HD
ENDROOT
BRANCH   1  24
HETATM   24  C3  UNL     1      21.247   2.646  50.456  1.00  0.00     0.013 C 
HETATM   25  C2  UNL     1      20.015   2.234  50.300  1.00  0.00    -0.032 C 
HETATM   26  C1  UNL     1      19.368   0.942  50.027  1.00  0.00     0.036 C 
ENDBRANCH   1  24
BRANCH   8  27
HETATM   27  C11 UNL     1      24.450   0.624  53.246  1.00  0.00     0.283 C 
BRANCH  27  28
HETATM   28  N1  UNL     1      25.853   0.703  53.116  1.00  0.00     0.080 N 
HETATM   29  C12 UNL     1      26.447   1.852  53.760  1.00  0.00     0.309 C 
HETATM   30  C13 UNL     1      26.602  -0.495  53.339  1.00  0.00     0.309 C 
ENDBRANCH  27  28
ENDBRANCH   8  27
TORSDOF 4
ENDMDL
