MODEL 1
REMARK VINA RESULT:      -7.6      0.000      0.000
REMARK  2 active torsions:
REMARK  status: ('A' for Active; 'I' for Inactive)
REMARK    1  A    between atoms: C1_2  and  C2_3 
REMARK       I    between atoms: C1_2  and  N2_13 
REMARK    2  A    between atoms: N2_13  and  C10_14 
ROOT
HETATM    1  O1  UNL     1      25.983   2.697  51.441  1.00  0.00    -0.269 OA
HETATM    2  C1  UNL     1      25.331   2.136  52.351  1.00  0.00     0.243 C 
HETATM    3  N2  UNL     1      25.716   0.908  52.915  1.00  0.00    -0.346 N 
HETATM    4  H8  UNL     1      25.240   0.367  53.673  1.00  0.00     0.163 HD
ENDROOT
BRANCH   2   5
HETATM    5  C2  UNL     1      24.133   2.754  52.861  1.00  0.00     0.100 C 
HETATM    6  C3  UNL     1      23.216   2.195  52.126  1.00  0.00     0.027 C 
HETATM    7  C4  UNL     1      22.581   1.323  51.089  1.00  0.00     0.099 C 
HETATM    8  N1  UNL     1      21.786   2.546  52.310  1.00  0.00    -0.358 N 
HETATM    9  C5  UNL     1      21.741   1.048  52.386  1.00  0.00     0.144 C 
HETATM   10  C9  UNL     1      21.683   1.893  50.051  1.00  0.00     0.023 C 
HETATM   11  C8  UNL     1      20.544   2.657  49.928  1.00  0.00     0.021 C 
HETATM   12 CL1  UNL     1      22.109   1.526  48.359  1.00  0.00    -0.088 Cl
HETATM   13  C7  UNL     1      20.038   3.453  51.120  1.00  0.00     0.019 C 
HETATM   14  C6  UNL     1      20.764   3.597  52.304  1.00  0.00     0.091 C 
ENDBRANCH   2   5
BRANCH   3  15
HETATM   15  C10 UNL     1      26.897   0.192  52.486  1.00  0.00     0.131 C 
HETATM   16  C11 UNL     1      28.069   0.503  53.325  1.00  0.00     0.002 C 
HETATM   17  C12 UNL     1      29.169  -0.052  53.795  1.00  0.00    -0.002 C 
HETATM   18  C13 UNL     1      29.541  -1.452  53.503  1.00  0.00    -0.000 C 
HETATM   19  C14 UNL     1      28.779  -2.442  53.007  1.00  0.00    -0.000 C 
HETATM   20  C15 UNL     1      27.353  -2.387  52.621  1.00  0.00    -0.002 C 
HETATM   21  C16 UNL     1      26.697  -1.260  52.439  1.00  0.00     0.002 C 
ENDBRANCH   3  15
TORSDOF 2
ENDMDL
MODEL 2
REMARK VINA RESULT:      -7.4      2.822      7.211
REMARK  2 active torsions:
REMARK  status: ('A' for Active; 'I' for Inactive)
REMARK    1  A    between atoms: C1_2  and  C2_3 
REMARK       I    between atoms: C1_2  and  N2_13 
REMARK    2  A    between atoms: N2_13  and  C10_14 
ROOT
HETATM    1  O1  UNL     1      23.550  -0.598  53.651  1.00  0.00    -0.269 OA
HETATM    2  C1  UNL     1      23.560   0.535  53.117  1.00  0.00     0.243 C 
HETATM    3  N2  UNL     1      22.569   0.957  52.215  1.00  0.00    -0.346 N 
HETATM    4  H8  UNL     1      22.493   1.876  51.722  1.00  0.00     0.163 HD
ENDROOT
BRANCH   2   5
HETATM    5  C2  UNL     1      24.618   1.464  53.425  1.00  0.00     0.100 C 
HETATM    6  C3  UNL     1      25.648   0.875  52.888  1.00  0.00     0.027 C 
HETATM    7  C4  UNL     1      26.463  -0.143  52.154  1.00  0.00     0.099 C 
HETATM    8  N1  UNL     1      26.994   1.494  52.966  1.00  0.00    -0.358 N 
HETATM    9  C5  UNL     1      26.871   1.222  51.495  1.00  0.00     0.144 C 
HETATM   10  C9  UNL     1      27.668  -0.753  52.772  1.00  0.00     0.023 C 
HETATM   11  C8  UNL     1      28.863  -0.398  53.357  1.00  0.00     0.021 C 
HETATM   12 CL1  UNL     1      27.706  -2.535  52.824  1.00  0.00    -0.088 Cl
HETATM   13  C7  UNL     1      29.086   1.036  53.807  1.00  0.00     0.019 C 
HETATM   14  C6  UNL     1      28.073   1.996  53.823  1.00  0.00     0.091 C 
ENDBRANCH   2   5
BRANCH   3  15
HETATM   15  C10 UNL     1      21.459   0.115  51.829  1.00  0.00     0.131 C 
HETATM   16  C11 UNL     1      20.597  -0.226  52.975  1.00  0.00     0.002 C 
HETATM   17  C12 UNL     1      19.335  -0.474  53.270  1.00  0.00    -0.002 C 
HETATM   18  C13 UNL     1      18.262  -0.454  52.254  1.00  0.00    -0.000 C 
HETATM   19  C14 UNL     1      18.284   0.062  51.014  1.00  0.00    -0.000 C 
HETATM   20  C15 UNL     1      19.401   0.751  50.333  1.00  0.00    -0.002 C 
HETATM   21  C16 UNL     1      20.647   0.700  50.757  1.00  0.00     0.002 C 
ENDBRANCH   3  15
TORSDOF 2
ENDMDL
MODEL 3
REMARK VINA RESULT:      -7.4      3.170      3.882
REMARK  2 active torsions:
REMARK  status: ('A' for Active; 'I' for Inactive)
REMARK    1  A    between atoms: C1_2  and  C2_3 
REMARK       I    between atoms: C1_2  and  N2_13 
REMARK    2  A    between atoms: N2_13  and  C10_14 
ROOT
HETATM    1  O1  UNL     1      23.166   2.073  52.910  1.00  0.00    -0.269 OA
HETATM    2  C1  UNL     1      24.036   2.967  53.021  1.00  0.00     0.243 C 
HETATM    3  N2  UNL     1      25.360   2.694  53.400  1.00  0.00    -0.346 N 
HETATM    4  H8  UNL     1      26.151   3.369  53.518  1.00  0.00     0.163 HD
ENDROOT
BRANCH   2   5
HETATM    5  C2  UNL     1      23.690   4.341  52.753  1.00  0.00     0.100 C 
HETATM    6  C3  UNL     1      24.064   4.467  51.512  1.00  0.00     0.027 C 
HETATM    7  C4  UNL     1      24.622   4.121  50.168  1.00  0.00     0.099 C 
HETATM    8  N1  UNL     1      23.894   5.760  50.804  1.00  0.00    -0.358 N 
HETATM    9  C5  UNL     1      23.245   4.802  49.847  1.00  0.00     0.144 C 
HETATM   10  C9  UNL     1      25.708   4.928  49.555  1.00  0.00     0.023 C 
HETATM   11  C8  UNL     1      26.005   6.227  49.207  1.00  0.00     0.021 C 
HETATM   12 CL1  UNL     1      27.162   4.030  49.047  1.00  0.00    -0.088 Cl
HETATM   13  C7  UNL     1      25.168   7.367  49.762  1.00  0.00     0.019 C 
HETATM   14  C6  UNL     1      24.205   7.192  50.758  1.00  0.00     0.091 C 
ENDBRANCH   2   5
BRANCH   3  15
HETATM   15  C10 UNL     1      25.825   1.357  53.694  1.00  0.00     0.131 C 
HETATM   16  C11 UNL     1      25.939   0.530  52.480  1.00  0.00     0.002 C 
HETATM   17  C12 UNL     1      26.662  -0.450  51.971  1.00  0.00    -0.002 C 
HETATM   18  C13 UNL     1      27.788  -1.069  52.701  1.00  0.00    -0.000 C 
HETATM   19  C14 UNL     1      28.440  -0.619  53.786  1.00  0.00    -0.000 C 
HETATM   20  C15 UNL     1      28.198   0.628  54.542  1.00  0.00    -0.002 C 
HETATM   21  C16 UNL     1      27.100   1.345  54.421  1.00  0.00     0.002 C 
ENDBRANCH   3  15
TORSDOF 2
ENDMDL
MODEL 4
REMARK VINA RESULT:      -7.4      7.596     10.294
REMARK  2 active torsions:
REMARK  status: ('A' for Active; 'I' for Inactive)
REMARK    1  A    between atoms: C1_2  and  C2_3 
REMARK       I    between atoms: C1_2  and  N2_13 
REMARK    2  A    between atoms: N2_13  and  C10_14 
ROOT
HETATM    1  O1  UNL     1      29.282   6.994  47.074  1.00  0.00    -0.269 OA
HETATM    2  C1  UNL     1      29.686   6.476  48.140  1.00  0.00     0.243 C 
HETATM    3  N2  UNL     1      28.896   5.605  48.907  1.00  0.00    -0.346 N 
HETATM    4  H8  UNL     1      29.144   5.126  49.804  1.00  0.00     0.163 HD
ENDROOT
BRANCH   2   5
HETATM    5  C2  UNL     1      31.013   6.768  48.622  1.00  0.00     0.100 C 
HETATM    6  C3  UNL     1      31.743   6.019  47.846  1.00  0.00     0.027 C 
HETATM    7  C4  UNL     1      32.115   5.045  46.772  1.00  0.00     0.099 C 
HETATM    8  N1  UNL     1      33.220   6.000  47.992  1.00  0.00    -0.358 N 
HETATM    9  C5  UNL     1      33.064   6.270  46.524  1.00  0.00     0.144 C 
HETATM   10  C9  UNL     1      32.945   3.851  47.072  1.00  0.00     0.023 C 
HETATM   11  C8  UNL     1      34.155   3.506  47.632  1.00  0.00     0.021 C 
HETATM   12 CL1  UNL     1      32.263   2.278  46.581  1.00  0.00    -0.088 Cl
HETATM   13  C7  UNL     1      34.913   4.519  48.473  1.00  0.00     0.019 C 
HETATM   14  C6  UNL     1      34.370   5.744  48.865  1.00  0.00     0.091 C 
ENDBRANCH   2   5
BRANCH   3  15
HETATM   15  C10 UNL     1      27.550   5.238  48.527  1.00  0.00     0.131 C 
HETATM   16  C11 UNL     1      27.114   3.985  49.170  1.00  0.00     0.002 C 
HETATM   17  C12 UNL     1      26.031   3.397  49.640  1.00  0.00    -0.002 C 
HETATM   18  C13 UNL     1      24.700   4.039  49.609  1.00  0.00    -0.000 C 
HETATM   19  C14 UNL     1      24.391   5.330  49.403  1.00  0.00    -0.000 C 
HETATM   20  C15 UNL     1      25.312   6.458  49.148  1.00  0.00    -0.002 C 
HETATM   21  C16 UNL     1      26.572   6.297  48.800  1.00  0.00     0.002 C 
ENDBRANCH   3  15
TORSDOF 2
ENDMDL
MODEL 5
REMARK VINA RESULT:      -7.3      1.768      2.539
REMARK  2 active torsions:
REMARK  status: ('A' for Active; 'I' for Inactive)
REMARK    1  A    between atoms: C1_2  and  C2_3 
REMARK       I    between atoms: C1_2  and  N2_13 
REMARK    2  A    between atoms: N2_13  and  C10_14 
ROOT
HETATM    1  O1  UNL     1      24.875   2.401  53.288  1.00  0.00    -0.269 OA
HETATM    2  C1  UNL     1      24.814   1.709  52.246  1.00  0.00     0.243 C 
HETATM    3  N2  UNL     1      25.616   0.574  52.041  1.00  0.00    -0.346 N 
HETATM    4  H8  UNL     1      25.636  -0.062  51.211  1.00  0.00     0.163 HD
ENDROOT
BRANCH   2   5
HETATM    5  C2  UNL     1      23.892   2.069  51.199  1.00  0.00     0.100 C 
HETATM    6  C3  UNL     1      22.744   1.851  51.774  1.00  0.00     0.027 C 
HETATM    7  C4  UNL     1      21.743   1.468  52.818  1.00  0.00     0.099 C 
HETATM    8  N1  UNL     1      21.477   2.093  51.041  1.00  0.00    -0.358 N 
HETATM    9  C5  UNL     1      21.247   2.866  52.306  1.00  0.00     0.144 C 
HETATM   10  C9  UNL     1      20.691   0.457  52.541  1.00  0.00     0.023 C 
HETATM   11  C8  UNL     1      19.677   0.190  51.648  1.00  0.00     0.021 C 
HETATM   12 CL1  UNL     1      20.598  -0.912  53.679  1.00  0.00    -0.088 Cl
HETATM   13  C7  UNL     1      19.619   0.939  50.326  1.00  0.00     0.019 C 
HETATM   14  C6  UNL     1      20.645   1.773  49.877  1.00  0.00     0.091 C 
ENDBRANCH   2   5
BRANCH   3  15
HETATM   15  C10 UNL     1      26.577   0.114  53.018  1.00  0.00     0.131 C 
HETATM   16  C11 UNL     1      27.001  -1.275  52.768  1.00  0.00     0.002 C 
HETATM   17  C12 UNL     1      28.050  -2.065  52.895  1.00  0.00    -0.002 C 
HETATM   18  C13 UNL     1      29.336  -1.597  53.453  1.00  0.00    -0.000 C 
HETATM   19  C14 UNL     1      29.764  -0.338  53.644  1.00  0.00    -0.000 C 
HETATM   20  C15 UNL     1      29.051   0.922  53.344  1.00  0.00    -0.002 C 
HETATM   21  C16 UNL     1      27.757   0.981  53.107  1.00  0.00     0.002 C 
ENDBRANCH   3  15
TORSDOF 2
ENDMDL
MODEL 6
REMARK VINA RESULT:      -7.1      5.201      6.418
REMARK  2 active torsions:
REMARK  status: ('A' for Active; 'I' for Inactive)
REMARK    1  A    between atoms: C1_2  and  C2_3 
REMARK       I    between atoms: C1_2  and  N2_13 
REMARK    2  A    between atoms: N2_13  and  C10_14 
ROOT
HETATM    1  O1  UNL     1      23.551   4.930  49.800  1.00  0.00    -0.269 OA
HETATM    2  C1  UNL     1      24.535   5.265  50.498  1.00  0.00     0.243 C 
HETATM    3  N2  UNL     1      25.319   4.335  51.200  1.00  0.00    -0.346 N 
HETATM    4  H8  UNL     1      26.153   4.517  51.804  1.00  0.00     0.163 HD
ENDROOT
BRANCH   2   5
HETATM    5  C2  UNL     1      24.900   6.655  50.603  1.00  0.00     0.100 C 
HETATM    6  C3  UNL     1      25.743   6.779  49.619  1.00  0.00     0.027 C 
HETATM    7  C4  UNL     1      26.592   6.423  48.439  1.00  0.00     0.099 C 
HETATM    8  N1  UNL     1      26.394   8.084  49.344  1.00  0.00    -0.358 N 
HETATM    9  C5  UNL     1      25.845   7.729  47.993  1.00  0.00     0.144 C 
HETATM   10  C9  UNL     1      28.055   6.685  48.437  1.00  0.00     0.023 C 
HETATM   11  C8  UNL     1      28.955   7.711  48.618  1.00  0.00     0.021 C 
HETATM   12 CL1  UNL     1      29.101   5.286  48.082  1.00  0.00    -0.088 Cl
HETATM   13  C7  UNL     1      28.498   9.010  49.261  1.00  0.00     0.019 C 
HETATM   14  C6  UNL     1      27.241   9.170  49.847  1.00  0.00     0.091 C 
ENDBRANCH   2   5
BRANCH   3  15
HETATM   15  C10 UNL     1      25.051   2.914  51.173  1.00  0.00     0.131 C 
HETATM   16  C11 UNL     1      26.281   2.115  51.318  1.00  0.00     0.002 C 
HETATM   17  C12 UNL     1      26.708   0.972  51.821  1.00  0.00    -0.002 C 
HETATM   18  C13 UNL     1      25.811   0.025  52.516  1.00  0.00    -0.000 C 
HETATM   19  C14 UNL     1      24.576   0.234  53.002  1.00  0.00    -0.000 C 
HETATM   20  C15 UNL     1      23.782   1.481  52.966  1.00  0.00    -0.002 C 
HETATM   21  C16 UNL     1      24.072   2.500  52.183  1.00  0.00     0.002 C 
ENDBRANCH   3  15
TORSDOF 2
ENDMDL
MODEL 7
REMARK VINA RESULT:      -7.1      2.246      2.976
REMARK  2 active torsions:
REMARK  status: ('A' for Active; 'I' for Inactive)
REMARK    1  A    between atoms: C1_2  and  C2_3 
REMARK       I    between atoms: C1_2  and  N2_13 
REMARK    2  A    between atoms: N2_13  and  C10_14 
ROOT
HETATM    1  O1  UNL     1      23.071  -0.912  55.015  1.00  0.00    -0.269 OA
HETATM    2  C1  UNL     1      23.187  -0.576  53.814  1.00  0.00     0.243 C 
HETATM    3  N2  UNL     1      24.428  -0.519  53.159  1.00  0.00    -0.346 N 
HETATM    4  H8  UNL     1      24.624  -0.252  52.167  1.00  0.00     0.163 HD
ENDROOT
BRANCH   2   5
HETATM    5  C2  UNL     1      22.015  -0.232  53.050  1.00  0.00     0.100 C 
HETATM    6  C3  UNL     1      22.382   0.889  52.498  1.00  0.00     0.027 C 
HETATM    7  C4  UNL     1      23.229   2.067  52.133  1.00  0.00     0.099 C 
HETATM    8  N1  UNL     1      21.457   1.623  51.600  1.00  0.00    -0.358 N 
HETATM    9  C5  UNL     1      22.695   1.538  50.755  1.00  0.00     0.144 C 
HETATM   10  C9  UNL     1      22.740   3.456  52.332  1.00  0.00     0.023 C 
HETATM   11  C8  UNL     1      21.681   4.272  52.003  1.00  0.00     0.021 C 
HETATM   12 CL1  UNL     1      23.794   4.528  53.291  1.00  0.00    -0.088 Cl
HETATM   13  C7  UNL     1      20.398   3.661  51.463  1.00  0.00     0.019 C 
HETATM   14  C6  UNL     1      20.159   2.286  51.440  1.00  0.00     0.091 C 
ENDBRANCH   2   5
BRANCH   3  15
HETATM   15  C10 UNL     1      25.673  -0.840  53.821  1.00  0.00     0.131 C 
HETATM   16  C11 UNL     1      26.584  -1.603  52.949  1.00  0.00     0.002 C 
HETATM   17  C12 UNL     1      27.870  -1.772  52.708  1.00  0.00    -0.002 C 
HETATM   18  C13 UNL     1      28.921  -1.046  53.451  1.00  0.00    -0.000 C 
HETATM   19  C14 UNL     1      28.805   0.042  54.230  1.00  0.00    -0.000 C 
HETATM   20  C15 UNL     1      27.580   0.806  54.551  1.00  0.00    -0.002 C 
HETATM   21  C16 UNL     1      26.364   0.345  54.340  1.00  0.00     0.002 C 
ENDBRANCH   3  15
TORSDOF 2
ENDMDL
MODEL 8
REMARK VINA RESULT:      -7.1      2.278      2.816
REMARK  2 active torsions:
REMARK  status: ('A' for Active; 'I' for Inactive)
REMARK    1  A    between atoms: C1_2  and  C2_3 
REMARK       I    between atoms: C1_2  and  N2_13 
REMARK    2  A    between atoms: N2_13  and  C10_14 
ROOT
HETATM    1  O1  UNL     1      23.537  -0.537  53.324  1.00  0.00    -0.269 OA
HETATM    2  C1  UNL     1      23.932   0.651  53.358  1.00  0.00     0.243 C 
HETATM    3  N2  UNL     1      25.240   1.006  53.727  1.00  0.00    -0.346 N 
HETATM    4  H8  UNL     1      25.659   1.963  53.785  1.00  0.00     0.163 HD
ENDROOT
BRANCH   2   5
HETATM    5  C2  UNL     1      23.028   1.718  53.007  1.00  0.00     0.100 C 
HETATM    6  C3  UNL     1      23.423   2.008  51.801  1.00  0.00     0.027 C 
HETATM    7  C4  UNL     1      24.207   1.964  50.527  1.00  0.00     0.099 C 
HETATM    8  N1  UNL     1      22.755   3.086  51.029  1.00  0.00    -0.358 N 
HETATM    9  C5  UNL     1      22.709   1.944  50.056  1.00  0.00     0.144 C 
HETATM   10  C9  UNL     1      24.862   3.182  49.983  1.00  0.00     0.023 C 
HETATM   11  C8  UNL     1      24.569   4.475  49.613  1.00  0.00     0.021 C 
HETATM   12 CL1  UNL     1      26.607   3.049  49.644  1.00  0.00    -0.088 Cl
HETATM   13  C7  UNL     1      23.254   5.104  50.045  1.00  0.00     0.019 C 
HETATM   14  C6  UNL     1      22.384   4.503  50.956  1.00  0.00     0.091 C 
ENDBRANCH   2   5
BRANCH   3  15
HETATM   15  C10 UNL     1      26.235   0.026  54.101  1.00  0.00     0.131 C 
HETATM   16  C11 UNL     1      26.454  -0.974  53.040  1.00  0.00     0.002 C 
HETATM   17  C12 UNL     1      27.405  -1.731  52.526  1.00  0.00    -0.002 C 
HETATM   18  C13 UNL     1      28.790  -1.726  53.039  1.00  0.00    -0.000 C 
HETATM   19  C14 UNL     1      29.390  -0.833  53.844  1.00  0.00    -0.000 C 
HETATM   20  C15 UNL     1      28.811   0.394  54.434  1.00  0.00    -0.002 C 
HETATM   21  C16 UNL     1      27.516   0.631  54.480  1.00  0.00     0.002 C 
ENDBRANCH   3  15
TORSDOF 2
ENDMDL
MODEL 9
REMARK VINA RESULT:      -6.9      4.191      5.820
REMARK  2 active torsions:
REMARK  status: ('A' for Active; 'I' for Inactive)
REMARK    1  A    between atoms: C1_2  and  C2_3 
REMARK       I    between atoms: C1_2  and  N2_13 
REMARK    2  A    between atoms: N2_13  and  C10_14 
ROOT
HETATM    1  O1  UNL     1      22.861   5.998  49.973  1.00  0.00    -0.269 OA
HETATM    2  C1  UNL     1      23.650   5.382  50.725  1.00  0.00     0.243 C 
HETATM    3  N2  UNL     1      25.044   5.418  50.556  1.00  0.00    -0.346 N 
HETATM    4  H8  UNL     1      25.777   4.940  51.129  1.00  0.00     0.163 HD
ENDROOT
BRANCH   2   5
HETATM    5  C2  UNL     1      23.133   4.597  51.819  1.00  0.00     0.100 C 
HETATM    6  C3  UNL     1      23.120   3.403  51.301  1.00  0.00     0.027 C 
HETATM    7  C4  UNL     1      23.289   2.298  50.307  1.00  0.00     0.099 C 
HETATM    8  N1  UNL     1      22.645   2.243  52.096  1.00  0.00    -0.358 N 
HETATM    9  C5  UNL     1      23.975   1.751  51.608  1.00  0.00     0.144 C 
HETATM   10  C9  UNL     1      22.158   1.403  49.952  1.00  0.00     0.023 C 
HETATM   11  C8  UNL     1      21.235   0.567  50.538  1.00  0.00     0.021 C 
HETATM   12 CL1  UNL     1      21.776   1.273  48.215  1.00  0.00    -0.088 Cl
HETATM   13  C7  UNL     1      20.999   0.637  52.038  1.00  0.00     0.019 C 
HETATM   14  C6  UNL     1      21.546   1.632  52.850  1.00  0.00     0.091 C 
ENDBRANCH   2   5
BRANCH   3  15
HETATM   15  C10 UNL     1      25.679   6.168  49.496  1.00  0.00     0.131 C 
HETATM   16  C11 UNL     1      26.111   7.504  49.945  1.00  0.00     0.002 C 
HETATM   17  C12 UNL     1      27.057   8.400  49.735  1.00  0.00    -0.002 C 
HETATM   18  C13 UNL     1      28.150   8.189  48.764  1.00  0.00    -0.000 C 
HETATM   19  C14 UNL     1      28.548   7.049  48.175  1.00  0.00    -0.000 C 
HETATM   20  C15 UNL     1      27.988   5.691  48.347  1.00  0.00    -0.002 C 
HETATM   21  C16 UNL     1      26.815   5.458  48.897  1.00  0.00     0.002 C 
ENDBRANCH   3  15
TORSDOF 2
ENDMDL
