MODEL 1
REMARK VINA RESULT:      -7.3      0.000      0.000
REMARK  8 active torsions:
REMARK  status: ('A' for Active; 'I' for Inactive)
REMARK    1  A    between atoms: C1_2  and  N1_3 
REMARK    2  A    between atoms: N1_3  and  C2_4 
REMARK       I    between atoms: N1_3  and  C10_14 
REMARK    3  A    between atoms: C3_5  and  C4_6 
REMARK    4  A    between atoms: C4_6  and  N2_7 
REMARK    5  A    between atoms: N2_7  and  C5_8 
REMARK    6  A    between atoms: C5_8  and  C6_9 
REMARK    7  A    between atoms: C6_9  and  C7_10 
REMARK       I    between atoms: C10_14  and  N3_16 
REMARK    8  A    between atoms: N3_16  and  C11_17 
ROOT
HETATM    1  N1  UNL     1      23.510  -0.409  53.826  1.00  0.00    -0.263 N 
HETATM    2  C10 UNL     1      24.802  -0.739  54.314  1.00  0.00     0.332 C 
HETATM    3  O2  UNL     1      25.309  -1.272  55.312  1.00  0.00    -0.246 OA
HETATM    4  N3  UNL     1      25.832  -0.348  53.402  1.00  0.00    -0.308 N 
HETATM    5  H13 UNL     1      25.663   0.130  52.472  1.00  0.00     0.170 HD
ENDROOT
BRANCH   1   6
HETATM    6  C1  UNL     1      22.624  -0.858  54.843  1.00  0.00     0.485 C 
HETATM    7  O1  UNL     1      21.897  -1.866  55.036  1.00  0.00    -0.391 OA
ENDBRANCH   1   6
BRANCH   1   8
HETATM    8  C2  UNL     1      22.743   0.168  52.779  1.00  0.00     0.101 C 
HETATM    9  C3  UNL     1      22.987   1.376  52.329  1.00  0.00     0.020 C 
BRANCH   9  10
HETATM   10  C4  UNL     1      22.048   1.731  51.244  1.00  0.00     0.298 C 
BRANCH  10  11
HETATM   11  N2  UNL     1      22.710   2.206  50.071  1.00  0.00     0.086 N 
HETATM   12  H6  UNL     1      22.341   1.798  49.190  1.00  0.00     0.316 HD
BRANCH  11  13
HETATM   13  C5  UNL     1      22.751   3.649  50.031  1.00  0.00     0.271 C 
BRANCH  13  14
HETATM   14  C6  UNL     1      24.139   4.215  50.186  1.00  0.00     0.044 C 
BRANCH  14  15
HETATM   15  C7  UNL     1      25.177   3.272  49.630  1.00  0.00     0.056 A 
HETATM   16  C8  UNL     1      26.400   3.073  50.463  1.00  0.00     0.003 A 
HETATM   17  C9  UNL     1      26.505   3.889  49.374  1.00  0.00     0.016 A 
HETATM   18 CL1  UNL     1      27.757   4.848  48.609  1.00  0.00    -0.088 Cl
ENDBRANCH  14  15
ENDBRANCH  13  14
ENDBRANCH  11  13
ENDBRANCH  10  11
ENDBRANCH   9  10
ENDBRANCH   1   8
BRANCH   4  19
HETATM   19  C11 UNL     1      27.259  -0.483  53.485  1.00  0.00     0.036 A 
HETATM   20  C12 UNL     1      28.023   0.565  53.963  1.00  0.00     0.029 A 
HETATM   21  C13 UNL     1      29.402   0.354  54.011  1.00  0.00     0.002 A 
HETATM   22  C14 UNL     1      29.962  -0.858  53.595  1.00  0.00     0.000 A 
HETATM   23  C15 UNL     1      29.137  -1.861  53.128  1.00  0.00     0.002 A 
HETATM   24  C16 UNL     1      27.770  -1.692  53.064  1.00  0.00     0.029 A 
ENDBRANCH   4  19
TORSDOF 8
ENDMDL
MODEL 2
REMARK VINA RESULT:      -7.2      0.951      1.471
REMARK  8 active torsions:
REMARK  status: ('A' for Active; 'I' for Inactive)
REMARK    1  A    between atoms: C1_2  and  N1_3 
REMARK    2  A    between atoms: N1_3  and  C2_4 
REMARK       I    between atoms: N1_3  and  C10_14 
REMARK    3  A    between atoms: C3_5  and  C4_6 
REMARK    4  A    between atoms: C4_6  and  N2_7 
REMARK    5  A    between atoms: N2_7  and  C5_8 
REMARK    6  A    between atoms: C5_8  and  C6_9 
REMARK    7  A    between atoms: C6_9  and  C7_10 
REMARK       I    between atoms: C10_14  and  N3_16 
REMARK    8  A    between atoms: N3_16  and  C11_17 
ROOT
HETATM    1  N1  UNL     1      23.404  -0.521  53.876  1.00  0.00    -0.263 N 
HETATM    2  C10 UNL     1      24.698  -0.827  54.376  1.00  0.00     0.332 C 
HETATM    3  O2  UNL     1      25.207  -1.319  55.394  1.00  0.00    -0.246 OA
HETATM    4  N3  UNL     1      25.725  -0.469  53.448  1.00  0.00    -0.308 N 
HETATM    5  H13 UNL     1      25.555  -0.029  52.501  1.00  0.00     0.170 HD
ENDROOT
BRANCH   1   6
HETATM    6  C1  UNL     1      22.520  -0.933  54.911  1.00  0.00     0.485 C 
HETATM    7  O1  UNL     1      21.957  -2.005  55.252  1.00  0.00    -0.391 OA
ENDBRANCH   1   6
BRANCH   1   8
HETATM    8  C2  UNL     1      22.635   0.011  52.808  1.00  0.00     0.101 C 
HETATM    9  C3  UNL     1      22.576   1.301  52.574  1.00  0.00     0.020 C 
BRANCH   9  10
HETATM   10  C4  UNL     1      21.711   1.585  51.411  1.00  0.00     0.298 C 
BRANCH  10  11
HETATM   11  N2  UNL     1      22.450   1.767  50.202  1.00  0.00     0.086 N 
HETATM   12  H6  UNL     1      22.149   1.138  49.431  1.00  0.00     0.316 HD
BRANCH  11  13
HETATM   13  C5  UNL     1      22.476   3.153  49.798  1.00  0.00     0.271 C 
BRANCH  13  14
HETATM   14  C6  UNL     1      23.705   3.526  49.010  1.00  0.00     0.044 C 
BRANCH  14  15
HETATM   15  C7  UNL     1      24.726   4.209  49.886  1.00  0.00     0.056 A 
HETATM   16  C8  UNL     1      26.120   4.263  49.355  1.00  0.00     0.003 A 
HETATM   17  C9  UNL     1      25.851   3.340  50.324  1.00  0.00     0.016 A 
HETATM   18 CL1  UNL     1      26.734   2.103  51.195  1.00  0.00    -0.088 Cl
ENDBRANCH  14  15
ENDBRANCH  13  14
ENDBRANCH  11  13
ENDBRANCH  10  11
ENDBRANCH   9  10
ENDBRANCH   1   8
BRANCH   4  19
HETATM   19  C11 UNL     1      27.153  -0.597  53.536  1.00  0.00     0.036 A 
HETATM   20  C12 UNL     1      27.777  -1.720  53.026  1.00  0.00     0.029 A 
HETATM   21  C13 UNL     1      29.166  -1.767  53.151  1.00  0.00     0.002 A 
HETATM   22  C14 UNL     1      29.872  -0.726  53.761  1.00  0.00     0.000 A 
HETATM   23  C15 UNL     1      29.182   0.366  54.248  1.00  0.00     0.002 A 
HETATM   24  C16 UNL     1      27.810   0.451  54.144  1.00  0.00     0.029 A 
ENDBRANCH   4  19
TORSDOF 8
ENDMDL
MODEL 3
REMARK VINA RESULT:      -6.9      3.973      5.550
REMARK  8 active torsions:
REMARK  status: ('A' for Active; 'I' for Inactive)
REMARK    1  A    between atoms: C1_2  and  N1_3 
REMARK    2  A    between atoms: N1_3  and  C2_4 
REMARK       I    between atoms: N1_3  and  C10_14 
REMARK    3  A    between atoms: C3_5  and  C4_6 
REMARK    4  A    between atoms: C4_6  and  N2_7 
REMARK    5  A    between atoms: N2_7  and  C5_8 
REMARK    6  A    between atoms: C5_8  and  C6_9 
REMARK    7  A    between atoms: C6_9  and  C7_10 
REMARK       I    between atoms: C10_14  and  N3_16 
REMARK    8  A    between atoms: N3_16  and  C11_17 
ROOT
HETATM    1  N1  UNL     1      23.320  -0.540  53.797  1.00  0.00    -0.263 N 
HETATM    2  C10 UNL     1      24.619  -0.763  54.327  1.00  0.00     0.332 C 
HETATM    3  O2  UNL     1      25.135  -1.200  55.366  1.00  0.00    -0.246 OA
HETATM    4  N3  UNL     1      25.642  -0.375  53.407  1.00  0.00    -0.308 N 
HETATM    5  H13 UNL     1      25.465   0.031  52.445  1.00  0.00     0.170 HD
ENDROOT
BRANCH   1   6
HETATM    6  C1  UNL     1      22.441  -0.973  54.828  1.00  0.00     0.485 C 
HETATM    7  O1  UNL     1      22.040  -2.077  55.278  1.00  0.00    -0.391 OA
ENDBRANCH   1   6
BRANCH   1   8
HETATM    8  C2  UNL     1      22.543  -0.079  52.702  1.00  0.00     0.101 C 
HETATM    9  C3  UNL     1      21.866   1.045  52.759  1.00  0.00     0.020 C 
BRANCH   9  10
HETATM   10  C4  UNL     1      21.148   1.289  51.491  1.00  0.00     0.298 C 
BRANCH  10  11
HETATM   11  N2  UNL     1      20.173   0.285  51.204  1.00  0.00     0.086 N 
HETATM   12  H6  UNL     1      20.520  -0.685  51.341  1.00  0.00     0.316 HD
BRANCH  11  13
HETATM   13  C5  UNL     1      18.936   0.528  51.908  1.00  0.00     0.271 C 
BRANCH  13  14
HETATM   14  C6  UNL     1      18.005  -0.657  51.915  1.00  0.00     0.044 C 
BRANCH  14  15
HETATM   15  C7  UNL     1      17.761  -1.150  53.319  1.00  0.00     0.056 A 
HETATM   16  C8  UNL     1      18.770  -2.105  53.866  1.00  0.00     0.003 A 
HETATM   17  C9  UNL     1      17.580  -2.621  53.439  1.00  0.00     0.016 A 
HETATM   18 CL1  UNL     1      16.833  -4.203  53.338  1.00  0.00    -0.088 Cl
ENDBRANCH  14  15
ENDBRANCH  13  14
ENDBRANCH  11  13
ENDBRANCH  10  11
ENDBRANCH   9  10
ENDBRANCH   1   8
BRANCH   4  19
HETATM   19  C11 UNL     1      27.073  -0.422  53.521  1.00  0.00     0.036 A 
HETATM   20  C12 UNL     1      27.767  -1.514  53.034  1.00  0.00     0.029 A 
HETATM   21  C13 UNL     1      29.154  -1.484  53.184  1.00  0.00     0.002 A 
HETATM   22  C14 UNL     1      29.790  -0.400  53.798  1.00  0.00     0.000 A 
HETATM   23  C15 UNL     1      29.032   0.656  54.261  1.00  0.00     0.002 A 
HETATM   24  C16 UNL     1      27.660   0.665  54.131  1.00  0.00     0.029 A 
ENDBRANCH   4  19
TORSDOF 8
ENDMDL
MODEL 4
REMARK VINA RESULT:      -6.4      2.840      3.818
REMARK  8 active torsions:
REMARK  status: ('A' for Active; 'I' for Inactive)
REMARK    1  A    between atoms: C1_2  and  N1_3 
REMARK    2  A    between atoms: N1_3  and  C2_4 
REMARK       I    between atoms: N1_3  and  C10_14 
REMARK    3  A    between atoms: C3_5  and  C4_6 
REMARK    4  A    between atoms: C4_6  and  N2_7 
REMARK    5  A    between atoms: N2_7  and  C5_8 
REMARK    6  A    between atoms: C5_8  and  C6_9 
REMARK    7  A    between atoms: C6_9  and  C7_10 
REMARK       I    between atoms: C10_14  and  N3_16 
REMARK    8  A    between atoms: N3_16  and  C11_17 
ROOT
HETATM    1  N1  UNL     1      22.503   3.277  51.815  1.00  0.00    -0.263 N 
HETATM    2  C10 UNL     1      23.151   2.168  52.421  1.00  0.00     0.332 C 
HETATM    3  O2  UNL     1      22.843   1.113  52.994  1.00  0.00    -0.246 OA
HETATM    4  N3  UNL     1      24.575   2.286  52.362  1.00  0.00    -0.308 N 
HETATM    5  H13 UNL     1      25.094   3.098  51.924  1.00  0.00     0.170 HD
ENDROOT
BRANCH   1   6
HETATM    6  C1  UNL     1      21.117   2.998  51.963  1.00  0.00     0.485 C 
HETATM    7  O1  UNL     1      20.241   3.183  52.847  1.00  0.00    -0.391 OA
ENDBRANCH   1   6
BRANCH   1   8
HETATM    8  C2  UNL     1      22.647   4.518  51.140  1.00  0.00     0.101 C 
HETATM    9  C3  UNL     1      22.905   5.631  51.787  1.00  0.00     0.020 C 
BRANCH   9  10
HETATM   10  C4  UNL     1      23.004   6.770  50.852  1.00  0.00     0.298 C 
BRANCH  10  11
HETATM   11  N2  UNL     1      23.934   7.764  51.286  1.00  0.00     0.086 N 
HETATM   12  H6  UNL     1      24.495   7.478  52.112  1.00  0.00     0.316 HD
BRANCH  11  13
HETATM   13  C5  UNL     1      24.761   8.230  50.198  1.00  0.00     0.271 C 
BRANCH  13  14
HETATM   14  C6  UNL     1      26.046   7.456  50.045  1.00  0.00     0.044 C 
BRANCH  14  15
HETATM   15  C7  UNL     1      25.986   6.532  48.855  1.00  0.00     0.056 A 
HETATM   16  C8  UNL     1      26.110   5.074  49.146  1.00  0.00     0.003 A 
HETATM   17  C9  UNL     1      27.208   5.710  48.643  1.00  0.00     0.016 A 
HETATM   18 CL1  UNL     1      28.849   5.282  48.205  1.00  0.00    -0.088 Cl
ENDBRANCH  14  15
ENDBRANCH  13  14
ENDBRANCH  11  13
ENDBRANCH  10  11
ENDBRANCH   9  10
ENDBRANCH   1   8
BRANCH   4  19
HETATM   19  C11 UNL     1      25.609   1.413  52.842  1.00  0.00     0.036 A 
HETATM   20  C12 UNL     1      26.120   1.586  54.115  1.00  0.00     0.029 A 
HETATM   21  C13 UNL     1      27.122   0.696  54.505  1.00  0.00     0.002 A 
HETATM   22  C14 UNL     1      27.572  -0.308  53.643  1.00  0.00     0.000 A 
HETATM   23  C15 UNL     1      27.015  -0.421  52.385  1.00  0.00     0.002 A 
HETATM   24  C16 UNL     1      26.023   0.437  51.962  1.00  0.00     0.029 A 
ENDBRANCH   4  19
TORSDOF 8
ENDMDL
MODEL 5
REMARK VINA RESULT:      -6.3      2.999      5.641
REMARK  8 active torsions:
REMARK  status: ('A' for Active; 'I' for Inactive)
REMARK    1  A    between atoms: C1_2  and  N1_3 
REMARK    2  A    between atoms: N1_3  and  C2_4 
REMARK       I    between atoms: N1_3  and  C10_14 
REMARK    3  A    between atoms: C3_5  and  C4_6 
REMARK    4  A    between atoms: C4_6  and  N2_7 
REMARK    5  A    between atoms: N2_7  and  C5_8 
REMARK    6  A    between atoms: C5_8  and  C6_9 
REMARK    7  A    between atoms: C6_9  and  C7_10 
REMARK       I    between atoms: C10_14  and  N3_16 
REMARK    8  A    between atoms: N3_16  and  C11_17 
ROOT
HETATM    1  N1  UNL     1      26.481   1.883  52.403  1.00  0.00    -0.263 N 
HETATM    2  C10 UNL     1      25.564   1.157  53.209  1.00  0.00     0.332 C 
HETATM    3  O2  UNL     1      25.549   0.579  54.306  1.00  0.00    -0.246 OA
HETATM    4  N3  UNL     1      24.279   1.051  52.591  1.00  0.00    -0.308 N 
HETATM    5  H13 UNL     1      24.029   1.459  51.647  1.00  0.00     0.170 HD
ENDROOT
BRANCH   1   6
HETATM    6  C1  UNL     1      27.685   1.888  53.157  1.00  0.00     0.485 C 
HETATM    7  O1  UNL     1      28.249   2.670  53.965  1.00  0.00    -0.391 OA
ENDBRANCH   1   6
BRANCH   1   8
HETATM    8  C2  UNL     1      26.701   2.588  51.190  1.00  0.00     0.101 C 
HETATM    9  C3  UNL     1      25.836   3.463  50.732  1.00  0.00     0.020 C 
BRANCH   9  10
HETATM   10  C4  UNL     1      26.306   4.048  49.460  1.00  0.00     0.298 C 
BRANCH  10  11
HETATM   11  N2  UNL     1      26.394   5.474  49.505  1.00  0.00     0.086 N 
HETATM   12  H6  UNL     1      26.661   5.847  50.437  1.00  0.00     0.316 HD
BRANCH  11  13
HETATM   13  C5  UNL     1      27.234   5.988  48.448  1.00  0.00     0.271 C 
BRANCH  13  14
HETATM   14  C6  UNL     1      28.597   5.348  48.400  1.00  0.00     0.044 C 
BRANCH  14  15
HETATM   15  C7  UNL     1      29.595   6.244  47.709  1.00  0.00     0.056 A 
HETATM   16  C8  UNL     1      30.987   5.718  47.597  1.00  0.00     0.003 A 
HETATM   17  C9  UNL     1      30.746   6.661  48.554  1.00  0.00     0.016 A 
HETATM   18 CL1  UNL     1      31.666   7.500  49.787  1.00  0.00    -0.088 Cl
ENDBRANCH  14  15
ENDBRANCH  13  14
ENDBRANCH  11  13
ENDBRANCH  10  11
ENDBRANCH   9  10
ENDBRANCH   1   8
BRANCH   4  19
HETATM   19  C11 UNL     1      23.072   0.414  53.040  1.00  0.00     0.036 A 
HETATM   20  C12 UNL     1      23.074  -0.937  53.331  1.00  0.00     0.029 A 
HETATM   21  C13 UNL     1      21.862  -1.479  53.761  1.00  0.00     0.002 A 
HETATM   22  C14 UNL     1      20.718  -0.683  53.884  1.00  0.00     0.000 A 
HETATM   23  C15 UNL     1      20.791   0.659  53.575  1.00  0.00     0.002 A 
HETATM   24  C16 UNL     1      21.969   1.233  53.148  1.00  0.00     0.029 A 
ENDBRANCH   4  19
TORSDOF 8
ENDMDL
MODEL 6
REMARK VINA RESULT:      -6.3      3.610      4.839
REMARK  8 active torsions:
REMARK  status: ('A' for Active; 'I' for Inactive)
REMARK    1  A    between atoms: C1_2  and  N1_3 
REMARK    2  A    between atoms: N1_3  and  C2_4 
REMARK       I    between atoms: N1_3  and  C10_14 
REMARK    3  A    between atoms: C3_5  and  C4_6 
REMARK    4  A    between atoms: C4_6  and  N2_7 
REMARK    5  A    between atoms: N2_7  and  C5_8 
REMARK    6  A    between atoms: C5_8  and  C6_9 
REMARK    7  A    between atoms: C6_9  and  C7_10 
REMARK       I    between atoms: C10_14  and  N3_16 
REMARK    8  A    between atoms: N3_16  and  C11_17 
ROOT
HETATM    1  N1  UNL     1      24.641   3.827  51.466  1.00  0.00    -0.263 N 
HETATM    2  C10 UNL     1      25.074   2.747  52.281  1.00  0.00     0.332 C 
HETATM    3  O2  UNL     1      24.587   1.930  53.076  1.00  0.00    -0.246 OA
HETATM    4  N3  UNL     1      26.482   2.523  52.163  1.00  0.00    -0.308 N 
HETATM    5  H13 UNL     1      27.132   3.087  51.546  1.00  0.00     0.170 HD
ENDROOT
BRANCH   1   6
HETATM    6  C1  UNL     1      23.242   3.908  51.706  1.00  0.00     0.485 C 
HETATM    7  O1  UNL     1      22.417   4.818  51.980  1.00  0.00    -0.391 OA
ENDBRANCH   1   6
BRANCH   1   8
HETATM    8  C2  UNL     1      25.002   4.837  50.537  1.00  0.00     0.101 C 
HETATM    9  C3  UNL     1      25.890   4.624  49.594  1.00  0.00     0.020 C 
BRANCH   9  10
HETATM   10  C4  UNL     1      26.080   5.834  48.769  1.00  0.00     0.298 C 
BRANCH  10  11
HETATM   11  N2  UNL     1      27.066   6.721  49.302  1.00  0.00     0.086 N 
HETATM   12  H6  UNL     1      27.396   6.456  50.250  1.00  0.00     0.316 HD
BRANCH  11  13
HETATM   13  C5  UNL     1      28.158   6.918  48.378  1.00  0.00     0.271 C 
BRANCH  13  14
HETATM   14  C6  UNL     1      29.019   5.694  48.195  1.00  0.00     0.044 C 
BRANCH  14  15
HETATM   15  C7  UNL     1      30.402   6.068  47.724  1.00  0.00     0.056 A 
HETATM   16  C8  UNL     1      31.540   5.518  48.519  1.00  0.00     0.003 A 
HETATM   17  C9  UNL     1      31.212   6.828  48.714  1.00  0.00     0.016 A 
HETATM   18 CL1  UNL     1      31.781   8.158  49.703  1.00  0.00    -0.088 Cl
ENDBRANCH  14  15
ENDBRANCH  13  14
ENDBRANCH  11  13
ENDBRANCH  10  11
ENDBRANCH   9  10
ENDBRANCH   1   8
BRANCH   4  19
HETATM   19  C11 UNL     1      27.333   1.553  52.794  1.00  0.00     0.036 A 
HETATM   20  C12 UNL     1      28.303   1.967  53.688  1.00  0.00     0.029 A 
HETATM   21  C13 UNL     1      29.088   0.963  54.257  1.00  0.00     0.002 A 
HETATM   22  C14 UNL     1      28.891  -0.381  53.928  1.00  0.00     0.000 A 
HETATM   23  C15 UNL     1      27.903  -0.721  53.027  1.00  0.00     0.002 A 
HETATM   24  C16 UNL     1      27.105   0.240  52.443  1.00  0.00     0.029 A 
ENDBRANCH   4  19
TORSDOF 8
ENDMDL
MODEL 7
REMARK VINA RESULT:      -6.1      4.869      6.641
REMARK  8 active torsions:
REMARK  status: ('A' for Active; 'I' for Inactive)
REMARK    1  A    between atoms: C1_2  and  N1_3 
REMARK    2  A    between atoms: N1_3  and  C2_4 
REMARK       I    between atoms: N1_3  and  C10_14 
REMARK    3  A    between atoms: C3_5  and  C4_6 
REMARK    4  A    between atoms: C4_6  and  N2_7 
REMARK    5  A    between atoms: N2_7  and  C5_8 
REMARK    6  A    between atoms: C5_8  and  C6_9 
REMARK    7  A    between atoms: C6_9  and  C7_10 
REMARK       I    between atoms: C10_14  and  N3_16 
REMARK    8  A    between atoms: N3_16  and  C11_17 
ROOT
HETATM    1  N1  UNL     1      25.691   4.729  49.826  1.00  0.00    -0.263 N 
HETATM    2  C10 UNL     1      25.501   3.606  50.674  1.00  0.00     0.332 C 
HETATM    3  O2  UNL     1      24.563   2.944  51.140  1.00  0.00    -0.246 OA
HETATM    4  N3  UNL     1      26.744   3.071  51.135  1.00  0.00    -0.308 N 
HETATM    5  H13 UNL     1      27.697   3.457  50.883  1.00  0.00     0.170 HD
ENDROOT
BRANCH   1   6
HETATM    6  C1  UNL     1      24.374   5.128  49.469  1.00  0.00     0.485 C 
HETATM    7  O1  UNL     1      23.562   6.015  49.834  1.00  0.00    -0.391 OA
ENDBRANCH   1   6
BRANCH   1   8
HETATM    8  C2  UNL     1      26.616   5.605  49.198  1.00  0.00     0.101 C 
HETATM    9  C3  UNL     1      27.691   5.157  48.593  1.00  0.00     0.020 C 
BRANCH   9  10
HETATM   10  C4  UNL     1      28.478   6.272  48.028  1.00  0.00     0.298 C 
BRANCH  10  11
HETATM   11  N2  UNL     1      29.395   6.836  48.968  1.00  0.00     0.086 N 
HETATM   12  H6  UNL     1      29.337   6.411  49.914  1.00  0.00     0.316 HD
BRANCH  11  13
HETATM   13  C5  UNL     1      30.745   6.845  48.454  1.00  0.00     0.271 C 
BRANCH  13  14
HETATM   14  C6  UNL     1      31.423   5.501  48.521  1.00  0.00     0.044 C 
BRANCH  14  15
HETATM   15  C7  UNL     1      32.599   5.438  47.578  1.00  0.00     0.056 A 
HETATM   16  C8  UNL     1      33.342   4.145  47.538  1.00  0.00     0.003 A 
HETATM   17  C9  UNL     1      33.908   5.174  48.234  1.00  0.00     0.016 A 
HETATM   18 CL1  UNL     1      35.366   5.440  49.168  1.00  0.00    -0.088 Cl
ENDBRANCH  14  15
ENDBRANCH  13  14
ENDBRANCH  11  13
ENDBRANCH  10  11
ENDBRANCH   9  10
ENDBRANCH   1   8
BRANCH   4  19
HETATM   19  C11 UNL     1      27.023   1.957  51.997  1.00  0.00     0.036 A 
HETATM   20  C12 UNL     1      26.562   0.696  51.664  1.00  0.00     0.029 A 
HETATM   21  C13 UNL     1      26.875  -0.332  52.554  1.00  0.00     0.002 A 
HETATM   22  C14 UNL     1      27.615  -0.083  53.714  1.00  0.00     0.000 A 
HETATM   23  C15 UNL     1      28.042   1.201  53.983  1.00  0.00     0.002 A 
HETATM   24  C16 UNL     1      27.754   2.245  53.129  1.00  0.00     0.029 A 
ENDBRANCH   4  19
TORSDOF 8
ENDMDL
MODEL 8
REMARK VINA RESULT:      -6.1      3.342      6.045
REMARK  8 active torsions:
REMARK  status: ('A' for Active; 'I' for Inactive)
REMARK    1  A    between atoms: C1_2  and  N1_3 
REMARK    2  A    between atoms: N1_3  and  C2_4 
REMARK       I    between atoms: N1_3  and  C10_14 
REMARK    3  A    between atoms: C3_5  and  C4_6 
REMARK    4  A    between atoms: C4_6  and  N2_7 
REMARK    5  A    between atoms: N2_7  and  C5_8 
REMARK    6  A    between atoms: C5_8  and  C6_9 
REMARK    7  A    between atoms: C6_9  and  C7_10 
REMARK       I    between atoms: C10_14  and  N3_16 
REMARK    8  A    between atoms: N3_16  and  C11_17 
ROOT
HETATM    1  N1  UNL     1      24.673   0.337  53.321  1.00  0.00    -0.263 N 
HETATM    2  C10 UNL     1      25.505   1.343  52.761  1.00  0.00     0.332 C 
HETATM    3  O2  UNL     1      26.644   1.804  52.926  1.00  0.00    -0.246 OA
HETATM    4  N3  UNL     1      24.855   2.037  51.693  1.00  0.00    -0.308 N 
HETATM    5  H13 UNL     1      23.873   1.835  51.353  1.00  0.00     0.170 HD
ENDROOT
BRANCH   1   6
HETATM    6  C1  UNL     1      25.465  -0.240  54.352  1.00  0.00     0.485 C 
HETATM    7  O1  UNL     1      26.429  -1.044  54.415  1.00  0.00    -0.391 OA
ENDBRANCH   1   6
BRANCH   1   8
HETATM    8  C2  UNL     1      23.416  -0.321  53.292  1.00  0.00     0.101 C 
HETATM    9  C3  UNL     1      22.911  -0.896  54.358  1.00  0.00     0.020 C 
BRANCH   9  10
HETATM   10  C4  UNL     1      21.600  -1.505  54.056  1.00  0.00     0.298 C 
BRANCH  10  11
HETATM   11  N2  UNL     1      20.502  -0.662  54.410  1.00  0.00     0.086 N 
HETATM   12  H6  UNL     1      20.782   0.309  54.651  1.00  0.00     0.316 HD
BRANCH  11  13
HETATM   13  C5  UNL     1      19.459  -0.699  53.412  1.00  0.00     0.271 C 
BRANCH  13  14
HETATM   14  C6  UNL     1      19.806   0.051  52.152  1.00  0.00     0.044 C 
BRANCH  14  15
HETATM   15  C7  UNL     1      18.578   0.304  51.314  1.00  0.00     0.056 A 
HETATM   16  C8  UNL     1      18.778   1.119  50.080  1.00  0.00     0.003 A 
HETATM   17  C9  UNL     1      18.215   1.738  51.158  1.00  0.00     0.016 A 
HETATM   18 CL1  UNL     1      17.612   3.337  51.547  1.00  0.00    -0.088 Cl
ENDBRANCH  14  15
ENDBRANCH  13  14
ENDBRANCH  11  13
ENDBRANCH  10  11
ENDBRANCH   9  10
ENDBRANCH   1   8
BRANCH   4  19
HETATM   19  C11 UNL     1      25.313   3.110  50.856  1.00  0.00     0.036 A 
HETATM   20  C12 UNL     1      26.422   2.930  50.050  1.00  0.00     0.029 A 
HETATM   21  C13 UNL     1      26.803   4.021  49.268  1.00  0.00     0.002 A 
HETATM   22  C14 UNL     1      26.090   5.224  49.311  1.00  0.00     0.000 A 
HETATM   23  C15 UNL     1      24.992   5.332  50.139  1.00  0.00     0.002 A 
HETATM   24  C16 UNL     1      24.583   4.277  50.928  1.00  0.00     0.029 A 
ENDBRANCH   4  19
TORSDOF 8
ENDMDL
MODEL 9
REMARK VINA RESULT:      -6.0      2.480      3.559
REMARK  8 active torsions:
REMARK  status: ('A' for Active; 'I' for Inactive)
REMARK    1  A    between atoms: C1_2  and  N1_3 
REMARK    2  A    between atoms: N1_3  and  C2_4 
REMARK       I    between atoms: N1_3  and  C10_14 
REMARK    3  A    between atoms: C3_5  and  C4_6 
REMARK    4  A    between atoms: C4_6  and  N2_7 
REMARK    5  A    between atoms: N2_7  and  C5_8 
REMARK    6  A    between atoms: C5_8  and  C6_9 
REMARK    7  A    between atoms: C6_9  and  C7_10 
REMARK       I    between atoms: C10_14  and  N3_16 
REMARK    8  A    between atoms: N3_16  and  C11_17 
ROOT
HETATM    1  N1  UNL     1      23.817   0.698  52.523  1.00  0.00    -0.263 N 
HETATM    2  C10 UNL     1      24.868   0.078  53.250  1.00  0.00     0.332 C 
HETATM    3  O2  UNL     1      25.020  -0.548  54.309  1.00  0.00    -0.246 OA
HETATM    4  N3  UNL     1      26.125   0.203  52.580  1.00  0.00    -0.308 N 
HETATM    5  H13 UNL     1      26.268   0.696  51.654  1.00  0.00     0.170 HD
ENDROOT
BRANCH   1   6
HETATM    6  C1  UNL     1      22.661   0.483  53.322  1.00  0.00     0.485 C 
HETATM    7  O1  UNL     1      21.515   0.992  53.420  1.00  0.00    -0.391 OA
ENDBRANCH   1   6
BRANCH   1   8
HETATM    8  C2  UNL     1      23.439   1.427  51.365  1.00  0.00     0.101 C 
HETATM    9  C3  UNL     1      24.066   2.521  51.001  1.00  0.00     0.020 C 
BRANCH   9  10
HETATM   10  C4  UNL     1      23.475   3.079  49.767  1.00  0.00     0.298 C 
BRANCH  10  11
HETATM   11  N2  UNL     1      23.340   4.501  49.811  1.00  0.00     0.086 N 
HETATM   12  H6  UNL     1      23.967   5.000  49.150  1.00  0.00     0.316 HD
BRANCH  11  13
HETATM   13  C5  UNL     1      21.961   4.908  49.669  1.00  0.00     0.271 C 
BRANCH  13  14
HETATM   14  C6  UNL     1      21.178   4.836  50.954  1.00  0.00     0.044 C 
BRANCH  14  15
HETATM   15  C7  UNL     1      19.846   4.160  50.742  1.00  0.00     0.056 A 
HETATM   16  C8  UNL     1      19.431   3.179  51.788  1.00  0.00     0.003 A 
HETATM   17  C9  UNL     1      19.913   2.680  50.613  1.00  0.00     0.016 A 
HETATM   18 CL1  UNL     1      20.211   1.098  49.919  1.00  0.00    -0.088 Cl
ENDBRANCH  14  15
ENDBRANCH  13  14
ENDBRANCH  11  13
ENDBRANCH  10  11
ENDBRANCH   9  10
ENDBRANCH   1   8
BRANCH   4  19
HETATM   19  C11 UNL     1      27.433  -0.265  52.945  1.00  0.00     0.036 A 
HETATM   20  C12 UNL     1      27.738  -1.609  52.835  1.00  0.00     0.029 A 
HETATM   21  C13 UNL     1      29.030  -1.983  53.210  1.00  0.00     0.002 A 
HETATM   22  C14 UNL     1      29.950  -1.036  53.670  1.00  0.00     0.000 A 
HETATM   23  C15 UNL     1      29.574   0.289  53.755  1.00  0.00     0.002 A 
HETATM   24  C16 UNL     1      28.309   0.699  53.394  1.00  0.00     0.029 A 
ENDBRANCH   4  19
TORSDOF 8
ENDMDL
