MODEL 1
REMARK VINA RESULT:      -8.5      0.000      0.000
REMARK  1 active torsions:
REMARK  status: ('A' for Active; 'I' for Inactive)
REMARK    1  A    between atoms: N3_13  and  C9_14 
ROOT
HETATM    1 CL1  UNL     1      26.091   7.569  49.820  1.00  0.00    -0.200 Cl
HETATM    2  C1  UNL     1      25.098   6.092  50.115  1.00  0.00     0.068 A 
HETATM    3  C2  UNL     1      26.131   6.421  49.251  1.00  0.00     0.117 A 
HETATM    4  C3  UNL     1      25.461   5.122  49.306  1.00  0.00     0.101 A 
HETATM    5  C4  UNL     1      24.925   4.092  49.330  1.00  0.00    -0.011 C 
HETATM    6  O1  UNL     1      24.287   2.917  49.373  1.00  0.00    -0.302 OA
HETATM    7  C5  UNL     1      22.820   2.965  49.594  1.00  0.00     0.218 C 
HETATM    8  C6  UNL     1      22.319   1.955  48.664  1.00  0.00     0.171 C 
HETATM    9  N1  UNL     1      21.311   0.972  48.524  1.00  0.00    -0.273 NA
HETATM   10  C7  UNL     1      20.508   0.940  49.685  1.00  0.00     0.223 C 
HETATM   11  N2  UNL     1      19.806   0.941  50.841  1.00  0.00    -0.264 NA
HETATM   12  C8  UNL     1      20.494   1.447  52.095  1.00  0.00     0.276 C 
HETATM   13  N3  UNL     1      21.781   1.967  51.711  1.00  0.00    -0.337 N 
HETATM   14  C15 UNL     1      22.525   3.005  51.003  1.00  0.00     0.355 C 
HETATM   15  N4  UNL     1      21.801   4.281  51.340  1.00  0.00     0.109 N 
HETATM   16  C16 UNL     1      22.697   5.113  52.179  1.00  0.00     0.278 C 
HETATM   17  C17 UNL     1      23.748   5.782  51.392  1.00  0.00     0.026 C 
HETATM   18  C18 UNL     1      24.499   6.991  51.157  1.00  0.00     0.024 C 
HETATM   19  H12 UNL     1      21.788   4.844  50.435  1.00  0.00     0.318 HD
ENDROOT
BRANCH  13  20
HETATM   20  C9  UNL     1      22.842   1.219  52.204  1.00  0.00     0.003 A 
HETATM   21  C10 UNL     1      22.188   0.351  53.296  1.00  0.00     0.051 A 
HETATM   22  C11 UNL     1      22.604  -0.697  54.264  1.00  0.00     0.011 A 
HETATM   23  C14 UNL     1      23.832   0.492  52.690  1.00  0.00     0.074 A 
HETATM   24  C12 UNL     1      23.842  -0.484  53.704  1.00  0.00     0.041 A 
HETATM   25  C13 UNL     1      24.995  -0.308  53.206  1.00  0.00    -0.018 A 
HETATM   26 BR1  UNL     1      26.664  -0.039  52.473  1.00  0.00    -0.059 Br
ENDBRANCH  13  20
TORSDOF 1
ENDMDL
MODEL 2
REMARK VINA RESULT:      -8.2      3.059      4.812
REMARK  1 active torsions:
REMARK  status: ('A' for Active; 'I' for Inactive)
REMARK    1  A    between atoms: N3_13  and  C9_14 
ROOT
HETATM    1 CL1  UNL     1      28.402   8.192  47.259  1.00  0.00    -0.200 Cl
HETATM    2  C1  UNL     1      27.230   7.089  48.073  1.00  0.00     0.068 A 
HETATM    3  C2  UNL     1      27.181   8.391  47.597  1.00  0.00     0.117 A 
HETATM    4  C3  UNL     1      26.072   7.688  48.243  1.00  0.00     0.101 A 
HETATM    5  C4  UNL     1      25.190   7.145  48.767  1.00  0.00    -0.011 C 
HETATM    6  O1  UNL     1      24.191   6.500  49.381  1.00  0.00    -0.302 OA
HETATM    7  C5  UNL     1      24.565   5.633  50.527  1.00  0.00     0.218 C 
HETATM    8  C6  UNL     1      23.516   5.916  51.503  1.00  0.00     0.171 C 
HETATM    9  N1  UNL     1      22.740   5.300  52.514  1.00  0.00    -0.273 NA
HETATM   10  C7  UNL     1      23.085   3.935  52.619  1.00  0.00     0.223 C 
HETATM   11  N2  UNL     1      23.442   2.630  52.637  1.00  0.00    -0.264 NA
HETATM   12  C8  UNL     1      24.032   2.033  51.375  1.00  0.00     0.276 C 
HETATM   13  N3  UNL     1      24.209   3.100  50.423  1.00  0.00    -0.337 N 
HETATM   14  C15 UNL     1      24.929   4.318  50.065  1.00  0.00     0.355 C 
HETATM   15  N4  UNL     1      26.362   4.026  50.422  1.00  0.00     0.109 N 
HETATM   16  C16 UNL     1      27.147   3.961  49.165  1.00  0.00     0.278 C 
HETATM   17  C17 UNL     1      27.436   5.295  48.610  1.00  0.00     0.026 C 
HETATM   18  C18 UNL     1      28.409   6.164  47.993  1.00  0.00     0.024 C 
HETATM   19  H12 UNL     1      26.734   4.929  50.849  1.00  0.00     0.318 HD
ENDROOT
BRANCH  13  20
HETATM   20  C9  UNL     1      23.375   2.991  49.319  1.00  0.00     0.003 A 
HETATM   21  C10 UNL     1      22.498   1.769  49.654  1.00  0.00     0.051 A 
HETATM   22  C11 UNL     1      21.383   1.012  49.030  1.00  0.00     0.011 A 
HETATM   23  C14 UNL     1      22.568   2.864  48.280  1.00  0.00     0.074 A 
HETATM   24  C12 UNL     1      21.546   1.932  48.021  1.00  0.00     0.041 A 
HETATM   25  C13 UNL     1      21.676   2.768  47.076  1.00  0.00    -0.018 A 
HETATM   26 BR1  UNL     1      21.877   3.988  45.710  1.00  0.00    -0.059 Br
ENDBRANCH  13  20
TORSDOF 1
ENDMDL
MODEL 3
REMARK VINA RESULT:      -7.6      8.427     12.075
REMARK  1 active torsions:
REMARK  status: ('A' for Active; 'I' for Inactive)
REMARK    1  A    between atoms: N3_13  and  C9_14 
ROOT
HETATM    1 CL1  UNL     1      26.714   5.887  48.777  1.00  0.00    -0.200 Cl
HETATM    2  C1  UNL     1      28.407   6.283  48.298  1.00  0.00     0.068 A 
HETATM    3  C2  UNL     1      27.718   5.114  48.582  1.00  0.00     0.117 A 
HETATM    4  C3  UNL     1      29.130   5.189  48.208  1.00  0.00     0.101 A 
HETATM    5  C4  UNL     1      30.256   5.238  47.927  1.00  0.00    -0.011 C 
HETATM    6  O1  UNL     1      31.552   5.322  47.608  1.00  0.00    -0.302 OA
HETATM    7  C5  UNL     1      32.305   6.465  48.183  1.00  0.00     0.218 C 
HETATM    8  C6  UNL     1      33.572   5.853  48.577  1.00  0.00     0.171 C 
HETATM    9  N1  UNL     1      34.959   6.122  48.666  1.00  0.00    -0.273 NA
HETATM   10  C7  UNL     1      35.224   7.431  48.208  1.00  0.00     0.223 C 
HETATM   11  N2  UNL     1      35.406   8.680  47.722  1.00  0.00    -0.264 NA
HETATM   12  C8  UNL     1      34.377   9.227  46.752  1.00  0.00     0.276 C 
HETATM   13  N3  UNL     1      33.301   8.273  46.667  1.00  0.00    -0.337 N 
HETATM   14  C15 UNL     1      32.178   7.626  47.340  1.00  0.00     0.355 C 
HETATM   15  N4  UNL     1      31.502   8.739  48.097  1.00  0.00     0.109 N 
HETATM   16  C16 UNL     1      30.170   8.969  47.487  1.00  0.00     0.278 C 
HETATM   17  C17 UNL     1      29.184   7.948  47.880  1.00  0.00     0.026 C 
HETATM   18  C18 UNL     1      27.832   7.669  48.298  1.00  0.00     0.024 C 
HETATM   19  H12 UNL     1      31.226   8.314  49.034  1.00  0.00     0.318 HD
ENDROOT
BRANCH  13  20
HETATM   20  C9  UNL     1      33.208   7.662  45.424  1.00  0.00     0.003 A 
HETATM   21  C10 UNL     1      32.476   8.712  44.566  1.00  0.00     0.051 A 
HETATM   22  C11 UNL     1      32.009   8.853  43.163  1.00  0.00     0.011 A 
HETATM   23  C14 UNL     1      33.106   7.105  44.230  1.00  0.00     0.074 A 
HETATM   24  C12 UNL     1      32.538   7.590  43.037  1.00  0.00     0.041 A 
HETATM   25  C13 UNL     1      33.019   6.425  42.894  1.00  0.00    -0.018 A 
HETATM   26 BR1  UNL     1      33.720   4.732  42.701  1.00  0.00    -0.059 Br
ENDBRANCH  13  20
TORSDOF 1
ENDMDL
MODEL 4
REMARK VINA RESULT:      -7.6      3.222      5.596
REMARK  1 active torsions:
REMARK  status: ('A' for Active; 'I' for Inactive)
REMARK    1  A    between atoms: N3_13  and  C9_14 
ROOT
HETATM    1 CL1  UNL     1      26.662  -0.141  52.773  1.00  0.00    -0.200 Cl
HETATM    2  C1  UNL     1      25.666   1.206  52.103  1.00  0.00     0.068 A 
HETATM    3  C2  UNL     1      26.968   0.763  51.917  1.00  0.00     0.117 A 
HETATM    4  C3  UNL     1      26.365   1.915  51.244  1.00  0.00     0.101 A 
HETATM    5  C4  UNL     1      25.902   2.839  50.717  1.00  0.00    -0.011 C 
HETATM    6  O1  UNL     1      25.348   3.905  50.127  1.00  0.00    -0.302 OA
HETATM    7  C5  UNL     1      24.451   4.738  50.968  1.00  0.00     0.218 C 
HETATM    8  C6  UNL     1      24.824   6.098  50.590  1.00  0.00     0.171 C 
HETATM    9  N1  UNL     1      24.279   7.390  50.397  1.00  0.00    -0.273 NA
HETATM   10  C7  UNL     1      22.889   7.365  50.641  1.00  0.00     0.223 C 
HETATM   11  N2  UNL     1      21.558   7.257  50.857  1.00  0.00    -0.264 NA
HETATM   12  C8  UNL     1      20.911   5.898  50.670  1.00  0.00     0.276 C 
HETATM   13  N3  UNL     1      21.959   4.943  50.416  1.00  0.00    -0.337 N 
HETATM   14  C15 UNL     1      23.109   4.214  50.942  1.00  0.00     0.355 C 
HETATM   15  N4  UNL     1      22.691   3.803  52.328  1.00  0.00     0.109 N 
HETATM   16  C16 UNL     1      22.558   2.326  52.352  1.00  0.00     0.278 C 
HETATM   17  C17 UNL     1      23.861   1.642  52.417  1.00  0.00     0.026 C 
HETATM   18  C18 UNL     1      24.641   0.577  53.000  1.00  0.00     0.024 C 
HETATM   19  H12 UNL     1      23.557   3.939  52.935  1.00  0.00     0.318 HD
ENDROOT
BRANCH  13  20
HETATM   20  C9  UNL     1      21.925   4.424  49.129  1.00  0.00     0.003 A 
HETATM   21  C10 UNL     1      21.941   2.901  49.360  1.00  0.00     0.051 A 
HETATM   22  C11 UNL     1      21.912   1.664  48.538  1.00  0.00     0.011 A 
HETATM   23  C14 UNL     1      21.892   3.902  47.916  1.00  0.00     0.074 A 
HETATM   24  C12 UNL     1      21.882   2.559  47.495  1.00  0.00     0.041 A 
HETATM   25  C13 UNL     1      21.853   3.363  46.514  1.00  0.00    -0.018 A 
HETATM   26 BR1  UNL     1      21.813   4.544  45.100  1.00  0.00    -0.059 Br
ENDBRANCH  13  20
TORSDOF 1
ENDMDL
MODEL 5
REMARK VINA RESULT:      -7.1      3.252      5.610
REMARK  1 active torsions:
REMARK  status: ('A' for Active; 'I' for Inactive)
REMARK    1  A    between atoms: N3_13  and  C9_14 
ROOT
HETATM    1 CL1  UNL     1      16.250   2.344  50.140  1.00  0.00    -0.200 Cl
HETATM    2  C1  UNL     1      18.023   2.577  50.370  1.00  0.00     0.068 A 
HETATM    3  C2  UNL     1      16.895   2.825  51.138  1.00  0.00     0.117 A 
HETATM    4  C3  UNL     1      18.272   3.108  51.547  1.00  0.00     0.101 A 
HETATM    5  C4  UNL     1      19.359   3.351  51.875  1.00  0.00    -0.011 C 
HETATM    6  O1  UNL     1      20.619   3.629  52.227  1.00  0.00    -0.302 OA
HETATM    7  C5  UNL     1      21.507   4.153  51.158  1.00  0.00     0.218 C 
HETATM    8  C6  UNL     1      22.246   5.212  51.841  1.00  0.00     0.171 C 
HETATM    9  N1  UNL     1      23.518   5.830  51.890  1.00  0.00    -0.273 NA
HETATM   10  C7  UNL     1      24.388   5.208  50.967  1.00  0.00     0.223 C 
HETATM   11  N2  UNL     1      25.173   4.542  50.090  1.00  0.00    -0.264 NA
HETATM   12  C8  UNL     1      24.807   3.111  49.747  1.00  0.00     0.276 C 
HETATM   13  N3  UNL     1      23.547   2.815  50.378  1.00  0.00    -0.337 N 
HETATM   14  C15 UNL     1      22.109   3.067  50.428  1.00  0.00     0.355 C 
HETATM   15  N4  UNL     1      21.688   3.122  48.984  1.00  0.00     0.109 N 
HETATM   16  C16 UNL     1      20.822   1.950  48.710  1.00  0.00     0.278 C 
HETATM   17  C17 UNL     1      19.456   2.121  49.235  1.00  0.00     0.026 C 
HETATM   18  C18 UNL     1      18.042   1.956  49.004  1.00  0.00     0.024 C 
HETATM   19  H12 UNL     1      20.980   3.917  48.929  1.00  0.00     0.318 HD
ENDROOT
BRANCH  13  20
HETATM   20  C9  UNL     1      23.651   1.870  51.390  1.00  0.00     0.003 A 
HETATM   21  C10 UNL     1      25.165   1.597  51.468  1.00  0.00     0.051 A 
HETATM   22  C11 UNL     1      26.091   0.754  52.268  1.00  0.00     0.011 A 
HETATM   23  C14 UNL     1      23.779   0.971  52.350  1.00  0.00     0.074 A 
HETATM   24  C12 UNL     1      24.926   0.345  52.873  1.00  0.00     0.041 A 
HETATM   25  C13 UNL     1      23.867  -0.050  53.449  1.00  0.00    -0.018 A 
HETATM   26 BR1  UNL     1      22.320  -0.615  54.274  1.00  0.00    -0.059 Br
ENDBRANCH  13  20
TORSDOF 1
ENDMDL
MODEL 6
REMARK VINA RESULT:      -7.1      3.354      6.231
REMARK  1 active torsions:
REMARK  status: ('A' for Active; 'I' for Inactive)
REMARK    1  A    between atoms: N3_13  and  C9_14 
ROOT
HETATM    1 CL1  UNL     1      18.977  -0.268  52.393  1.00  0.00    -0.200 Cl
HETATM    2  C1  UNL     1      19.965   1.070  51.694  1.00  0.00     0.068 A 
HETATM    3  C2  UNL     1      19.625   0.671  52.978  1.00  0.00     0.117 A 
HETATM    4  C3  UNL     1      20.462   1.825  52.648  1.00  0.00     0.101 A 
HETATM    5  C4  UNL     1      21.115   2.752  52.397  1.00  0.00    -0.011 C 
HETATM    6  O1  UNL     1      21.857   3.819  52.082  1.00  0.00    -0.302 OA
HETATM    7  C5  UNL     1      21.430   4.599  50.893  1.00  0.00     0.218 C 
HETATM    8  C6  UNL     1      21.604   5.981  51.333  1.00  0.00     0.171 C 
HETATM    9  N1  UNL     1      21.977   7.262  50.860  1.00  0.00    -0.273 NA
HETATM   10  C7  UNL     1      22.306   7.190  49.489  1.00  0.00     0.223 C 
HETATM   11  N2  UNL     1      22.640   7.037  48.187  1.00  0.00    -0.264 NA
HETATM   12  C8  UNL     1      23.091   5.667  47.721  1.00  0.00     0.276 C 
HETATM   13  N3  UNL     1      22.924   4.750  48.819  1.00  0.00    -0.337 N 
HETATM   14  C15 UNL     1      21.996   4.038  49.694  1.00  0.00     0.355 C 
HETATM   15  N4  UNL     1      20.898   3.572  48.776  1.00  0.00     0.109 N 
HETATM   16  C16 UNL     1      20.954   2.092  48.701  1.00  0.00     0.278 C 
HETATM   17  C17 UNL     1      20.388   1.444  49.897  1.00  0.00     0.026 C 
HETATM   18  C18 UNL     1      19.561   0.385  50.421  1.00  0.00     0.024 C 
HETATM   19  H12 UNL     1      19.995   3.715  49.324  1.00  0.00     0.318 HD
ENDROOT
BRANCH  13  20
HETATM   20  C9  UNL     1      24.127   4.271  49.320  1.00  0.00     0.003 A 
HETATM   21  C10 UNL     1      25.167   5.252  48.747  1.00  0.00     0.051 A 
HETATM   22  C11 UNL     1      26.638   5.454  48.806  1.00  0.00     0.011 A 
HETATM   23  C14 UNL     1      25.286   3.837  49.783  1.00  0.00     0.074 A 
HETATM   24  C12 UNL     1      26.590   4.333  49.601  1.00  0.00     0.041 A 
HETATM   25  C13 UNL     1      26.575   3.301  50.337  1.00  0.00    -0.018 A 
HETATM   26 BR1  UNL     1      26.537   1.799  51.404  1.00  0.00    -0.059 Br
ENDBRANCH  13  20
TORSDOF 1
ENDMDL
MODEL 7
REMARK VINA RESULT:      -7.0      8.597     11.188
REMARK  1 active torsions:
REMARK  status: ('A' for Active; 'I' for Inactive)
REMARK    1  A    between atoms: N3_13  and  C9_14 
ROOT
HETATM    1 CL1  UNL     1      33.844   3.205  46.140  1.00  0.00    -0.200 Cl
HETATM    2  C1  UNL     1      32.993   4.747  46.528  1.00  0.00     0.068 A 
HETATM    3  C2  UNL     1      33.616   4.229  45.403  1.00  0.00     0.117 A 
HETATM    4  C3  UNL     1      32.978   5.543  45.482  1.00  0.00     0.101 A 
HETATM    5  C4  UNL     1      32.489   6.595  45.539  1.00  0.00    -0.011 C 
HETATM    6  O1  UNL     1      31.925   7.804  45.632  1.00  0.00    -0.302 OA
HETATM    7  C5  UNL     1      32.124   8.534  46.910  1.00  0.00     0.218 C 
HETATM    8  C6  UNL     1      32.384   9.901  46.465  1.00  0.00     0.171 C 
HETATM    9  N1  UNL     1      32.161  11.251  46.825  1.00  0.00    -0.273 NA
HETATM   10  C7  UNL     1      31.423  11.311  48.028  1.00  0.00     0.223 C 
HETATM   11  N2  UNL     1      30.684  11.289  49.161  1.00  0.00    -0.264 NA
HETATM   12  C8  UNL     1      29.837  10.063  49.440  1.00  0.00     0.276 C 
HETATM   13  N3  UNL     1      30.136   9.082  48.428  1.00  0.00    -0.337 N 
HETATM   14  C15 UNL     1      31.115   8.156  47.866  1.00  0.00     0.355 C 
HETATM   15  N4  UNL     1      31.760   7.518  49.068  1.00  0.00     0.109 N 
HETATM   16  C16 UNL     1      31.376   6.086  49.092  1.00  0.00     0.278 C 
HETATM   17  C17 UNL     1      32.131   5.282  48.116  1.00  0.00     0.026 C 
HETATM   18  C18 UNL     1      32.838   4.053  47.850  1.00  0.00     0.024 C 
HETATM   19  H12 UNL     1      32.796   7.448  48.826  1.00  0.00     0.318 HD
ENDROOT
BRANCH  13  20
HETATM   20  C9  UNL     1      29.070   8.836  47.573  1.00  0.00     0.003 A 
HETATM   21  C10 UNL     1      28.081   8.049  48.455  1.00  0.00     0.051 A 
HETATM   22  C11 UNL     1      26.734   7.437  48.321  1.00  0.00     0.011 A 
HETATM   23  C14 UNL     1      28.040   8.589  46.782  1.00  0.00     0.074 A 
HETATM   24  C12 UNL     1      26.833   7.910  47.033  1.00  0.00     0.041 A 
HETATM   25  C13 UNL     1      26.898   8.336  45.840  1.00  0.00    -0.018 A 
HETATM   26 BR1  UNL     1      27.007   8.959  44.110  1.00  0.00    -0.059 Br
ENDBRANCH  13  20
TORSDOF 1
ENDMDL
MODEL 8
REMARK VINA RESULT:      -7.0      7.448      9.802
REMARK  1 active torsions:
REMARK  status: ('A' for Active; 'I' for Inactive)
REMARK    1  A    between atoms: N3_13  and  C9_14 
ROOT
HETATM    1 CL1  UNL     1      34.210   6.526  48.566  1.00  0.00    -0.200 Cl
HETATM    2  C1  UNL     1      32.469   6.983  48.439  1.00  0.00     0.068 A 
HETATM    3  C2  UNL     1      33.658   7.683  48.581  1.00  0.00     0.117 A 
HETATM    4  C3  UNL     1      32.328   8.288  48.500  1.00  0.00     0.101 A 
HETATM    5  C4  UNL     1      31.277   8.778  48.454  1.00  0.00    -0.011 C 
HETATM    6  O1  UNL     1      30.054   9.318  48.405  1.00  0.00    -0.302 OA
HETATM    7  C5  UNL     1      28.976   8.587  49.118  1.00  0.00     0.218 C 
HETATM    8  C6  UNL     1      28.227   9.664  49.762  1.00  0.00     0.171 C 
HETATM    9  N1  UNL     1      26.913  10.041  50.130  1.00  0.00    -0.273 NA
HETATM   10  C7  UNL     1      25.998   9.043  49.732  1.00  0.00     0.223 C 
HETATM   11  N2  UNL     1      25.177   8.062  49.290  1.00  0.00    -0.264 NA
HETATM   12  C8  UNL     1      25.647   7.206  48.130  1.00  0.00     0.276 C 
HETATM   13  N3  UNL     1      27.006   7.576  47.831  1.00  0.00    -0.337 N 
HETATM   14  C15 UNL     1      28.401   7.580  48.264  1.00  0.00     0.355 C 
HETATM   15  N4  UNL     1      28.612   6.216  48.864  1.00  0.00     0.109 N 
HETATM   16  C16 UNL     1      29.555   5.469  47.996  1.00  0.00     0.278 C 
HETATM   17  C17 UNL     1      30.952   5.895  48.183  1.00  0.00     0.026 C 
HETATM   18  C18 UNL     1      32.332   5.493  48.319  1.00  0.00     0.024 C 
HETATM   19  H12 UNL     1      29.215   6.379  49.727  1.00  0.00     0.318 HD
ENDROOT
BRANCH  13  20
HETATM   20  C9  UNL     1      27.146   8.195  46.597  1.00  0.00     0.003 A 
HETATM   21  C10 UNL     1      25.715   8.176  46.025  1.00  0.00     0.051 A 
HETATM   22  C11 UNL     1      25.015   8.635  44.798  1.00  0.00     0.011 A 
HETATM   23  C14 UNL     1      27.249   8.783  45.418  1.00  0.00     0.074 A 
HETATM   24  C12 UNL     1      26.274   9.057  44.441  1.00  0.00     0.041 A 
HETATM   25  C13 UNL     1      27.424   9.457  44.087  1.00  0.00    -0.018 A 
HETATM   26 BR1  UNL     1      29.101  10.032  43.586  1.00  0.00    -0.059 Br
ENDBRANCH  13  20
TORSDOF 1
ENDMDL
MODEL 9
REMARK VINA RESULT:      -6.9      3.408      4.963
REMARK  1 active torsions:
REMARK  status: ('A' for Active; 'I' for Inactive)
REMARK    1  A    between atoms: N3_13  and  C9_14 
ROOT
HETATM    1 CL1  UNL     1      18.691   4.623  46.771  1.00  0.00    -0.200 Cl
HETATM    2  C1  UNL     1      19.745   4.002  48.097  1.00  0.00     0.068 A 
HETATM    3  C2  UNL     1      18.659   4.862  48.030  1.00  0.00     0.117 A 
HETATM    4  C3  UNL     1      19.374   4.501  49.255  1.00  0.00     0.101 A 
HETATM    5  C4  UNL     1      19.943   4.233  50.231  1.00  0.00    -0.011 C 
HETATM    6  O1  UNL     1      20.620   3.915  51.340  1.00  0.00    -0.302 OA
HETATM    7  C5  UNL     1      22.095   3.799  51.208  1.00  0.00     0.218 C 
HETATM    8  C6  UNL     1      22.581   4.453  52.420  1.00  0.00     0.171 C 
HETATM    9  N1  UNL     1      23.613   4.383  53.386  1.00  0.00    -0.273 NA
HETATM   10  C7  UNL     1      24.473   3.302  53.092  1.00  0.00     0.223 C 
HETATM   11  N2  UNL     1      25.231   2.230  52.768  1.00  0.00    -0.264 NA
HETATM   12  C8  UNL     1      24.591   1.120  51.957  1.00  0.00     0.276 C 
HETATM   13  N3  UNL     1      23.270   1.554  51.582  1.00  0.00    -0.337 N 
HETATM   14  C15 UNL     1      22.458   2.470  50.785  1.00  0.00     0.355 C 
HETATM   15  N4  UNL     1      23.156   2.528  49.453  1.00  0.00     0.109 N 
HETATM   16  C16 UNL     1      22.276   1.891  48.443  1.00  0.00     0.278 C 
HETATM   17  C17 UNL     1      21.166   2.767  48.029  1.00  0.00     0.026 C 
HETATM   18  C18 UNL     1      20.365   3.273  46.941  1.00  0.00     0.024 C 
HETATM   19  H12 UNL     1      23.105   3.549  49.153  1.00  0.00     0.318 HD
ENDROOT
BRANCH  13  20
HETATM   20  C9  UNL     1      22.260   0.821  52.190  1.00  0.00     0.003 A 
HETATM   21  C10 UNL     1      22.991   0.089  53.333  1.00  0.00     0.051 A 
HETATM   22  C11 UNL     1      22.651  -0.854  54.429  1.00  0.00     0.011 A 
HETATM   23  C14 UNL     1      21.319   0.113  52.790  1.00  0.00     0.074 A 
HETATM   24  C12 UNL     1      21.386  -0.748  53.900  1.00  0.00     0.041 A 
HETATM   25  C13 UNL     1      20.209  -0.670  53.433  1.00  0.00    -0.018 A 
HETATM   26 BR1  UNL     1      18.506  -0.546  52.741  1.00  0.00    -0.059 Br
ENDBRANCH  13  20
TORSDOF 1
ENDMDL
