MODEL 1
REMARK VINA RESULT:      -8.1      0.000      0.000
REMARK  7 active torsions:
REMARK  status: ('A' for Active; 'I' for Inactive)
REMARK    1  A    between atoms: O1_2  and  C2_3 
REMARK    2  A    between atoms: C2_3  and  C3_4 
REMARK    3  A    between atoms: C5_6  and  C6_7 
REMARK    4  A    between atoms: C6_7  and  C7_8 
REMARK    5  A    between atoms: N2_10  and  C8_11 
REMARK    6  A    between atoms: C8_11  and  S1_12 
REMARK    7  A    between atoms: C12_18  and  C13_19 
ROOT
HETATM    1  C7  UNL     1      22.761  -0.298  53.786  1.00  0.00     0.065 A 
HETATM    2  N1  UNL     1      21.947  -1.031  53.068  1.00  0.00    -0.182 NA
HETATM    3  N2  UNL     1      21.447   0.150  52.528  1.00  0.00    -0.281 N 
HETATM    4  C12 UNL     1      22.323   1.024  53.262  1.00  0.00     0.188 A 
ENDROOT
BRANCH   1   5
HETATM    5  C6  UNL     1      23.770  -0.780  54.764  1.00  0.00     0.097 C 
BRANCH   5   6
HETATM    6  C5  UNL     1      25.151  -0.643  54.234  1.00  0.00    -0.056 A 
HETATM    7  C4  UNL     1      26.281  -0.065  54.939  1.00  0.00     0.012 A 
HETATM    8  C3  UNL     1      27.398  -0.050  54.275  1.00  0.00    -0.052 A 
HETATM    9  C20 UNL     1      27.082  -0.670  52.957  1.00  0.00     0.064 A 
HETATM   10  C19 UNL     1      25.646  -0.994  53.061  1.00  0.00    -0.015 A 
BRANCH   8  11
HETATM   11  C2  UNL     1      28.810   0.353  54.374  1.00  0.00     0.201 C 
BRANCH  11  12
HETATM   12  O1  UNL     1      29.000   1.684  54.644  1.00  0.00    -0.392 OA
HETATM   13  C1  UNL     1      28.694   2.549  53.614  1.00  0.00     0.201 C 
ENDBRANCH  11  12
ENDBRANCH   8  11
ENDBRANCH   5   6
ENDBRANCH   1   5
BRANCH   4  14
HETATM   14  C13 UNL     1      23.287   1.712  52.382  1.00  0.00    -0.028 A 
HETATM   15  C14 UNL     1      24.399   2.406  52.874  1.00  0.00     0.011 A 
HETATM   16  C15 UNL     1      25.330   3.054  52.100  1.00  0.00     0.019 A 
HETATM   17  C16 UNL     1      25.201   3.049  50.732  1.00  0.00     0.011 A 
HETATM   18 BR1  UNL     1      26.460   3.930  49.625  1.00  0.00    -0.051 Br
HETATM   19  C17 UNL     1      24.142   2.393  50.178  1.00  0.00     0.019 A 
HETATM   20  C18 UNL     1      23.242   1.762  51.005  1.00  0.00     0.011 A 
ENDBRANCH   4  14
BRANCH   3  21
HETATM   21  C8  UNL     1      20.367   0.052  51.564  1.00  0.00     0.233 C 
BRANCH  21  22
HETATM   22  S1  UNL     1      19.415   1.582  51.720  1.00  0.00    -0.056 SA
HETATM   23  N3  UNL     1      19.822   3.062  52.372  1.00  0.00    -0.025 NA
HETATM   24  O2  UNL     1      18.673   3.796  52.188  1.00  0.00    -0.237 OA
HETATM   25  C9  UNL     1      17.624   3.208  51.595  1.00  0.00     0.075 A 
HETATM   26  C10 UNL     1      16.324   3.939  51.351  1.00  0.00     0.079 C 
HETATM   27  C11 UNL     1      17.675   1.963  51.195  1.00  0.00     0.089 A 
ENDBRANCH  21  22
ENDBRANCH   3  21
TORSDOF 7
ENDMDL
MODEL 2
REMARK VINA RESULT:      -8.1      3.603      7.828
REMARK  7 active torsions:
REMARK  status: ('A' for Active; 'I' for Inactive)
REMARK    1  A    between atoms: O1_2  and  C2_3 
REMARK    2  A    between atoms: C2_3  and  C3_4 
REMARK    3  A    between atoms: C5_6  and  C6_7 
REMARK    4  A    between atoms: C6_7  and  C7_8 
REMARK    5  A    between atoms: N2_10  and  C8_11 
REMARK    6  A    between atoms: C8_11  and  S1_12 
REMARK    7  A    between atoms: C12_18  and  C13_19 
ROOT
HETATM    1  C7  UNL     1      23.464   1.740  51.241  1.00  0.00     0.065 A 
HETATM    2  N1  UNL     1      23.338   1.972  52.524  1.00  0.00    -0.182 NA
HETATM    3  N2  UNL     1      24.715   2.168  52.568  1.00  0.00    -0.281 N 
HETATM    4  C12 UNL     1      24.935   1.951  51.163  1.00  0.00     0.188 A 
ENDROOT
BRANCH   1   5
HETATM    5  C6  UNL     1      22.380   1.404  50.283  1.00  0.00     0.097 C 
BRANCH   5   6
HETATM    6  C5  UNL     1      22.066   2.550  49.391  1.00  0.00    -0.056 A 
HETATM    7  C4  UNL     1      22.493   2.698  48.011  1.00  0.00     0.012 A 
HETATM    8  C3  UNL     1      22.098   3.789  47.424  1.00  0.00    -0.052 A 
HETATM    9  C20 UNL     1      21.306   4.525  48.451  1.00  0.00     0.064 A 
HETATM   10  C19 UNL     1      21.365   3.644  49.633  1.00  0.00    -0.015 A 
BRANCH   8  11
HETATM   11  C2  UNL     1      22.162   4.517  46.147  1.00  0.00     0.201 C 
BRANCH  11  12
HETATM   12  O1  UNL     1      22.005   3.726  45.038  1.00  0.00    -0.392 OA
HETATM   13  C1  UNL     1      20.850   3.938  44.315  1.00  0.00     0.201 C 
ENDBRANCH  11  12
ENDBRANCH   8  11
ENDBRANCH   5   6
ENDBRANCH   1   5
BRANCH   4  14
HETATM   14  C13 UNL     1      25.367   3.181  50.472  1.00  0.00    -0.028 A 
HETATM   15  C14 UNL     1      26.492   3.225  49.638  1.00  0.00     0.011 A 
HETATM   16  C15 UNL     1      26.932   4.338  48.966  1.00  0.00     0.019 A 
HETATM   17  C16 UNL     1      26.248   5.523  49.090  1.00  0.00     0.011 A 
HETATM   18 BR1  UNL     1      26.819   7.084  48.181  1.00  0.00    -0.051 Br
HETATM   19  C17 UNL     1      25.141   5.559  49.885  1.00  0.00     0.019 A 
HETATM   20  C18 UNL     1      24.749   4.411  50.534  1.00  0.00     0.011 A 
ENDBRANCH   4  14
BRANCH   3  21
HETATM   21  C8  UNL     1      25.317   2.467  53.854  1.00  0.00     0.233 C 
BRANCH  21  22
HETATM   22  S1  UNL     1      26.601   1.220  54.109  1.00  0.00    -0.056 SA
HETATM   23  N3  UNL     1      26.675  -0.076  55.158  1.00  0.00    -0.025 NA
HETATM   24  O2  UNL     1      27.900  -0.627  54.864  1.00  0.00    -0.237 OA
HETATM   25  C9  UNL     1      28.652  -0.054  53.913  1.00  0.00     0.075 A 
HETATM   26  C10 UNL     1      30.010  -0.594  53.526  1.00  0.00     0.079 C 
HETATM   27  C11 UNL     1      28.243   1.009  53.268  1.00  0.00     0.089 A 
ENDBRANCH  21  22
ENDBRANCH   3  21
TORSDOF 7
ENDMDL
MODEL 3
REMARK VINA RESULT:      -8.0      3.701      6.616
REMARK  7 active torsions:
REMARK  status: ('A' for Active; 'I' for Inactive)
REMARK    1  A    between atoms: O1_2  and  C2_3 
REMARK    2  A    between atoms: C2_3  and  C3_4 
REMARK    3  A    between atoms: C5_6  and  C6_7 
REMARK    4  A    between atoms: C6_7  and  C7_8 
REMARK    5  A    between atoms: N2_10  and  C8_11 
REMARK    6  A    between atoms: C8_11  and  S1_12 
REMARK    7  A    between atoms: C12_18  and  C13_19 
ROOT
HETATM    1  C7  UNL     1      22.642   2.439  50.393  1.00  0.00     0.065 A 
HETATM    2  N1  UNL     1      22.950   3.428  49.591  1.00  0.00    -0.182 NA
HETATM    3  N2  UNL     1      23.495   4.081  50.693  1.00  0.00    -0.281 N 
HETATM    4  C12 UNL     1      23.214   3.029  51.635  1.00  0.00     0.188 A 
ENDROOT
BRANCH   1   5
HETATM    5  C6  UNL     1      21.953   1.175  50.029  1.00  0.00     0.097 C 
BRANCH   5   6
HETATM    6  C5  UNL     1      21.275   0.567  51.203  1.00  0.00    -0.056 A 
HETATM    7  C4  UNL     1      21.918  -0.205  52.253  1.00  0.00     0.012 A 
HETATM    8  C3  UNL     1      21.122  -0.641  53.184  1.00  0.00    -0.052 A 
HETATM    9  C20 UNL     1      19.765  -0.156  52.801  1.00  0.00     0.064 A 
HETATM   10  C19 UNL     1      20.000   0.583  51.546  1.00  0.00    -0.015 A 
BRANCH   8  11
HETATM   11  C2  UNL     1      21.102  -1.417  54.433  1.00  0.00     0.201 C 
BRANCH  11  12
HETATM   12  O1  UNL     1      21.930  -0.932  55.412  1.00  0.00    -0.392 OA
HETATM   13  C1  UNL     1      23.198  -1.474  55.440  1.00  0.00     0.201 C 
ENDBRANCH  11  12
ENDBRANCH   8  11
ENDBRANCH   5   6
ENDBRANCH   1   5
BRANCH   4  14
HETATM   14  C13 UNL     1      24.444   2.388  52.136  1.00  0.00    -0.028 A 
HETATM   15  C14 UNL     1      25.023   2.723  53.367  1.00  0.00     0.011 A 
HETATM   16  C15 UNL     1      26.160   2.152  53.884  1.00  0.00     0.019 A 
HETATM   17  C16 UNL     1      26.814   1.174  53.175  1.00  0.00     0.011 A 
HETATM   18 BR1  UNL     1      28.386   0.360  53.850  1.00  0.00    -0.051 Br
HETATM   19  C17 UNL     1      26.310   0.794  51.967  1.00  0.00     0.019 A 
HETATM   20  C18 UNL     1      25.167   1.403  51.501  1.00  0.00     0.011 A 
ENDBRANCH   4  14
BRANCH   3  21
HETATM   21  C8  UNL     1      24.056   5.403  50.491  1.00  0.00     0.233 C 
BRANCH  21  22
HETATM   22  S1  UNL     1      25.661   5.152  49.697  1.00  0.00    -0.056 SA
HETATM   23  N3  UNL     1      26.547   3.763  49.436  1.00  0.00    -0.025 NA
HETATM   24  O2  UNL     1      27.665   4.240  48.793  1.00  0.00    -0.237 OA
HETATM   25  C9  UNL     1      27.760   5.556  48.558  1.00  0.00     0.075 A 
HETATM   26  C10 UNL     1      28.952   6.166  47.857  1.00  0.00     0.079 C 
HETATM   27  C11 UNL     1      26.816   6.385  48.928  1.00  0.00     0.089 A 
ENDBRANCH  21  22
ENDBRANCH   3  21
TORSDOF 7
ENDMDL
MODEL 4
REMARK VINA RESULT:      -7.9      3.388      5.243
REMARK  7 active torsions:
REMARK  status: ('A' for Active; 'I' for Inactive)
REMARK    1  A    between atoms: O1_2  and  C2_3 
REMARK    2  A    between atoms: C2_3  and  C3_4 
REMARK    3  A    between atoms: C5_6  and  C6_7 
REMARK    4  A    between atoms: C6_7  and  C7_8 
REMARK    5  A    between atoms: N2_10  and  C8_11 
REMARK    6  A    between atoms: C8_11  and  S1_12 
REMARK    7  A    between atoms: C12_18  and  C13_19 
ROOT
HETATM    1  C7  UNL     1      23.269   0.713  52.881  1.00  0.00     0.065 A 
HETATM    2  N1  UNL     1      23.406   1.994  53.120  1.00  0.00    -0.182 NA
HETATM    3  N2  UNL     1      22.630   2.233  51.989  1.00  0.00    -0.281 N 
HETATM    4  C12 UNL     1      22.412   0.846  51.671  1.00  0.00     0.188 A 
ENDROOT
BRANCH   1   5
HETATM    5  C6  UNL     1      23.835  -0.409  53.672  1.00  0.00     0.097 C 
BRANCH   5   6
HETATM    6  C5  UNL     1      25.317  -0.444  53.584  1.00  0.00    -0.056 A 
HETATM    7  C4  UNL     1      26.241   0.203  54.500  1.00  0.00     0.012 A 
HETATM    8  C3  UNL     1      27.500   0.036  54.225  1.00  0.00    -0.052 A 
HETATM    9  C20 UNL     1      27.527  -0.811  52.997  1.00  0.00     0.064 A 
HETATM   10  C19 UNL     1      26.099  -1.038  52.701  1.00  0.00    -0.015 A 
BRANCH   8  11
HETATM   11  C2  UNL     1      28.853   0.380  54.690  1.00  0.00     0.201 C 
BRANCH  11  12
HETATM   12  O1  UNL     1      29.072   1.725  54.840  1.00  0.00    -0.392 OA
HETATM   13  C1  UNL     1      28.912   2.485  53.700  1.00  0.00     0.201 C 
ENDBRANCH  11  12
ENDBRANCH   8  11
ENDBRANCH   5   6
ENDBRANCH   1   5
BRANCH   4  14
HETATM   14  C13 UNL     1      21.001   0.453  51.844  1.00  0.00    -0.028 A 
HETATM   15  C14 UNL     1      20.024   0.695  50.869  1.00  0.00     0.011 A 
HETATM   16  C15 UNL     1      18.701   0.342  50.975  1.00  0.00     0.019 A 
HETATM   17  C16 UNL     1      18.256  -0.300  52.105  1.00  0.00     0.011 A 
HETATM   18 BR1  UNL     1      16.440  -0.806  52.294  1.00  0.00    -0.051 Br
HETATM   19  C17 UNL     1      19.149  -0.571  53.099  1.00  0.00     0.019 A 
HETATM   20  C18 UNL     1      20.462  -0.192  52.935  1.00  0.00     0.011 A 
ENDBRANCH   4  14
BRANCH   3  21
HETATM   21  C8  UNL     1      22.384   3.612  51.614  1.00  0.00     0.233 C 
BRANCH  21  22
HETATM   22  S1  UNL     1      23.799   4.120  50.610  1.00  0.00    -0.056 SA
HETATM   23  N3  UNL     1      24.820   3.236  49.631  1.00  0.00    -0.025 NA
HETATM   24  O2  UNL     1      25.682   4.196  49.155  1.00  0.00    -0.237 OA
HETATM   25  C9  UNL     1      25.510   5.466  49.548  1.00  0.00     0.075 A 
HETATM   26  C10 UNL     1      26.409   6.585  49.074  1.00  0.00     0.079 C 
HETATM   27  C11 UNL     1      24.547   5.803  50.369  1.00  0.00     0.089 A 
ENDBRANCH  21  22
ENDBRANCH   3  21
TORSDOF 7
ENDMDL
MODEL 5
REMARK VINA RESULT:      -7.7      2.651      4.080
REMARK  7 active torsions:
REMARK  status: ('A' for Active; 'I' for Inactive)
REMARK    1  A    between atoms: O1_2  and  C2_3 
REMARK    2  A    between atoms: C2_3  and  C3_4 
REMARK    3  A    between atoms: C5_6  and  C6_7 
REMARK    4  A    between atoms: C6_7  and  C7_8 
REMARK    5  A    between atoms: N2_10  and  C8_11 
REMARK    6  A    between atoms: C8_11  and  S1_12 
REMARK    7  A    between atoms: C12_18  and  C13_19 
ROOT
HETATM    1  C7  UNL     1      24.915   3.438  50.272  1.00  0.00     0.065 A 
HETATM    2  N1  UNL     1      24.659   4.650  50.699  1.00  0.00    -0.182 NA
HETATM    3  N2  UNL     1      23.307   4.365  50.531  1.00  0.00    -0.281 N 
HETATM    4  C12 UNL     1      23.503   3.013  50.077  1.00  0.00     0.188 A 
ENDROOT
BRANCH   1   5
HETATM    5  C6  UNL     1      26.252   2.813  50.107  1.00  0.00     0.097 C 
BRANCH   5   6
HETATM    6  C5  UNL     1      26.643   2.035  51.310  1.00  0.00    -0.056 A 
HETATM    7  C4  UNL     1      26.620   0.588  51.434  1.00  0.00     0.012 A 
HETATM    8  C3  UNL     1      27.006   0.125  52.585  1.00  0.00    -0.052 A 
HETATM    9  C20 UNL     1      27.349   1.328  53.398  1.00  0.00     0.064 A 
HETATM   10  C19 UNL     1      27.076   2.454  52.486  1.00  0.00    -0.015 A 
BRANCH   8  11
HETATM   11  C2  UNL     1      27.212  -1.126  53.332  1.00  0.00     0.201 C 
BRANCH  11  12
HETATM   12  O1  UNL     1      28.379  -1.169  54.050  1.00  0.00    -0.392 OA
HETATM   13  C1  UNL     1      29.501  -1.540  53.338  1.00  0.00     0.201 C 
ENDBRANCH  11  12
ENDBRANCH   8  11
ENDBRANCH   5   6
ENDBRANCH   1   5
BRANCH   4  14
HETATM   14  C13 UNL     1      22.995   2.023  51.046  1.00  0.00    -0.028 A 
HETATM   15  C14 UNL     1      22.053   1.045  50.703  1.00  0.00     0.011 A 
HETATM   16  C15 UNL     1      21.555   0.096  51.562  1.00  0.00     0.019 A 
HETATM   17  C16 UNL     1      21.985   0.065  52.867  1.00  0.00     0.011 A 
HETATM   18 BR1  UNL     1      21.325  -1.227  54.086  1.00  0.00    -0.051 Br
HETATM   19  C17 UNL     1      22.903   0.986  53.274  1.00  0.00     0.019 A 
HETATM   20  C18 UNL     1      23.365   1.913  52.368  1.00  0.00     0.011 A 
ENDBRANCH   4  14
BRANCH   3  21
HETATM   21  C8  UNL     1      22.350   5.412  50.832  1.00  0.00     0.233 C 
BRANCH  21  22
HETATM   22  S1  UNL     1      20.783   4.576  51.173  1.00  0.00    -0.056 SA
HETATM   23  N3  UNL     1      20.291   3.666  52.482  1.00  0.00    -0.025 NA
HETATM   24  O2  UNL     1      19.006   3.317  52.136  1.00  0.00    -0.237 OA
HETATM   25  C9  UNL     1      18.517   3.745  50.964  1.00  0.00     0.075 A 
HETATM   26  C10 UNL     1      17.117   3.410  50.504  1.00  0.00     0.079 C 
HETATM   27  C11 UNL     1      19.235   4.481  50.152  1.00  0.00     0.089 A 
ENDBRANCH  21  22
ENDBRANCH   3  21
TORSDOF 7
ENDMDL
MODEL 6
REMARK VINA RESULT:      -7.6      4.030      7.405
REMARK  7 active torsions:
REMARK  status: ('A' for Active; 'I' for Inactive)
REMARK    1  A    between atoms: O1_2  and  C2_3 
REMARK    2  A    between atoms: C2_3  and  C3_4 
REMARK    3  A    between atoms: C5_6  and  C6_7 
REMARK    4  A    between atoms: C6_7  and  C7_8 
REMARK    5  A    between atoms: N2_10  and  C8_11 
REMARK    6  A    between atoms: C8_11  and  S1_12 
REMARK    7  A    between atoms: C12_18  and  C13_19 
ROOT
HETATM    1  C7  UNL     1      25.006   3.065  50.974  1.00  0.00     0.065 A 
HETATM    2  N1  UNL     1      25.991   2.479  51.607  1.00  0.00    -0.182 NA
HETATM    3  N2  UNL     1      25.261   2.639  52.781  1.00  0.00    -0.281 N 
HETATM    4  C12 UNL     1      24.126   3.268  52.157  1.00  0.00     0.188 A 
ENDROOT
BRANCH   1   5
HETATM    5  C6  UNL     1      24.923   3.351  49.519  1.00  0.00     0.097 C 
BRANCH   5   6
HETATM    6  C5  UNL     1      25.829   4.462  49.130  1.00  0.00    -0.056 A 
HETATM    7  C4  UNL     1      27.252   4.347  48.862  1.00  0.00     0.012 A 
HETATM    8  C3  UNL     1      27.845   5.458  48.537  1.00  0.00    -0.052 A 
HETATM    9  C20 UNL     1      26.776   6.497  48.562  1.00  0.00     0.064 A 
HETATM   10  C19 UNL     1      25.567   5.744  48.948  1.00  0.00    -0.015 A 
BRANCH   8  11
HETATM   11  C2  UNL     1      29.154   6.018  48.169  1.00  0.00     0.201 C 
BRANCH  11  12
HETATM   12  O1  UNL     1      30.226   5.312  48.651  1.00  0.00    -0.392 OA
HETATM   13  C1  UNL     1      31.225   5.049  47.737  1.00  0.00     0.201 C 
ENDBRANCH  11  12
ENDBRANCH   8  11
ENDBRANCH   5   6
ENDBRANCH   1   5
BRANCH   4  14
HETATM   14  C13 UNL     1      22.922   2.418  52.210  1.00  0.00    -0.028 A 
HETATM   15  C14 UNL     1      21.625   2.945  52.268  1.00  0.00     0.011 A 
HETATM   16  C15 UNL     1      20.473   2.201  52.309  1.00  0.00     0.019 A 
HETATM   17  C16 UNL     1      20.547   0.829  52.294  1.00  0.00     0.011 A 
HETATM   18 BR1  UNL     1      18.983  -0.238  52.349  1.00  0.00    -0.051 Br
HETATM   19  C17 UNL     1      21.776   0.241  52.237  1.00  0.00     0.019 A 
HETATM   20  C18 UNL     1      22.895   1.040  52.198  1.00  0.00     0.011 A 
ENDBRANCH   4  14
BRANCH   3  21
HETATM   21  C8  UNL     1      25.856   2.177  54.020  1.00  0.00     0.233 C 
BRANCH  21  22
HETATM   22  S1  UNL     1      26.555   0.548  53.664  1.00  0.00    -0.056 SA
HETATM   23  N3  UNL     1      25.819  -0.895  53.267  1.00  0.00    -0.025 NA
HETATM   24  O2  UNL     1      26.889  -1.747  53.125  1.00  0.00    -0.237 OA
HETATM   25  C9  UNL     1      28.125  -1.264  53.317  1.00  0.00     0.075 A 
HETATM   26  C10 UNL     1      29.358  -2.128  53.180  1.00  0.00     0.079 C 
HETATM   27  C11 UNL     1      28.326  -0.010  53.635  1.00  0.00     0.089 A 
ENDBRANCH  21  22
ENDBRANCH   3  21
TORSDOF 7
ENDMDL
MODEL 7
REMARK VINA RESULT:      -7.6      2.826      3.703
REMARK  7 active torsions:
REMARK  status: ('A' for Active; 'I' for Inactive)
REMARK    1  A    between atoms: O1_2  and  C2_3 
REMARK    2  A    between atoms: C2_3  and  C3_4 
REMARK    3  A    between atoms: C5_6  and  C6_7 
REMARK    4  A    between atoms: C6_7  and  C7_8 
REMARK    5  A    between atoms: N2_10  and  C8_11 
REMARK    6  A    between atoms: C8_11  and  S1_12 
REMARK    7  A    between atoms: C12_18  and  C13_19 
ROOT
HETATM    1  C7  UNL     1      23.209   2.780  51.008  1.00  0.00     0.065 A 
HETATM    2  N1  UNL     1      22.777   1.829  50.218  1.00  0.00    -0.182 NA
HETATM    3  N2  UNL     1      22.755   2.766  49.190  1.00  0.00    -0.281 N 
HETATM    4  C12 UNL     1      23.250   3.859  49.984  1.00  0.00     0.188 A 
ENDROOT
BRANCH   1   5
HETATM    5  C6  UNL     1      23.535   2.663  52.452  1.00  0.00     0.097 C 
BRANCH   5   6
HETATM    6  C5  UNL     1      24.336   1.444  52.733  1.00  0.00    -0.056 A 
HETATM    7  C4  UNL     1      25.757   1.281  52.482  1.00  0.00     0.012 A 
HETATM    8  C3  UNL     1      26.247   0.122  52.809  1.00  0.00    -0.052 A 
HETATM    9  C20 UNL     1      25.094  -0.654  53.352  1.00  0.00     0.064 A 
HETATM   10  C19 UNL     1      23.962   0.286  53.247  1.00  0.00    -0.015 A 
BRANCH   8  11
HETATM   11  C2  UNL     1      27.496  -0.656  52.825  1.00  0.00     0.201 C 
BRANCH  11  12
HETATM   12  O1  UNL     1      27.974  -0.929  54.080  1.00  0.00    -0.392 OA
HETATM   13  C1  UNL     1      28.876  -0.016  54.585  1.00  0.00     0.201 C 
ENDBRANCH  11  12
ENDBRANCH   8  11
ENDBRANCH   5   6
ENDBRANCH   1   5
BRANCH   4  14
HETATM   14  C13 UNL     1      24.598   4.287  49.562  1.00  0.00    -0.028 A 
HETATM   15  C14 UNL     1      24.860   5.565  49.053  1.00  0.00     0.011 A 
HETATM   16  C15 UNL     1      26.095   6.016  48.655  1.00  0.00     0.019 A 
HETATM   17  C16 UNL     1      27.185   5.185  48.744  1.00  0.00     0.011 A 
HETATM   18 BR1  UNL     1      28.906   5.765  48.206  1.00  0.00    -0.051 Br
HETATM   19  C17 UNL     1      27.008   3.924  49.231  1.00  0.00     0.019 A 
HETATM   20  C18 UNL     1      25.747   3.529  49.613  1.00  0.00     0.011 A 
ENDBRANCH   4  14
BRANCH   3  21
HETATM   21  C8  UNL     1      22.291   2.333  47.886  1.00  0.00     0.233 C 
BRANCH  21  22
HETATM   22  S1  UNL     1      20.524   2.715  47.829  1.00  0.00    -0.056 SA
HETATM   23  N3  UNL     1      19.564   3.268  46.582  1.00  0.00    -0.025 NA
HETATM   24  O2  UNL     1      18.327   3.357  47.176  1.00  0.00    -0.237 OA
HETATM   25  C9  UNL     1      18.207   3.016  48.467  1.00  0.00     0.075 A 
HETATM   26  C10 UNL     1      16.886   3.082  49.199  1.00  0.00     0.079 C 
HETATM   27  C11 UNL     1      19.237   2.604  49.163  1.00  0.00     0.089 A 
ENDBRANCH  21  22
ENDBRANCH   3  21
TORSDOF 7
ENDMDL
MODEL 8
REMARK VINA RESULT:      -7.3      3.793      7.244
REMARK  7 active torsions:
REMARK  status: ('A' for Active; 'I' for Inactive)
REMARK    1  A    between atoms: O1_2  and  C2_3 
REMARK    2  A    between atoms: C2_3  and  C3_4 
REMARK    3  A    between atoms: C5_6  and  C6_7 
REMARK    4  A    between atoms: C6_7  and  C7_8 
REMARK    5  A    between atoms: N2_10  and  C8_11 
REMARK    6  A    between atoms: C8_11  and  S1_12 
REMARK    7  A    between atoms: C12_18  and  C13_19 
ROOT
HETATM    1  C7  UNL     1      23.551   1.648  51.542  1.00  0.00     0.065 A 
HETATM    2  N1  UNL     1      24.468   0.734  51.740  1.00  0.00    -0.182 NA
HETATM    3  N2  UNL     1      23.892   0.502  52.985  1.00  0.00    -0.281 N 
HETATM    4  C12 UNL     1      22.837   1.470  52.836  1.00  0.00     0.188 A 
ENDROOT
BRANCH   1   5
HETATM    5  C6  UNL     1      23.386   2.503  50.339  1.00  0.00     0.097 C 
BRANCH   5   6
HETATM    6  C5  UNL     1      24.653   3.192  49.983  1.00  0.00    -0.056 A 
HETATM    7  C4  UNL     1      24.768   4.527  49.423  1.00  0.00     0.012 A 
HETATM    8  C3  UNL     1      25.983   4.926  49.190  1.00  0.00    -0.052 A 
HETATM    9  C20 UNL     1      26.857   3.793  49.611  1.00  0.00     0.064 A 
HETATM   10  C19 UNL     1      25.902   2.774  50.085  1.00  0.00    -0.015 A 
BRANCH   8  11
HETATM   11  C2  UNL     1      26.761   6.064  48.675  1.00  0.00     0.201 C 
BRANCH  11  12
HETATM   12  O1  UNL     1      28.011   5.733  48.220  1.00  0.00    -0.392 OA
HETATM   13  C1  UNL     1      28.832   6.797  47.911  1.00  0.00     0.201 C 
ENDBRANCH  11  12
ENDBRANCH   8  11
ENDBRANCH   5   6
ENDBRANCH   1   5
BRANCH   4  14
HETATM   14  C13 UNL     1      21.508   0.834  52.749  1.00  0.00    -0.028 A 
HETATM   15  C14 UNL     1      20.973   0.058  53.785  1.00  0.00     0.011 A 
HETATM   16  C15 UNL     1      19.740  -0.547  53.759  1.00  0.00     0.019 A 
HETATM   17  C16 UNL     1      18.936  -0.409  52.654  1.00  0.00     0.011 A 
HETATM   18 BR1  UNL     1      17.229  -1.226  52.575  1.00  0.00    -0.051 Br
HETATM   19  C17 UNL     1      19.390   0.333  51.604  1.00  0.00     0.019 A 
HETATM   20  C18 UNL     1      20.634   0.915  51.688  1.00  0.00     0.011 A 
ENDBRANCH   4  14
BRANCH   3  21
HETATM   21  C8  UNL     1      24.507  -0.492  53.844  1.00  0.00     0.233 C 
BRANCH  21  22
HETATM   22  S1  UNL     1      26.237   0.001  54.024  1.00  0.00    -0.056 SA
HETATM   23  N3  UNL     1      26.929   1.303  54.805  1.00  0.00    -0.025 NA
HETATM   24  O2  UNL     1      28.271   1.111  54.574  1.00  0.00    -0.237 OA
HETATM   25  C9  UNL     1      28.653   0.044  53.857  1.00  0.00     0.075 A 
HETATM   26  C10 UNL     1      30.106  -0.244  53.555  1.00  0.00     0.079 C 
HETATM   27  C11 UNL     1      27.780  -0.807  53.380  1.00  0.00     0.089 A 
ENDBRANCH  21  22
ENDBRANCH   3  21
TORSDOF 7
ENDMDL
MODEL 9
REMARK VINA RESULT:      -7.1      3.526      4.899
REMARK  7 active torsions:
REMARK  status: ('A' for Active; 'I' for Inactive)
REMARK    1  A    between atoms: O1_2  and  C2_3 
REMARK    2  A    between atoms: C2_3  and  C3_4 
REMARK    3  A    between atoms: C5_6  and  C6_7 
REMARK    4  A    between atoms: C6_7  and  C7_8 
REMARK    5  A    between atoms: N2_10  and  C8_11 
REMARK    6  A    between atoms: C8_11  and  S1_12 
REMARK    7  A    between atoms: C12_18  and  C13_19 
ROOT
HETATM    1  C7  UNL     1      22.153   1.845  50.349  1.00  0.00     0.065 A 
HETATM    2  N1  UNL     1      22.323   2.382  49.166  1.00  0.00    -0.182 NA
HETATM    3  N2  UNL     1      22.952   3.449  49.801  1.00  0.00    -0.281 N 
HETATM    4  C12 UNL     1      22.827   2.916  51.132  1.00  0.00     0.188 A 
ENDROOT
BRANCH   1   5
HETATM    5  C6  UNL     1      21.492   0.551  50.656  1.00  0.00     0.097 C 
BRANCH   5   6
HETATM    6  C5  UNL     1      21.541   0.246  52.109  1.00  0.00    -0.056 A 
HETATM    7  C4  UNL     1      22.386  -0.752  52.742  1.00  0.00     0.012 A 
HETATM    8  C3  UNL     1      22.260  -0.845  54.033  1.00  0.00    -0.052 A 
HETATM    9  C20 UNL     1      21.231   0.170  54.402  1.00  0.00     0.064 A 
HETATM   10  C19 UNL     1      20.864   0.780  53.110  1.00  0.00    -0.015 A 
BRANCH   8  11
HETATM   11  C2  UNL     1      22.762  -1.578  55.206  1.00  0.00     0.201 C 
BRANCH  11  12
HETATM   12  O1  UNL     1      23.821  -0.977  55.835  1.00  0.00    -0.392 OA
HETATM   13  C1  UNL     1      25.019  -1.016  55.153  1.00  0.00     0.201 C 
ENDBRANCH  11  12
ENDBRANCH   8  11
ENDBRANCH   5   6
ENDBRANCH   1   5
BRANCH   4  14
HETATM   14  C13 UNL     1      24.135   2.556  51.711  1.00  0.00    -0.028 A 
HETATM   15  C14 UNL     1      24.388   2.593  53.088  1.00  0.00     0.011 A 
HETATM   16  C15 UNL     1      25.582   2.260  53.679  1.00  0.00     0.019 A 
HETATM   17  C16 UNL     1      26.638   1.853  52.899  1.00  0.00     0.011 A 
HETATM   18 BR1  UNL     1      28.303   1.384  53.671  1.00  0.00    -0.051 Br
HETATM   19  C17 UNL     1      26.467   1.791  51.548  1.00  0.00     0.019 A 
HETATM   20  C18 UNL     1      25.248   2.138  51.014  1.00  0.00     0.011 A 
ENDBRANCH   4  14
BRANCH   3  21
HETATM   21  C8  UNL     1      23.420   4.548  48.978  1.00  0.00     0.233 C 
BRANCH  21  22
HETATM   22  S1  UNL     1      22.516   6.012  49.533  1.00  0.00    -0.056 SA
HETATM   23  N3  UNL     1      21.906   6.419  51.031  1.00  0.00    -0.025 NA
HETATM   24  O2  UNL     1      21.332   7.647  50.797  1.00  0.00    -0.237 OA
HETATM   25  C9  UNL     1      21.396   8.160  49.560  1.00  0.00     0.075 A 
HETATM   26  C10 UNL     1      20.794   9.502  49.213  1.00  0.00     0.079 C 
HETATM   27  C11 UNL     1      21.988   7.518  48.584  1.00  0.00     0.089 A 
ENDBRANCH  21  22
ENDBRANCH   3  21
TORSDOF 7
ENDMDL
