MODEL 1
REMARK VINA RESULT:      -9.2      0.000      0.000
REMARK  2 active torsions:
REMARK  status: ('A' for Active; 'I' for Inactive)
REMARK    1  A    between atoms: C4_6  and  O2_7 
REMARK    2  A    between atoms: C9_12  and  C10_13 
ROOT
HETATM    1  O1  UNL     1      23.153   2.167  50.009  1.00  0.00    -0.267 OA
HETATM    2  C1  UNL     1      22.485   1.504  50.843  1.00  0.00     0.256 A 
HETATM    3  N1  UNL     1      21.122   1.146  50.833  1.00  0.00    -0.322 N 
HETATM    4  C2  UNL     1      20.713   0.382  51.957  1.00  0.00     0.049 A 
HETATM    5  C3  UNL     1      19.478  -0.137  52.284  1.00  0.00     0.066 A 
HETATM    6  C4  UNL     1      19.354  -0.852  53.455  1.00  0.00     0.067 A 
HETATM    7  C5  UNL     1      20.457  -1.029  54.263  1.00  0.00     0.037 A 
HETATM    8  C6  UNL     1      21.657  -0.479  53.866  1.00  0.00     0.017 A 
HETATM    9  C7  UNL     1      21.859   0.248  52.712  1.00  0.00     0.006 A 
HETATM   10  C8  UNL     1      22.998   0.914  52.087  1.00  0.00     0.043 A 
HETATM   11  C9  UNL     1      24.225   0.977  52.542  1.00  0.00     0.020 C 
HETATM   12  H1  UNL     1      20.534   1.457  50.031  1.00  0.00     0.169 HD
ENDROOT
BRANCH  11  13
HETATM   13  C10 UNL     1      25.166   0.607  53.607  1.00  0.00     0.129 A 
HETATM   14  C11 UNL     1      26.176   1.726  53.725  1.00  0.00     0.003 A 
HETATM   15  C12 UNL     1      27.490   1.652  53.591  1.00  0.00     0.007 A 
HETATM   16  C13 UNL     1      28.016   0.323  53.293  1.00  0.00    -0.036 A 
HETATM   17  C14 UNL     1      27.283  -0.756  53.158  1.00  0.00     0.012 A 
HETATM   18  C18 UNL     1      29.489   0.198  53.136  1.00  0.00     0.040 C 
HETATM   19  C15 UNL     1      27.799  -2.094  52.861  1.00  0.00     0.057 C 
HETATM   20  N2  UNL     1      25.880  -0.650  53.307  1.00  0.00    -0.382 N 
HETATM   21  C16 UNL     1      29.237  -2.291  53.217  1.00  0.00     0.006 C 
HETATM   22  C17 UNL     1      29.884  -1.086  53.842  1.00  0.00     0.005 C 
HETATM   23  H18 UNL     1      25.164  -1.415  53.229  1.00  0.00     0.160 HD
ENDBRANCH  11  13
BRANCH   6  24
HETATM   24  O2  UNL     1      18.093  -1.352  53.736  1.00  0.00    -0.361 OA
HETATM   25  H3  UNL     1      17.454  -1.757  53.094  1.00  0.00     0.217 HD
ENDBRANCH   6  24
TORSDOF 2
ENDMDL
MODEL 2
REMARK VINA RESULT:      -9.0      4.223      6.515
REMARK  2 active torsions:
REMARK  status: ('A' for Active; 'I' for Inactive)
REMARK    1  A    between atoms: C4_6  and  O2_7 
REMARK    2  A    between atoms: C9_12  and  C10_13 
ROOT
HETATM    1  O1  UNL     1      28.917   2.056  53.666  1.00  0.00    -0.267 OA
HETATM    2  C1  UNL     1      27.803   1.489  53.803  1.00  0.00     0.256 A 
HETATM    3  N1  UNL     1      27.365   0.580  54.786  1.00  0.00    -0.322 N 
HETATM    4  C2  UNL     1      26.024   0.143  54.618  1.00  0.00     0.049 A 
HETATM    5  C3  UNL     1      25.268  -0.730  55.371  1.00  0.00     0.066 A 
HETATM    6  C4  UNL     1      23.971  -0.982  54.978  1.00  0.00     0.067 A 
HETATM    7  C5  UNL     1      23.468  -0.363  53.854  1.00  0.00     0.037 A 
HETATM    8  C6  UNL     1      24.289   0.497  53.156  1.00  0.00     0.017 A 
HETATM    9  C7  UNL     1      25.593   0.800  53.485  1.00  0.00     0.006 A 
HETATM   10  C8  UNL     1      26.638   1.652  52.924  1.00  0.00     0.043 A 
HETATM   11  C9  UNL     1      26.555   2.404  51.855  1.00  0.00     0.020 C 
HETATM   12  H1  UNL     1      28.031   0.303  55.538  1.00  0.00     0.169 HD
ENDROOT
BRANCH  11  13
HETATM   13  C10 UNL     1      25.723   2.879  50.742  1.00  0.00     0.129 A 
HETATM   14  C11 UNL     1      26.651   3.207  49.594  1.00  0.00     0.003 A 
HETATM   15  C12 UNL     1      26.795   4.366  48.973  1.00  0.00     0.007 A 
HETATM   16  C13 UNL     1      25.951   5.451  49.463  1.00  0.00    -0.036 A 
HETATM   17  C14 UNL     1      25.092   5.340  50.448  1.00  0.00     0.012 A 
HETATM   18  C18 UNL     1      26.084   6.770  48.790  1.00  0.00     0.040 C 
HETATM   19  C15 UNL     1      24.239   6.420  50.949  1.00  0.00     0.057 C 
HETATM   20  N2  UNL     1      24.956   4.090  51.096  1.00  0.00    -0.382 N 
HETATM   21  C16 UNL     1      24.010   7.526  49.970  1.00  0.00     0.006 C 
HETATM   22  C17 UNL     1      24.675   7.312  48.638  1.00  0.00     0.005 C 
HETATM   23  H18 UNL     1      24.318   3.843  51.893  1.00  0.00     0.160 HD
ENDBRANCH  11  13
BRANCH   6  24
HETATM   24  O2  UNL     1      23.254  -1.866  55.769  1.00  0.00    -0.361 OA
HETATM   25  H3  UNL     1      23.541  -2.264  56.632  1.00  0.00     0.217 HD
ENDBRANCH   6  24
TORSDOF 2
ENDMDL
MODEL 3
REMARK VINA RESULT:      -8.9      1.948      3.085
REMARK  2 active torsions:
REMARK  status: ('A' for Active; 'I' for Inactive)
REMARK    1  A    between atoms: C4_6  and  O2_7 
REMARK    2  A    between atoms: C9_12  and  C10_13 
ROOT
HETATM    1  O1  UNL     1      22.428  -1.786  55.718  1.00  0.00    -0.267 OA
HETATM    2  C1  UNL     1      21.962  -1.245  54.683  1.00  0.00     0.256 A 
HETATM    3  N1  UNL     1      20.623  -1.034  54.296  1.00  0.00    -0.322 N 
HETATM    4  C2  UNL     1      20.477  -0.381  53.043  1.00  0.00     0.049 A 
HETATM    5  C3  UNL     1      19.340  -0.015  52.354  1.00  0.00     0.066 A 
HETATM    6  C4  UNL     1      19.484   0.616  51.137  1.00  0.00     0.067 A 
HETATM    7  C5  UNL     1      20.747   0.863  50.644  1.00  0.00     0.037 A 
HETATM    8  C6  UNL     1      21.833   0.465  51.394  1.00  0.00     0.017 A 
HETATM    9  C7  UNL     1      21.771  -0.170  52.617  1.00  0.00     0.006 A 
HETATM   10  C8  UNL     1      22.746  -0.676  53.579  1.00  0.00     0.043 A 
HETATM   11  C9  UNL     1      24.051  -0.635  53.477  1.00  0.00     0.020 C 
HETATM   12  H1  UNL     1      19.866  -1.359  54.932  1.00  0.00     0.169 HD
ENDROOT
BRANCH  11  13
HETATM   13  C10 UNL     1      25.215  -0.228  52.678  1.00  0.00     0.129 A 
HETATM   14  C11 UNL     1      25.935  -1.489  52.257  1.00  0.00     0.003 A 
HETATM   15  C12 UNL     1      27.189  -1.830  52.506  1.00  0.00     0.007 A 
HETATM   16  C13 UNL     1      27.959  -0.862  53.281  1.00  0.00    -0.036 A 
HETATM   17  C14 UNL     1      27.492   0.280  53.726  1.00  0.00     0.012 A 
HETATM   18  C18 UNL     1      29.374  -1.208  53.582  1.00  0.00     0.040 C 
HETATM   19  C15 UNL     1      28.255   1.258  54.503  1.00  0.00     0.057 C 
HETATM   20  N2  UNL     1      26.148   0.621  53.446  1.00  0.00    -0.382 N 
HETATM   21  C16 UNL     1      29.737   1.148  54.344  1.00  0.00     0.006 C 
HETATM   22  C17 UNL     1      30.172   0.068  53.392  1.00  0.00     0.005 C 
HETATM   23  H18 UNL     1      25.631   1.490  53.729  1.00  0.00     0.160 HD
ENDBRANCH  11  13
BRANCH   6  24
HETATM   24  O2  UNL     1      18.311   0.963  50.486  1.00  0.00    -0.361 OA
HETATM   25  H3  UNL     1      18.184   1.702  49.836  1.00  0.00     0.217 HD
ENDBRANCH   6  24
TORSDOF 2
ENDMDL
MODEL 4
REMARK VINA RESULT:      -8.8      2.000      2.516
REMARK  2 active torsions:
REMARK  status: ('A' for Active; 'I' for Inactive)
REMARK    1  A    between atoms: C4_6  and  O2_7 
REMARK    2  A    between atoms: C9_12  and  C10_13 
ROOT
HETATM    1  O1  UNL     1      20.983   4.452  51.613  1.00  0.00    -0.267 OA
HETATM    2  C1  UNL     1      21.215   3.339  52.148  1.00  0.00     0.256 A 
HETATM    3  N1  UNL     1      20.322   2.374  52.656  1.00  0.00    -0.322 N 
HETATM    4  C2  UNL     1      20.955   1.222  53.193  1.00  0.00     0.049 A 
HETATM    5  C3  UNL     1      20.413   0.092  53.768  1.00  0.00     0.066 A 
HETATM    6  C4  UNL     1      21.268  -0.893  54.213  1.00  0.00     0.067 A 
HETATM    7  C5  UNL     1      22.629  -0.726  54.074  1.00  0.00     0.037 A 
HETATM    8  C6  UNL     1      23.091   0.433  53.488  1.00  0.00     0.017 A 
HETATM    9  C7  UNL     1      22.301   1.461  53.019  1.00  0.00     0.006 A 
HETATM   10  C8  UNL     1      22.542   2.751  52.378  1.00  0.00     0.043 A 
HETATM   11  C9  UNL     1      23.702   3.278  52.073  1.00  0.00     0.020 C 
HETATM   12  H1  UNL     1      19.300   2.569  52.605  1.00  0.00     0.169 HD
ENDROOT
BRANCH  11  13
HETATM   13  C10 UNL     1      25.163   3.133  52.082  1.00  0.00     0.129 A 
HETATM   14  C11 UNL     1      25.526   2.166  50.978  1.00  0.00     0.003 A 
HETATM   15  C12 UNL     1      26.180   1.020  51.085  1.00  0.00     0.007 A 
HETATM   16  C13 UNL     1      26.595   0.658  52.436  1.00  0.00    -0.036 A 
HETATM   17  C14 UNL     1      26.363   1.380  53.507  1.00  0.00     0.012 A 
HETATM   18  C18 UNL     1      27.332  -0.623  52.598  1.00  0.00     0.040 C 
HETATM   19  C15 UNL     1      26.774   1.028  54.867  1.00  0.00     0.057 C 
HETATM   20  N2  UNL     1      25.662   2.602  53.366  1.00  0.00    -0.382 N 
HETATM   21  C16 UNL     1      27.914   0.063  54.933  1.00  0.00     0.006 C 
HETATM   22  C17 UNL     1      28.448  -0.347  53.589  1.00  0.00     0.005 C 
HETATM   23  H18 UNL     1      25.402   3.286  54.119  1.00  0.00     0.160 HD
ENDBRANCH  11  13
BRANCH   6  24
HETATM   24  O2  UNL     1      20.673  -2.008  54.782  1.00  0.00    -0.361 OA
HETATM   25  H3  UNL     1      20.820  -2.363  55.697  1.00  0.00     0.217 HD
ENDBRANCH   6  24
TORSDOF 2
ENDMDL
MODEL 5
REMARK VINA RESULT:      -8.8      2.456      6.919
REMARK  2 active torsions:
REMARK  status: ('A' for Active; 'I' for Inactive)
REMARK    1  A    between atoms: C4_6  and  O2_7 
REMARK    2  A    between atoms: C9_12  and  C10_13 
ROOT
HETATM    1  O1  UNL     1      22.668  -1.971  55.707  1.00  0.00    -0.267 OA
HETATM    2  C1  UNL     1      23.452  -1.268  55.022  1.00  0.00     0.256 A 
HETATM    3  N1  UNL     1      24.857  -1.166  55.073  1.00  0.00    -0.322 N 
HETATM    4  C2  UNL     1      25.408  -0.256  54.133  1.00  0.00     0.049 A 
HETATM    5  C3  UNL     1      26.720   0.098  53.896  1.00  0.00     0.066 A 
HETATM    6  C4  UNL     1      26.983   1.022  52.907  1.00  0.00     0.067 A 
HETATM    7  C5  UNL     1      25.939   1.563  52.187  1.00  0.00     0.037 A 
HETATM    8  C6  UNL     1      24.656   1.156  52.486  1.00  0.00     0.017 A 
HETATM    9  C7  UNL     1      24.314   0.240  53.458  1.00  0.00     0.006 A 
HETATM   10  C8  UNL     1      23.067  -0.339  53.951  1.00  0.00     0.043 A 
HETATM   11  C9  UNL     1      21.854  -0.082  53.527  1.00  0.00     0.020 C 
HETATM   12  H1  UNL     1      25.371  -1.744  55.771  1.00  0.00     0.169 HD
ENDROOT
BRANCH  11  13
HETATM   13  C10 UNL     1      21.007   0.672  52.595  1.00  0.00     0.129 A 
HETATM   14  C11 UNL     1      21.375   0.232  51.196  1.00  0.00     0.003 A 
HETATM   15  C12 UNL     1      21.816   0.982  50.199  1.00  0.00     0.007 A 
HETATM   16  C13 UNL     1      21.960   2.403  50.498  1.00  0.00    -0.036 A 
HETATM   17  C14 UNL     1      21.686   2.953  51.658  1.00  0.00     0.012 A 
HETATM   18  C18 UNL     1      22.453   3.280  49.403  1.00  0.00     0.040 C 
HETATM   19  C15 UNL     1      21.826   4.376  51.970  1.00  0.00     0.057 C 
HETATM   20  N2  UNL     1      21.216   2.130  52.708  1.00  0.00    -0.382 N 
HETATM   21  C16 UNL     1      21.809   5.273  50.773  1.00  0.00     0.006 C 
HETATM   22  C17 UNL     1      21.623   4.548  49.469  1.00  0.00     0.005 C 
HETATM   23  H18 UNL     1      20.955   2.416  53.684  1.00  0.00     0.160 HD
ENDBRANCH  11  13
BRANCH   6  24
HETATM   24  O2  UNL     1      28.316   1.342  52.709  1.00  0.00    -0.361 OA
HETATM   25  H3  UNL     1      28.869   1.961  53.252  1.00  0.00     0.217 HD
ENDBRANCH   6  24
TORSDOF 2
ENDMDL
MODEL 6
REMARK VINA RESULT:      -8.7      3.311      6.128
REMARK  2 active torsions:
REMARK  status: ('A' for Active; 'I' for Inactive)
REMARK    1  A    between atoms: C4_6  and  O2_7 
REMARK    2  A    between atoms: C9_12  and  C10_13 
ROOT
HETATM    1  O1  UNL     1      18.219  -0.967  53.501  1.00  0.00    -0.267 OA
HETATM    2  C1  UNL     1      19.461  -0.773  53.526  1.00  0.00     0.256 A 
HETATM    3  N1  UNL     1      20.450  -1.338  54.356  1.00  0.00    -0.322 N 
HETATM    4  C2  UNL     1      21.765  -0.874  54.091  1.00  0.00     0.049 A 
HETATM    5  C3  UNL     1      22.964  -1.197  54.691  1.00  0.00     0.066 A 
HETATM    6  C4  UNL     1      24.113  -0.590  54.232  1.00  0.00     0.067 A 
HETATM    7  C5  UNL     1      24.036   0.316  53.196  1.00  0.00     0.037 A 
HETATM    8  C6  UNL     1      22.799   0.584  52.650  1.00  0.00     0.017 A 
HETATM    9  C7  UNL     1      21.608   0.019  53.053  1.00  0.00     0.006 A 
HETATM   10  C8  UNL     1      20.210   0.135  52.648  1.00  0.00     0.043 A 
HETATM   11  C9  UNL     1      19.723   0.895  51.698  1.00  0.00     0.020 C 
HETATM   12  H1  UNL     1      20.156  -2.029  55.078  1.00  0.00     0.169 HD
ENDROOT
BRANCH  11  13
HETATM   13  C10 UNL     1      19.996   1.878  50.642  1.00  0.00     0.129 A 
HETATM   14  C11 UNL     1      20.797   1.176  49.569  1.00  0.00     0.003 A 
HETATM   15  C12 UNL     1      21.999   1.494  49.114  1.00  0.00     0.007 A 
HETATM   16  C13 UNL     1      22.613   2.666  49.730  1.00  0.00    -0.036 A 
HETATM   17  C14 UNL     1      22.059   3.390  50.673  1.00  0.00     0.012 A 
HETATM   18  C18 UNL     1      23.964   3.056  49.245  1.00  0.00     0.040 C 
HETATM   19  C15 UNL     1      22.665   4.568  51.298  1.00  0.00     0.057 C 
HETATM   20  N2  UNL     1      20.774   3.030  51.142  1.00  0.00    -0.382 N 
HETATM   21  C16 UNL     1      23.725   5.224  50.473  1.00  0.00     0.006 C 
HETATM   22  C17 UNL     1      23.955   4.569  49.139  1.00  0.00     0.005 C 
HETATM   23  H18 UNL     1      20.202   3.504  51.885  1.00  0.00     0.160 HD
ENDBRANCH  11  13
BRANCH   6  24
HETATM   24  O2  UNL     1      25.291  -0.950  54.868  1.00  0.00    -0.361 OA
HETATM   25  H3  UNL     1      25.722  -1.843  54.867  1.00  0.00     0.217 HD
ENDBRANCH   6  24
TORSDOF 2
ENDMDL
MODEL 7
REMARK VINA RESULT:      -8.6      2.692      7.400
REMARK  2 active torsions:
REMARK  status: ('A' for Active; 'I' for Inactive)
REMARK    1  A    between atoms: C4_6  and  O2_7 
REMARK    2  A    between atoms: C9_12  and  C10_13 
ROOT
HETATM    1  O1  UNL     1      23.242   4.443  52.288  1.00  0.00    -0.267 OA
HETATM    2  C1  UNL     1      23.842   3.395  52.637  1.00  0.00     0.256 A 
HETATM    3  N1  UNL     1      25.039   3.236  53.365  1.00  0.00    -0.322 N 
HETATM    4  C2  UNL     1      25.416   1.883  53.574  1.00  0.00     0.049 A 
HETATM    5  C3  UNL     1      26.505   1.351  54.230  1.00  0.00     0.066 A 
HETATM    6  C4  UNL     1      26.633  -0.021  54.286  1.00  0.00     0.067 A 
HETATM    7  C5  UNL     1      25.678  -0.817  53.692  1.00  0.00     0.037 A 
HETATM    8  C6  UNL     1      24.618  -0.207  53.055  1.00  0.00     0.017 A 
HETATM    9  C7  UNL     1      24.422   1.154  52.957  1.00  0.00     0.006 A 
HETATM   10  C8  UNL     1      23.412   2.019  52.355  1.00  0.00     0.043 A 
HETATM   11  C9  UNL     1      22.343   1.647  51.696  1.00  0.00     0.020 C 
HETATM   12  H1  UNL     1      25.542   4.090  53.685  1.00  0.00     0.169 HD
ENDROOT
BRANCH  11  13
HETATM   13  C10 UNL     1      21.533   0.532  51.185  1.00  0.00     0.129 A 
HETATM   14  C11 UNL     1      20.556   1.107  50.184  1.00  0.00     0.003 A 
HETATM   15  C12 UNL     1      19.235   1.046  50.213  1.00  0.00     0.007 A 
HETATM   16  C13 UNL     1      18.664   0.337  51.354  1.00  0.00    -0.036 A 
HETATM   17  C14 UNL     1      19.365  -0.221  52.313  1.00  0.00     0.012 A 
HETATM   18  C18 UNL     1      17.181   0.247  51.422  1.00  0.00     0.040 C 
HETATM   19  C15 UNL     1      18.804  -0.935  53.461  1.00  0.00     0.057 C 
HETATM   20  N2  UNL     1      20.776  -0.143  52.258  1.00  0.00    -0.382 N 
HETATM   21  C16 UNL     1      17.417  -1.451  53.246  1.00  0.00     0.006 C 
HETATM   22  C17 UNL     1      16.863  -1.165  51.878  1.00  0.00     0.005 C 
HETATM   23  H18 UNL     1      21.470  -0.535  52.942  1.00  0.00     0.160 HD
ENDBRANCH  11  13
BRANCH   6  24
HETATM   24  O2  UNL     1      27.745  -0.504  54.957  1.00  0.00    -0.361 OA
HETATM   25  H3  UNL     1      28.474  -1.063  54.582  1.00  0.00     0.217 HD
ENDBRANCH   6  24
TORSDOF 2
ENDMDL
MODEL 8
REMARK VINA RESULT:      -8.6      2.619      5.753
REMARK  2 active torsions:
REMARK  status: ('A' for Active; 'I' for Inactive)
REMARK    1  A    between atoms: C4_6  and  O2_7 
REMARK    2  A    between atoms: C9_12  and  C10_13 
ROOT
HETATM    1  O1  UNL     1      27.321   0.272  54.285  1.00  0.00    -0.267 OA
HETATM    2  C1  UNL     1      26.080   0.090  54.210  1.00  0.00     0.256 A 
HETATM    3  N1  UNL     1      25.266  -0.874  54.839  1.00  0.00    -0.322 N 
HETATM    4  C2  UNL     1      23.888  -0.773  54.512  1.00  0.00     0.049 A 
HETATM    5  C3  UNL     1      22.814  -1.531  54.929  1.00  0.00     0.066 A 
HETATM    6  C4  UNL     1      21.561  -1.213  54.450  1.00  0.00     0.067 A 
HETATM    7  C5  UNL     1      21.414  -0.157  53.576  1.00  0.00     0.037 A 
HETATM    8  C6  UNL     1      22.538   0.551  53.209  1.00  0.00     0.017 A 
HETATM    9  C7  UNL     1      23.822   0.295  53.643  1.00  0.00     0.006 A 
HETATM   10  C8  UNL     1      25.138   0.882  53.408  1.00  0.00     0.043 A 
HETATM   11  C9  UNL     1      25.422   1.902  52.637  1.00  0.00     0.020 C 
HETATM   12  H1  UNL     1      25.717  -1.565  55.474  1.00  0.00     0.169 HD
ENDROOT
BRANCH  11  13
HETATM   13  C10 UNL     1      24.919   2.934  51.720  1.00  0.00     0.129 A 
HETATM   14  C11 UNL     1      23.976   3.815  52.508  1.00  0.00     0.003 A 
HETATM   15  C12 UNL     1      22.700   4.062  52.262  1.00  0.00     0.007 A 
HETATM   16  C13 UNL     1      22.147   3.397  51.085  1.00  0.00    -0.036 A 
HETATM   17  C14 UNL     1      22.823   2.601  50.293  1.00  0.00     0.012 A 
HETATM   18  C18 UNL     1      20.715   3.650  50.775  1.00  0.00     0.040 C 
HETATM   19  C15 UNL     1      22.281   1.929  49.110  1.00  0.00     0.057 C 
HETATM   20  N2  UNL     1      24.187   2.353  50.577  1.00  0.00    -0.382 N 
HETATM   21  C16 UNL     1      21.061   2.579  48.540  1.00  0.00     0.006 C 
HETATM   22  C17 UNL     1      20.632   3.821  49.270  1.00  0.00     0.005 C 
HETATM   23  H18 UNL     1      24.857   1.745  50.043  1.00  0.00     0.160 HD
ENDBRANCH  11  13
BRANCH   6  24
HETATM   24  O2  UNL     1      20.516  -2.005  54.900  1.00  0.00    -0.361 OA
HETATM   25  H3  UNL     1      19.704  -2.267  54.393  1.00  0.00     0.217 HD
ENDBRANCH   6  24
TORSDOF 2
ENDMDL
MODEL 9
REMARK VINA RESULT:      -8.5      3.450      5.153
REMARK  2 active torsions:
REMARK  status: ('A' for Active; 'I' for Inactive)
REMARK    1  A    between atoms: C4_6  and  O2_7 
REMARK    2  A    between atoms: C9_12  and  C10_13 
ROOT
HETATM    1  O1  UNL     1      22.768  -1.537  55.574  1.00  0.00    -0.267 OA
HETATM    2  C1  UNL     1      21.964  -1.101  54.712  1.00  0.00     0.256 A 
HETATM    3  N1  UNL     1      20.594  -1.379  54.529  1.00  0.00    -0.322 N 
HETATM    4  C2  UNL     1      20.003  -0.692  53.435  1.00  0.00     0.049 A 
HETATM    5  C3  UNL     1      18.709  -0.715  52.960  1.00  0.00     0.066 A 
HETATM    6  C4  UNL     1      18.398   0.060  51.864  1.00  0.00     0.067 A 
HETATM    7  C5  UNL     1      19.378   0.830  51.276  1.00  0.00     0.037 A 
HETATM    8  C6  UNL     1      20.647   0.798  51.811  1.00  0.00     0.017 A 
HETATM    9  C7  UNL     1      21.036   0.051  52.903  1.00  0.00     0.006 A 
HETATM   10  C8  UNL     1      22.280  -0.149  53.639  1.00  0.00     0.043 A 
HETATM   11  C9  UNL     1      23.442   0.404  53.393  1.00  0.00     0.020 C 
HETATM   12  H1  UNL     1      20.131  -2.043  55.184  1.00  0.00     0.169 HD
ENDROOT
BRANCH  11  13
HETATM   13  C10 UNL     1      24.218   1.319  52.545  1.00  0.00     0.129 A 
HETATM   14  C11 UNL     1      24.088   2.703  53.139  1.00  0.00     0.003 A 
HETATM   15  C12 UNL     1      23.614   3.794  52.559  1.00  0.00     0.007 A 
HETATM   16  C13 UNL     1      23.168   3.628  51.180  1.00  0.00    -0.036 A 
HETATM   17  C14 UNL     1      23.210   2.499  50.513  1.00  0.00     0.012 A 
HETATM   18  C18 UNL     1      22.629   4.832  50.493  1.00  0.00     0.040 C 
HETATM   19  C15 UNL     1      22.766   2.320  49.129  1.00  0.00     0.057 C 
HETATM   20  N2  UNL     1      23.721   1.347  51.155  1.00  0.00    -0.382 N 
HETATM   21  C16 UNL     1      22.731   3.581  48.327  1.00  0.00     0.006 C 
HETATM   22  C17 UNL     1      23.186   4.799  49.082  1.00  0.00     0.005 C 
HETATM   23  H18 UNL     1      23.820   0.379  50.760  1.00  0.00     0.160 HD
ENDBRANCH  11  13
BRANCH   6  24
HETATM   24  O2  UNL     1      17.084   0.001  51.427  1.00  0.00    -0.361 OA
HETATM   25  H3  UNL     1      16.585   0.704  50.935  1.00  0.00     0.217 HD
ENDBRANCH   6  24
TORSDOF 2
ENDMDL
