MODEL 1
REMARK VINA RESULT:      -7.1      0.000      0.000
REMARK  7 active torsions:
REMARK  status: ('A' for Active; 'I' for Inactive)
REMARK    1  A    between atoms: O1_2  and  C2_3 
REMARK    2  A    between atoms: C3_4  and  C4_5 
REMARK    3  A    between atoms: C6_9  and  O2_10 
REMARK    4  A    between atoms: O2_10  and  C7_11 
REMARK    5  A    between atoms: C13_19  and  C14_20 
REMARK    6  A    between atoms: C15_21  and  N3_22 
REMARK    7  A    between atoms: N3_22  and  O3_23 
ROOT
HETATM    1  C4  UNL     1      22.537   1.588  50.333  1.00  0.00     0.074 A 
HETATM    2  N1  UNL     1      23.081   2.507  49.537  1.00  0.00    -0.241 NA
HETATM    3  C5  UNL     1      24.175   3.212  49.945  1.00  0.00     0.236 A 
HETATM    4  N2  UNL     1      24.705   2.976  51.155  1.00  0.00    -0.217 NA
HETATM    5  C6  UNL     1      24.213   2.067  52.011  1.00  0.00     0.183 A 
HETATM    6  C13 UNL     1      23.108   1.372  51.568  1.00  0.00     0.047 A 
ENDROOT
BRANCH   5   7
HETATM    7  O2  UNL     1      24.804   1.867  53.251  1.00  0.00    -0.291 OA
BRANCH   7   8
HETATM    8  C7  UNL     1      25.995   1.149  53.249  1.00  0.00     0.079 A 
HETATM    9  C8  UNL     1      27.139   1.878  53.562  1.00  0.00     0.040 A 
HETATM   10  C9  UNL     1      28.394   1.278  53.594  1.00  0.00     0.047 A 
HETATM   11  C10 UNL     1      28.469  -0.082  53.301  1.00  0.00     0.138 A 
HETATM   12  F1  UNL     1      29.702  -0.649  53.338  1.00  0.00    -0.204 F 
HETATM   13  C11 UNL     1      27.350  -0.815  52.991  1.00  0.00     0.075 A 
HETATM   14 CL1  UNL     1      27.469  -2.539  52.623  1.00  0.00    -0.081 Cl
HETATM   15  C12 UNL     1      26.105  -0.199  52.964  1.00  0.00     0.064 A 
ENDBRANCH   7   8
ENDBRANCH   5   7
BRANCH   6  16
HETATM   16  C14 UNL     1      22.504   0.375  52.410  1.00  0.00     0.037 C 
HETATM   17  C15 UNL     1      21.902   0.474  53.563  1.00  0.00     0.115 C 
BRANCH  17  18
HETATM   18  N3  UNL     1      21.283  -0.444  54.455  1.00  0.00    -0.279 N 
HETATM   19  H12 UNL     1      20.282  -0.527  54.792  1.00  0.00     0.193 HD
BRANCH  18  20
HETATM   20  O3  UNL     1      21.707  -1.507  55.178  1.00  0.00    -0.286 OA
HETATM   21  C16 UNL     1      23.087  -1.406  55.454  1.00  0.00     0.237 C 
ENDBRANCH  18  20
ENDBRANCH  17  18
ENDBRANCH   6  16
BRANCH   1  22
HETATM   22  C3  UNL     1      21.371   0.866  49.846  1.00  0.00     0.056 C 
HETATM   23  C2  UNL     1      20.198   1.434  50.010  1.00  0.00     0.136 C 
BRANCH  23  24
HETATM   24  O1  UNL     1      20.076   2.692  50.633  1.00  0.00    -0.368 OA
HETATM   25  C1  UNL     1      19.333   2.723  51.838  1.00  0.00     0.208 C 
ENDBRANCH  23  24
ENDBRANCH   1  22
TORSDOF 7
ENDMDL
MODEL 2
REMARK VINA RESULT:      -7.0      1.750      1.991
REMARK  7 active torsions:
REMARK  status: ('A' for Active; 'I' for Inactive)
REMARK    1  A    between atoms: O1_2  and  C2_3 
REMARK    2  A    between atoms: C3_4  and  C4_5 
REMARK    3  A    between atoms: C6_9  and  O2_10 
REMARK    4  A    between atoms: O2_10  and  C7_11 
REMARK    5  A    between atoms: C13_19  and  C14_20 
REMARK    6  A    between atoms: C15_21  and  N3_22 
REMARK    7  A    between atoms: N3_22  and  O3_23 
ROOT
HETATM    1  C4  UNL     1      24.212   2.829  50.186  1.00  0.00     0.074 A 
HETATM    2  N1  UNL     1      25.148   3.256  49.342  1.00  0.00    -0.241 NA
HETATM    3  C5  UNL     1      26.445   3.369  49.749  1.00  0.00     0.236 A 
HETATM    4  N2  UNL     1      26.776   3.046  51.010  1.00  0.00    -0.217 NA
HETATM    5  C6  UNL     1      25.889   2.609  51.916  1.00  0.00     0.183 A 
HETATM    6  C13 UNL     1      24.588   2.507  51.472  1.00  0.00     0.047 A 
ENDROOT
BRANCH   5   7
HETATM    7  O2  UNL     1      26.291   2.291  53.206  1.00  0.00    -0.291 OA
BRANCH   7   8
HETATM    8  C7  UNL     1      27.204   1.249  53.320  1.00  0.00     0.079 A 
HETATM    9  C8  UNL     1      28.449   1.591  53.840  1.00  0.00     0.040 A 
HETATM   10  C9  UNL     1      29.452   0.641  54.005  1.00  0.00     0.047 A 
HETATM   11  C10 UNL     1      29.169  -0.670  53.629  1.00  0.00     0.138 A 
HETATM   12  F1  UNL     1      30.160  -1.582  53.798  1.00  0.00    -0.204 F 
HETATM   13  C11 UNL     1      27.946  -1.024  53.114  1.00  0.00     0.075 A 
HETATM   14 CL1  UNL     1      27.610  -2.694  52.644  1.00  0.00    -0.081 Cl
HETATM   15  C12 UNL     1      26.956  -0.062  52.957  1.00  0.00     0.064 A 
ENDBRANCH   7   8
ENDBRANCH   5   7
BRANCH   6  16
HETATM   16  C14 UNL     1      23.559   2.047  52.367  1.00  0.00     0.037 C 
HETATM   17  C15 UNL     1      23.184   0.843  52.697  1.00  0.00     0.115 C 
BRANCH  17  18
HETATM   18  N3  UNL     1      22.193   0.301  53.560  1.00  0.00    -0.279 N 
HETATM   19  H12 UNL     1      21.950   0.515  54.569  1.00  0.00     0.193 HD
BRANCH  18  20
HETATM   20  O3  UNL     1      21.230  -0.643  53.438  1.00  0.00    -0.286 OA
HETATM   21  C16 UNL     1      21.335  -1.600  54.469  1.00  0.00     0.237 C 
ENDBRANCH  18  20
ENDBRANCH  17  18
ENDBRANCH   6  16
BRANCH   1  22
HETATM   22  C3  UNL     1      22.845   2.728  49.697  1.00  0.00     0.056 C 
HETATM   23  C2  UNL     1      22.104   3.812  49.746  1.00  0.00     0.136 C 
BRANCH  23  24
HETATM   24  O1  UNL     1      22.616   5.024  50.251  1.00  0.00    -0.368 OA
HETATM   25  C1  UNL     1      22.031   5.494  51.453  1.00  0.00     0.208 C 
ENDBRANCH  23  24
ENDBRANCH   1  22
TORSDOF 7
ENDMDL
MODEL 3
REMARK VINA RESULT:      -7.0      1.138      1.497
REMARK  7 active torsions:
REMARK  status: ('A' for Active; 'I' for Inactive)
REMARK    1  A    between atoms: O1_2  and  C2_3 
REMARK    2  A    between atoms: C3_4  and  C4_5 
REMARK    3  A    between atoms: C6_9  and  O2_10 
REMARK    4  A    between atoms: O2_10  and  C7_11 
REMARK    5  A    between atoms: C13_19  and  C14_20 
REMARK    6  A    between atoms: C15_21  and  N3_22 
REMARK    7  A    between atoms: N3_22  and  O3_23 
ROOT
HETATM    1  C4  UNL     1      22.301   1.614  50.203  1.00  0.00     0.074 A 
HETATM    2  N1  UNL     1      22.885   2.571  49.486  1.00  0.00    -0.241 NA
HETATM    3  C5  UNL     1      23.958   3.249  49.985  1.00  0.00     0.236 A 
HETATM    4  N2  UNL     1      24.427   2.947  51.206  1.00  0.00    -0.217 NA
HETATM    5  C6  UNL     1      23.892   1.995  51.986  1.00  0.00     0.183 A 
HETATM    6  C13 UNL     1      22.808   1.330  51.452  1.00  0.00     0.047 A 
ENDROOT
BRANCH   5   7
HETATM    7  O2  UNL     1      24.419   1.727  53.242  1.00  0.00    -0.291 OA
BRANCH   7   8
HETATM    8  C7  UNL     1      25.700   1.186  53.261  1.00  0.00     0.079 A 
HETATM    9  C8  UNL     1      25.822  -0.096  52.734  1.00  0.00     0.040 A 
HETATM   10  C9  UNL     1      27.051  -0.749  52.694  1.00  0.00     0.047 A 
HETATM   11  C10 UNL     1      28.158  -0.076  53.203  1.00  0.00     0.138 A 
HETATM   12  F1  UNL     1      29.347  -0.729  53.156  1.00  0.00    -0.204 F 
HETATM   13  C11 UNL     1      28.054   1.190  53.727  1.00  0.00     0.075 A 
HETATM   14 CL1  UNL     1      29.474   2.025  54.368  1.00  0.00    -0.081 Cl
HETATM   15  C12 UNL     1      26.821   1.827  53.758  1.00  0.00     0.064 A 
ENDBRANCH   7   8
ENDBRANCH   5   7
BRANCH   6  16
HETATM   16  C14 UNL     1      22.162   0.291  52.209  1.00  0.00     0.037 C 
HETATM   17  C15 UNL     1      21.520   0.328  53.343  1.00  0.00     0.115 C 
BRANCH  17  18
HETATM   18  N3  UNL     1      20.857  -0.634  54.154  1.00  0.00    -0.279 N 
HETATM   19  H12 UNL     1      19.829  -0.864  54.270  1.00  0.00     0.193 HD
BRANCH  18  20
HETATM   20  O3  UNL     1      21.257  -1.575  55.040  1.00  0.00    -0.286 OA
HETATM   21  C16 UNL     1      22.641  -1.465  55.296  1.00  0.00     0.237 C 
ENDBRANCH  18  20
ENDBRANCH  17  18
ENDBRANCH   6  16
BRANCH   1  22
HETATM   22  C3  UNL     1      21.160   0.924  49.621  1.00  0.00     0.056 C 
HETATM   23  C2  UNL     1      19.979   1.481  49.766  1.00  0.00     0.136 C 
BRANCH  23  24
HETATM   24  O1  UNL     1      19.826   2.699  50.458  1.00  0.00    -0.368 OA
HETATM   25  C1  UNL     1      19.030   2.655  51.629  1.00  0.00     0.208 C 
ENDBRANCH  23  24
ENDBRANCH   1  22
TORSDOF 7
ENDMDL
MODEL 4
REMARK VINA RESULT:      -6.7      2.025      4.131
REMARK  7 active torsions:
REMARK  status: ('A' for Active; 'I' for Inactive)
REMARK    1  A    between atoms: O1_2  and  C2_3 
REMARK    2  A    between atoms: C3_4  and  C4_5 
REMARK    3  A    between atoms: C6_9  and  O2_10 
REMARK    4  A    between atoms: O2_10  and  C7_11 
REMARK    5  A    between atoms: C13_19  and  C14_20 
REMARK    6  A    between atoms: C15_21  and  N3_22 
REMARK    7  A    between atoms: N3_22  and  O3_23 
ROOT
HETATM    1  C4  UNL     1      23.035   1.626  51.174  1.00  0.00     0.074 A 
HETATM    2  N1  UNL     1      22.327   0.664  51.761  1.00  0.00    -0.241 NA
HETATM    3  C5  UNL     1      22.736   0.134  52.950  1.00  0.00     0.236 A 
HETATM    4  N2  UNL     1      23.859   0.588  53.528  1.00  0.00    -0.217 NA
HETATM    5  C6  UNL     1      24.623   1.554  52.998  1.00  0.00     0.183 A 
HETATM    6  C13 UNL     1      24.181   2.068  51.797  1.00  0.00     0.047 A 
ENDROOT
BRANCH   5   7
HETATM    7  O2  UNL     1      25.775   1.983  53.643  1.00  0.00    -0.291 OA
BRANCH   7   8
HETATM    8  C7  UNL     1      26.865   1.121  53.580  1.00  0.00     0.079 A 
HETATM    9  C8  UNL     1      28.094   1.676  53.924  1.00  0.00     0.040 A 
HETATM   10  C9  UNL     1      29.262   0.919  53.901  1.00  0.00     0.047 A 
HETATM   11  C10 UNL     1      29.161  -0.416  53.520  1.00  0.00     0.138 A 
HETATM   12  F1  UNL     1      30.310  -1.137  53.505  1.00  0.00    -0.204 F 
HETATM   13  C11 UNL     1      27.955  -0.978  53.178  1.00  0.00     0.075 A 
HETATM   14 CL1  UNL     1      27.851  -2.676  52.697  1.00  0.00    -0.081 Cl
HETATM   15  C12 UNL     1      26.799  -0.209  53.206  1.00  0.00     0.064 A 
ENDBRANCH   7   8
ENDBRANCH   5   7
BRANCH   6  16
HETATM   16  C14 UNL     1      24.930   3.109  51.144  1.00  0.00     0.037 C 
HETATM   17  C15 UNL     1      26.138   3.119  50.654  1.00  0.00     0.115 C 
BRANCH  17  18
HETATM   18  N3  UNL     1      26.948   4.088  50.000  1.00  0.00    -0.279 N 
HETATM   19  H12 UNL     1      27.536   4.882  50.383  1.00  0.00     0.193 HD
BRANCH  18  20
HETATM   20  O3  UNL     1      27.266   4.356  48.713  1.00  0.00    -0.286 OA
HETATM   21  C16 UNL     1      27.491   5.737  48.531  1.00  0.00     0.237 C 
ENDBRANCH  18  20
ENDBRANCH  17  18
ENDBRANCH   6  16
BRANCH   1  22
HETATM   22  C3  UNL     1      22.550   2.154  49.907  1.00  0.00     0.056 C 
HETATM   23  C2  UNL     1      21.638   3.099  49.956  1.00  0.00     0.136 C 
BRANCH  23  24
HETATM   24  O1  UNL     1      21.151   3.580  51.187  1.00  0.00    -0.368 OA
HETATM   25  C1  UNL     1      19.743   3.591  51.339  1.00  0.00     0.208 C 
ENDBRANCH  23  24
ENDBRANCH   1  22
TORSDOF 7
ENDMDL
MODEL 5
REMARK VINA RESULT:      -6.7      3.644      7.176
REMARK  7 active torsions:
REMARK  status: ('A' for Active; 'I' for Inactive)
REMARK    1  A    between atoms: O1_2  and  C2_3 
REMARK    2  A    between atoms: C3_4  and  C4_5 
REMARK    3  A    between atoms: C6_9  and  O2_10 
REMARK    4  A    between atoms: O2_10  and  C7_11 
REMARK    5  A    between atoms: C13_19  and  C14_20 
REMARK    6  A    between atoms: C15_21  and  N3_22 
REMARK    7  A    between atoms: N3_22  and  O3_23 
ROOT
HETATM    1  C4  UNL     1      26.430  -0.509  53.264  1.00  0.00     0.074 A 
HETATM    2  N1  UNL     1      25.965  -1.280  54.244  1.00  0.00    -0.241 NA
HETATM    3  C5  UNL     1      24.733  -1.044  54.780  1.00  0.00     0.236 A 
HETATM    4  N2  UNL     1      23.988  -0.029  54.315  1.00  0.00    -0.217 NA
HETATM    5  C6  UNL     1      24.389   0.789  53.330  1.00  0.00     0.183 A 
HETATM    6  C13 UNL     1      25.638   0.523  52.811  1.00  0.00     0.047 A 
ENDROOT
BRANCH   5   7
HETATM    7  O2  UNL     1      23.575   1.823  52.890  1.00  0.00    -0.291 OA
BRANCH   7   8
HETATM    8  C7  UNL     1      22.454   1.447  52.157  1.00  0.00     0.079 A 
HETATM    9  C8  UNL     1      22.530   1.665  50.785  1.00  0.00     0.040 A 
HETATM   10  C9  UNL     1      21.475   1.332  49.940  1.00  0.00     0.047 A 
HETATM   11  C10 UNL     1      20.337   0.772  50.514  1.00  0.00     0.138 A 
HETATM   12  F1  UNL     1      19.320   0.454  49.674  1.00  0.00    -0.204 F 
HETATM   13  C11 UNL     1      20.247   0.551  51.867  1.00  0.00     0.075 A 
HETATM   14 CL1  UNL     1      18.792  -0.161  52.574  1.00  0.00    -0.081 Cl
HETATM   15  C12 UNL     1      21.309   0.889  52.696  1.00  0.00     0.064 A 
ENDBRANCH   7   8
ENDBRANCH   5   7
BRANCH   6  16
HETATM   16  C14 UNL     1      26.162   1.343  51.750  1.00  0.00     0.037 C 
HETATM   17  C15 UNL     1      26.318   2.634  51.661  1.00  0.00     0.115 C 
BRANCH  17  18
HETATM   18  N3  UNL     1      26.820   3.518  50.667  1.00  0.00    -0.279 N 
HETATM   19  H12 UNL     1      27.147   4.525  50.725  1.00  0.00     0.193 HD
BRANCH  18  20
HETATM   20  O3  UNL     1      27.061   3.425  49.338  1.00  0.00    -0.286 OA
HETATM   21  C16 UNL     1      27.417   4.682  48.805  1.00  0.00     0.237 C 
ENDBRANCH  18  20
ENDBRANCH  17  18
ENDBRANCH   6  16
BRANCH   1  22
HETATM   22  C3  UNL     1      27.751  -0.807  52.729  1.00  0.00     0.056 C 
HETATM   23  C2  UNL     1      28.787  -0.315  53.371  1.00  0.00     0.136 C 
BRANCH  23  24
HETATM   24  O1  UNL     1      28.623   0.469  54.530  1.00  0.00    -0.368 OA
HETATM   25  C1  UNL     1      29.167   1.776  54.482  1.00  0.00     0.208 C 
ENDBRANCH  23  24
ENDBRANCH   1  22
TORSDOF 7
ENDMDL
MODEL 6
REMARK VINA RESULT:      -6.6      3.612      6.910
REMARK  7 active torsions:
REMARK  status: ('A' for Active; 'I' for Inactive)
REMARK    1  A    between atoms: O1_2  and  C2_3 
REMARK    2  A    between atoms: C3_4  and  C4_5 
REMARK    3  A    between atoms: C6_9  and  O2_10 
REMARK    4  A    between atoms: O2_10  and  C7_11 
REMARK    5  A    between atoms: C13_19  and  C14_20 
REMARK    6  A    between atoms: C15_21  and  N3_22 
REMARK    7  A    between atoms: N3_22  and  O3_23 
ROOT
HETATM    1  C4  UNL     1      26.349   1.136  52.685  1.00  0.00     0.074 A 
HETATM    2  N1  UNL     1      26.689  -0.142  52.533  1.00  0.00    -0.241 NA
HETATM    3  C5  UNL     1      25.786  -1.131  52.791  1.00  0.00     0.236 A 
HETATM    4  N2  UNL     1      24.547  -0.811  53.200  1.00  0.00    -0.217 NA
HETATM    5  C6  UNL     1      24.132   0.453  53.373  1.00  0.00     0.183 A 
HETATM    6  C13 UNL     1      25.070   1.428  53.104  1.00  0.00     0.047 A 
ENDROOT
BRANCH   5   7
HETATM    7  O2  UNL     1      22.838   0.723  53.798  1.00  0.00    -0.291 OA
BRANCH   7   8
HETATM    8  C7  UNL     1      21.847   0.628  52.828  1.00  0.00     0.079 A 
HETATM    9  C8  UNL     1      20.576   0.306  53.293  1.00  0.00     0.040 A 
HETATM   10  C9  UNL     1      19.496   0.181  52.424  1.00  0.00     0.047 A 
HETATM   11  C10 UNL     1      19.730   0.389  51.067  1.00  0.00     0.138 A 
HETATM   12  F1  UNL     1      18.665   0.262  50.236  1.00  0.00    -0.204 F 
HETATM   13  C11 UNL     1      20.979   0.708  50.592  1.00  0.00     0.075 A 
HETATM   14 CL1  UNL     1      21.253   0.967  48.865  1.00  0.00    -0.081 Cl
HETATM   15  C12 UNL     1      22.045   0.829  51.474  1.00  0.00     0.064 A 
ENDBRANCH   7   8
ENDBRANCH   5   7
BRANCH   6  16
HETATM   16  C14 UNL     1      24.724   2.816  53.260  1.00  0.00     0.037 C 
HETATM   17  C15 UNL     1      24.221   3.674  52.418  1.00  0.00     0.115 C 
BRANCH  17  18
HETATM   18  N3  UNL     1      23.851   5.046  52.483  1.00  0.00    -0.279 N 
HETATM   19  H12 UNL     1      23.895   5.747  53.277  1.00  0.00     0.193 HD
BRANCH  18  20
HETATM   20  O3  UNL     1      23.331   5.938  51.608  1.00  0.00    -0.286 OA
HETATM   21  C16 UNL     1      24.318   6.386  50.705  1.00  0.00     0.237 C 
ENDBRANCH  18  20
ENDBRANCH  17  18
ENDBRANCH   6  16
BRANCH   1  22
HETATM   22  C3  UNL     1      27.353   2.149  52.395  1.00  0.00     0.056 C 
HETATM   23  C2  UNL     1      28.263   2.378  53.315  1.00  0.00     0.136 C 
BRANCH  23  24
HETATM   24  O1  UNL     1      28.265   1.668  54.532  1.00  0.00    -0.368 OA
HETATM   25  C1  UNL     1      29.275   0.686  54.679  1.00  0.00     0.208 C 
ENDBRANCH  23  24
ENDBRANCH   1  22
TORSDOF 7
ENDMDL
MODEL 7
REMARK VINA RESULT:      -6.5      3.578      6.123
REMARK  7 active torsions:
REMARK  status: ('A' for Active; 'I' for Inactive)
REMARK    1  A    between atoms: O1_2  and  C2_3 
REMARK    2  A    between atoms: C3_4  and  C4_5 
REMARK    3  A    between atoms: C6_9  and  O2_10 
REMARK    4  A    between atoms: O2_10  and  C7_11 
REMARK    5  A    between atoms: C13_19  and  C14_20 
REMARK    6  A    between atoms: C15_21  and  N3_22 
REMARK    7  A    between atoms: N3_22  and  O3_23 
ROOT
HETATM    1  C4  UNL     1      26.172   0.497  52.079  1.00  0.00     0.074 A 
HETATM    2  N1  UNL     1      26.795   1.251  51.177  1.00  0.00    -0.241 NA
HETATM    3  C5  UNL     1      26.334   2.501  50.887  1.00  0.00     0.236 A 
HETATM    4  N2  UNL     1      25.245   2.971  51.516  1.00  0.00    -0.217 NA
HETATM    5  C6  UNL     1      24.565   2.270  52.436  1.00  0.00     0.183 A 
HETATM    6  C13 UNL     1      25.058   1.011  52.706  1.00  0.00     0.047 A 
ENDROOT
BRANCH   5   7
HETATM    7  O2  UNL     1      23.445   2.809  53.054  1.00  0.00    -0.291 OA
BRANCH   7   8
HETATM    8  C7  UNL     1      22.341   3.019  52.235  1.00  0.00     0.079 A 
HETATM    9  C8  UNL     1      21.970   4.348  52.053  1.00  0.00     0.040 A 
HETATM   10  C9  UNL     1      20.882   4.693  51.257  1.00  0.00     0.047 A 
HETATM   11  C10 UNL     1      20.172   3.662  50.647  1.00  0.00     0.138 A 
HETATM   12  F1  UNL     1      19.115   4.019  49.875  1.00  0.00    -0.204 F 
HETATM   13  C11 UNL     1      20.525   2.346  50.818  1.00  0.00     0.075 A 
HETATM   14 CL1  UNL     1      19.610   1.053  50.034  1.00  0.00    -0.081 Cl
HETATM   15  C12 UNL     1      21.615   2.019  51.615  1.00  0.00     0.064 A 
ENDBRANCH   7   8
ENDBRANCH   5   7
BRANCH   6  16
HETATM   16  C14 UNL     1      24.401   0.178  53.678  1.00  0.00     0.037 C 
HETATM   17  C15 UNL     1      23.326  -0.554  53.594  1.00  0.00     0.115 C 
BRANCH  17  18
HETATM   18  N3  UNL     1      22.613  -1.398  54.489  1.00  0.00    -0.279 N 
HETATM   19  H12 UNL     1      22.939  -2.186  55.118  1.00  0.00     0.193 HD
BRANCH  18  20
HETATM   20  O3  UNL     1      21.318  -1.517  54.865  1.00  0.00    -0.286 OA
HETATM   21  C16 UNL     1      20.462  -0.961  53.891  1.00  0.00     0.237 C 
ENDBRANCH  18  20
ENDBRANCH  17  18
ENDBRANCH   6  16
BRANCH   1  22
HETATM   22  C3  UNL     1      26.709  -0.829  52.349  1.00  0.00     0.056 C 
HETATM   23  C2  UNL     1      27.818  -0.900  53.051  1.00  0.00     0.136 C 
BRANCH  23  24
HETATM   24  O1  UNL     1      28.459   0.263  53.523  1.00  0.00    -0.368 OA
HETATM   25  C1  UNL     1      28.642   0.348  54.925  1.00  0.00     0.208 C 
ENDBRANCH  23  24
ENDBRANCH   1  22
TORSDOF 7
ENDMDL
MODEL 8
REMARK VINA RESULT:      -6.4      1.996      4.079
REMARK  7 active torsions:
REMARK  status: ('A' for Active; 'I' for Inactive)
REMARK    1  A    between atoms: O1_2  and  C2_3 
REMARK    2  A    between atoms: C3_4  and  C4_5 
REMARK    3  A    between atoms: C6_9  and  O2_10 
REMARK    4  A    between atoms: O2_10  and  C7_11 
REMARK    5  A    between atoms: C13_19  and  C14_20 
REMARK    6  A    between atoms: C15_21  and  N3_22 
REMARK    7  A    between atoms: N3_22  and  O3_23 
ROOT
HETATM    1  C4  UNL     1      21.599   0.640  53.470  1.00  0.00     0.074 A 
HETATM    2  N1  UNL     1      21.516   0.037  54.654  1.00  0.00    -0.241 NA
HETATM    3  C5  UNL     1      22.536  -0.752  55.099  1.00  0.00     0.236 A 
HETATM    4  N2  UNL     1      23.629  -0.919  54.337  1.00  0.00    -0.217 NA
HETATM    5  C6  UNL     1      23.784  -0.344  53.135  1.00  0.00     0.183 A 
HETATM    6  C13 UNL     1      22.735   0.446  52.715  1.00  0.00     0.047 A 
ENDROOT
BRANCH   5   7
HETATM    7  O2  UNL     1      24.937  -0.555  52.390  1.00  0.00    -0.291 OA
BRANCH   7   8
HETATM    8  C7  UNL     1      26.104  -0.002  52.906  1.00  0.00     0.079 A 
HETATM    9  C8  UNL     1      26.043   1.353  53.217  1.00  0.00     0.040 A 
HETATM   10  C9  UNL     1      27.144   2.026  53.740  1.00  0.00     0.047 A 
HETATM   11  C10 UNL     1      28.312   1.296  53.942  1.00  0.00     0.138 A 
HETATM   12  F1  UNL     1      29.374   1.970  54.453  1.00  0.00    -0.204 F 
HETATM   13  C11 UNL     1      28.388  -0.042  53.641  1.00  0.00     0.075 A 
HETATM   14 CL1  UNL     1      29.882  -0.948  53.907  1.00  0.00    -0.081 Cl
HETATM   15  C12 UNL     1      27.280  -0.698  53.120  1.00  0.00     0.064 A 
ENDBRANCH   7   8
ENDBRANCH   5   7
BRANCH   6  16
HETATM   16  C14 UNL     1      22.802   1.107  51.439  1.00  0.00     0.037 C 
HETATM   17  C15 UNL     1      23.429   2.187  51.065  1.00  0.00     0.115 C 
BRANCH  17  18
HETATM   18  N3  UNL     1      23.552   2.905  49.843  1.00  0.00    -0.279 N 
HETATM   19  H12 UNL     1      23.068   2.784  48.908  1.00  0.00     0.193 HD
BRANCH  18  20
HETATM   20  O3  UNL     1      24.290   3.959  49.423  1.00  0.00    -0.286 OA
HETATM   21  C16 UNL     1      25.521   4.012  50.111  1.00  0.00     0.237 C 
ENDBRANCH  18  20
ENDBRANCH  17  18
ENDBRANCH   6  16
BRANCH   1  22
HETATM   22  C3  UNL     1      20.481   1.470  53.047  1.00  0.00     0.056 C 
HETATM   23  C2  UNL     1      19.412   0.856  52.591  1.00  0.00     0.136 C 
BRANCH  23  24
HETATM   24  O1  UNL     1      19.353  -0.550  52.518  1.00  0.00    -0.368 OA
HETATM   25  C1  UNL     1      18.252  -1.162  53.167  1.00  0.00     0.208 C 
ENDBRANCH  23  24
ENDBRANCH   1  22
TORSDOF 7
ENDMDL
MODEL 9
REMARK VINA RESULT:      -6.4      3.935      7.212
REMARK  7 active torsions:
REMARK  status: ('A' for Active; 'I' for Inactive)
REMARK    1  A    between atoms: O1_2  and  C2_3 
REMARK    2  A    between atoms: C3_4  and  C4_5 
REMARK    3  A    between atoms: C6_9  and  O2_10 
REMARK    4  A    between atoms: O2_10  and  C7_11 
REMARK    5  A    between atoms: C13_19  and  C14_20 
REMARK    6  A    between atoms: C15_21  and  N3_22 
REMARK    7  A    between atoms: N3_22  and  O3_23 
ROOT
HETATM    1  C4  UNL     1      25.555   0.092  52.525  1.00  0.00     0.074 A 
HETATM    2  N1  UNL     1      24.721  -0.791  53.068  1.00  0.00    -0.241 NA
HETATM    3  C5  UNL     1      23.495  -0.397  53.517  1.00  0.00     0.236 A 
HETATM    4  N2  UNL     1      23.130   0.891  53.409  1.00  0.00    -0.217 NA
HETATM    5  C6  UNL     1      23.915   1.837  52.873  1.00  0.00     0.183 A 
HETATM    6  C13 UNL     1      25.147   1.405  52.429  1.00  0.00     0.047 A 
ENDROOT
BRANCH   5   7
HETATM    7  O2  UNL     1      23.484   3.154  52.789  1.00  0.00    -0.291 OA
BRANCH   7   8
HETATM    8  C7  UNL     1      22.572   3.432  51.776  1.00  0.00     0.079 A 
HETATM    9  C8  UNL     1      21.805   4.580  51.953  1.00  0.00     0.040 A 
HETATM   10  C9  UNL     1      20.857   4.969  51.012  1.00  0.00     0.047 A 
HETATM   11  C10 UNL     1      20.697   4.168  49.884  1.00  0.00     0.138 A 
HETATM   12  F1  UNL     1      19.767   4.565  48.979  1.00  0.00    -0.204 F 
HETATM   13  C11 UNL     1      21.445   3.032  49.695  1.00  0.00     0.075 A 
HETATM   14 CL1  UNL     1      21.226   2.031  48.256  1.00  0.00    -0.081 Cl
HETATM   15  C12 UNL     1      22.389   2.659  50.644  1.00  0.00     0.064 A 
ENDBRANCH   7   8
ENDBRANCH   5   7
BRANCH   6  16
HETATM   16  C14 UNL     1      26.065   2.342  51.838  1.00  0.00     0.037 C 
HETATM   17  C15 UNL     1      26.006   3.013  50.722  1.00  0.00     0.115 C 
BRANCH  17  18
HETATM   18  N3  UNL     1      26.853   3.948  50.066  1.00  0.00    -0.279 N 
HETATM   19  H12 UNL     1      27.212   4.898  50.366  1.00  0.00     0.193 HD
BRANCH  18  20
HETATM   20  O3  UNL     1      27.493   3.986  48.874  1.00  0.00    -0.286 OA
HETATM   21  C16 UNL     1      27.825   5.312  48.527  1.00  0.00     0.237 C 
ENDBRANCH  18  20
ENDBRANCH  17  18
ENDBRANCH   6  16
BRANCH   1  22
HETATM   22  C3  UNL     1      26.849  -0.386  52.062  1.00  0.00     0.056 C 
HETATM   23  C2  UNL     1      27.757  -0.648  52.975  1.00  0.00     0.136 C 
BRANCH  23  24
HETATM   24  O1  UNL     1      27.485  -0.475  54.347  1.00  0.00    -0.368 OA
HETATM   25  C1  UNL     1      28.452   0.247  55.088  1.00  0.00     0.208 C 
ENDBRANCH  23  24
ENDBRANCH   1  22
TORSDOF 7
ENDMDL
