MODEL 1
REMARK VINA RESULT:      -6.5      0.000      0.000
REMARK  7 active torsions:
REMARK  status: ('A' for Active; 'I' for Inactive)
REMARK    1  A    between atoms: N1_2  and  C3_4 
REMARK    2  A    between atoms: C3_4  and  C4_5 
REMARK    3  A    between atoms: C5_6  and  N2_8 
REMARK    4  A    between atoms: N2_8  and  C6_9 
REMARK    5  A    between atoms: C6_9  and  C7_10 
REMARK    6  A    between atoms: C7_10  and  O1_11 
REMARK    7  A    between atoms: O1_11  and  C8_12 
ROOT
HETATM    1  C7  UNL     1      23.032   1.601  52.264  1.00  0.00     0.092 C 
HETATM    2  C9  UNL     1      24.260   1.193  52.172  1.00  0.00     0.042 C 
HETATM    3  C10 UNL     1      24.977   0.061  52.863  1.00  0.00     0.112 C 
HETATM    4  C11 UNL     1      26.162   0.709  53.523  1.00  0.00     0.035 C 
HETATM    5 CL1  UNL     1      26.487   0.280  55.189  1.00  0.00    -0.087 Cl
HETATM    6  C12 UNL     1      26.888   1.558  52.820  1.00  0.00     0.058 C 
HETATM    7  C13 UNL     1      28.016   2.153  53.503  1.00  0.00     0.098 C 
HETATM    8  N3  UNL     1      28.927   2.613  54.053  1.00  0.00    -0.192 NA
HETATM    9  C14 UNL     1      26.590   1.906  51.402  1.00  0.00     0.171 C 
HETATM   10  N4  UNL     1      25.131   1.905  51.278  1.00  0.00    -0.386 N 
HETATM   11  H18 UNL     1      24.746   2.472  50.469  1.00  0.00     0.159 HD
ENDROOT
BRANCH   1  12
HETATM   12  C6  UNL     1      22.321   2.707  51.592  1.00  0.00     0.188 C 
BRANCH  12  13
HETATM   13  N2  UNL     1      22.330   3.910  52.383  1.00  0.00    -0.361 N 
HETATM   14  H10 UNL     1      21.444   4.061  52.920  1.00  0.00     0.162 HD
BRANCH  13  15
HETATM   15  C5  UNL     1      23.376   4.877  52.506  1.00  0.00     0.182 C 
HETATM   16  C4  UNL     1      23.865   5.586  51.492  1.00  0.00     0.064 C 
HETATM   17  F1  UNL     1      23.872   5.047  53.763  1.00  0.00    -0.187 F 
BRANCH  16  18
HETATM   18  C3  UNL     1      23.754   5.834  50.018  1.00  0.00     0.303 C 
BRANCH  18  19
HETATM   19  N1  UNL     1      25.049   6.224  49.544  1.00  0.00     0.083 N 
HETATM   20  C1  UNL     1      25.958   5.085  49.482  1.00  0.00     0.309 C 
HETATM   21  C2  UNL     1      25.594   7.298  50.349  1.00  0.00     0.309 C 
ENDBRANCH  18  19
ENDBRANCH  16  18
ENDBRANCH  13  15
ENDBRANCH  12  13
ENDBRANCH   1  12
BRANCH   1  22
HETATM   22  O1  UNL     1      22.333   0.807  53.166  1.00  0.00    -0.291 OA
BRANCH  22  23
HETATM   23  C8  UNL     1      21.445  -0.221  52.782  1.00  0.00     0.505 C 
HETATM   24  F2  UNL     1      21.326  -0.266  51.386  1.00  0.00    -0.184 F 
HETATM   25  F3  UNL     1      21.950  -1.418  53.244  1.00  0.00    -0.184 F 
ENDBRANCH  22  23
ENDBRANCH   1  22
TORSDOF 7
ENDMDL
MODEL 2
REMARK VINA RESULT:      -6.5      1.558      1.992
REMARK  7 active torsions:
REMARK  status: ('A' for Active; 'I' for Inactive)
REMARK    1  A    between atoms: N1_2  and  C3_4 
REMARK    2  A    between atoms: C3_4  and  C4_5 
REMARK    3  A    between atoms: C5_6  and  N2_8 
REMARK    4  A    between atoms: N2_8  and  C6_9 
REMARK    5  A    between atoms: C6_9  and  C7_10 
REMARK    6  A    between atoms: C7_10  and  O1_11 
REMARK    7  A    between atoms: O1_11  and  C8_12 
ROOT
HETATM    1  C7  UNL     1      23.120   1.793  52.407  1.00  0.00     0.092 C 
HETATM    2  C9  UNL     1      24.339   1.377  52.254  1.00  0.00     0.042 C 
HETATM    3  C10 UNL     1      25.041   0.158  52.798  1.00  0.00     0.112 C 
HETATM    4  C11 UNL     1      26.245   0.702  53.516  1.00  0.00     0.035 C 
HETATM    5 CL1  UNL     1      26.577   0.073  55.117  1.00  0.00    -0.087 Cl
HETATM    6  C12 UNL     1      26.980   1.615  52.910  1.00  0.00     0.058 C 
HETATM    7  C13 UNL     1      28.126   2.104  53.645  1.00  0.00     0.098 C 
HETATM    8  N3  UNL     1      29.051   2.480  54.235  1.00  0.00    -0.192 NA
HETATM    9  C14 UNL     1      26.676   2.134  51.547  1.00  0.00     0.171 C 
HETATM   10  N4  UNL     1      25.216   2.173  51.440  1.00  0.00    -0.386 N 
HETATM   11  H18 UNL     1      24.834   2.839  50.709  1.00  0.00     0.159 HD
ENDROOT
BRANCH   1  12
HETATM   12  C6  UNL     1      22.424   2.983  51.879  1.00  0.00     0.188 C 
BRANCH  12  13
HETATM   13  N2  UNL     1      21.801   2.721  50.608  1.00  0.00    -0.361 N 
HETATM   14  H10 UNL     1      20.759   2.638  50.665  1.00  0.00     0.162 HD
BRANCH  13  15
HETATM   15  C5  UNL     1      22.428   2.571  49.332  1.00  0.00     0.182 C 
HETATM   16  C4  UNL     1      23.098   3.536  48.708  1.00  0.00     0.064 C 
HETATM   17  F1  UNL     1      22.303   1.342  48.758  1.00  0.00    -0.187 F 
BRANCH  16  18
HETATM   18  C3  UNL     1      23.546   4.963  48.806  1.00  0.00     0.303 C 
BRANCH  18  19
HETATM   19  N1  UNL     1      24.597   5.025  49.778  1.00  0.00     0.083 N 
HETATM   20  C1  UNL     1      24.406   6.141  50.697  1.00  0.00     0.309 C 
HETATM   21  C2  UNL     1      25.894   5.079  49.136  1.00  0.00     0.309 C 
ENDBRANCH  18  19
ENDBRANCH  16  18
ENDBRANCH  13  15
ENDBRANCH  12  13
ENDBRANCH   1  12
BRANCH   1  22
HETATM   22  O1  UNL     1      22.414   0.911  53.218  1.00  0.00    -0.291 OA
BRANCH  22  23
HETATM   23  C8  UNL     1      21.606  -0.134  52.721  1.00  0.00     0.505 C 
HETATM   24  F2  UNL     1      21.723  -0.221  51.327  1.00  0.00    -0.184 F 
HETATM   25  F3  UNL     1      22.027  -1.314  53.298  1.00  0.00    -0.184 F 
ENDBRANCH  22  23
ENDBRANCH   1  22
TORSDOF 7
ENDMDL
MODEL 3
REMARK VINA RESULT:      -6.5      3.200      6.210
REMARK  7 active torsions:
REMARK  status: ('A' for Active; 'I' for Inactive)
REMARK    1  A    between atoms: N1_2  and  C3_4 
REMARK    2  A    between atoms: C3_4  and  C4_5 
REMARK    3  A    between atoms: C5_6  and  N2_8 
REMARK    4  A    between atoms: N2_8  and  C6_9 
REMARK    5  A    between atoms: C6_9  and  C7_10 
REMARK    6  A    between atoms: C7_10  and  O1_11 
REMARK    7  A    between atoms: O1_11  and  C8_12 
ROOT
HETATM    1  C7  UNL     1      24.533   4.047  51.145  1.00  0.00     0.092 C 
HETATM    2  C9  UNL     1      24.539   5.161  50.480  1.00  0.00     0.042 C 
HETATM    3  C10 UNL     1      25.060   5.484  49.102  1.00  0.00     0.112 C 
HETATM    4  C11 UNL     1      26.018   6.623  49.317  1.00  0.00     0.035 C 
HETATM    5 CL1  UNL     1      27.577   6.520  48.524  1.00  0.00    -0.087 Cl
HETATM    6  C12 UNL     1      25.639   7.629  50.081  1.00  0.00     0.058 C 
HETATM    7  C13 UNL     1      26.598   8.698  50.254  1.00  0.00     0.098 C 
HETATM    8  N3  UNL     1      27.368   9.556  50.375  1.00  0.00    -0.192 NA
HETATM    9  C14 UNL     1      24.306   7.692  50.744  1.00  0.00     0.171 C 
HETATM   10  N4  UNL     1      23.967   6.316  51.114  1.00  0.00    -0.386 N 
HETATM   11  H18 UNL     1      23.256   6.221  51.895  1.00  0.00     0.159 HD
ENDROOT
BRANCH   1  12
HETATM   12  C6  UNL     1      24.025   3.721  52.492  1.00  0.00     0.188 C 
BRANCH  12  13
HETATM   13  N2  UNL     1      24.908   2.829  53.197  1.00  0.00    -0.361 N 
HETATM   14  H10 UNL     1      25.689   3.321  53.692  1.00  0.00     0.162 HD
BRANCH  13  15
HETATM   15  C5  UNL     1      24.834   1.404  53.290  1.00  0.00     0.182 C 
HETATM   16  C4  UNL     1      25.754   0.642  53.877  1.00  0.00     0.064 C 
HETATM   17  F1  UNL     1      23.732   0.836  52.727  1.00  0.00    -0.187 F 
BRANCH  16  18
HETATM   18  C3  UNL     1      27.062   0.662  54.608  1.00  0.00     0.303 C 
BRANCH  18  19
HETATM   19  N1  UNL     1      28.101   0.833  53.636  1.00  0.00     0.083 N 
HETATM   20  C1  UNL     1      29.193  -0.110  53.854  1.00  0.00     0.309 C 
HETATM   21  C2  UNL     1      28.575   2.201  53.618  1.00  0.00     0.309 C 
ENDBRANCH  18  19
ENDBRANCH  16  18
ENDBRANCH  13  15
ENDBRANCH  12  13
ENDBRANCH   1  12
BRANCH   1  22
HETATM   22  O1  UNL     1      25.121   3.038  50.390  1.00  0.00    -0.291 OA
BRANCH  22  23
HETATM   23  C8  UNL     1      26.512   2.802  50.346  1.00  0.00     0.505 C 
HETATM   24  F2  UNL     1      26.803   1.518  50.827  1.00  0.00    -0.184 F 
HETATM   25  F3  UNL     1      26.924   2.912  49.035  1.00  0.00    -0.184 F 
ENDBRANCH  22  23
ENDBRANCH   1  22
TORSDOF 7
ENDMDL
MODEL 4
REMARK VINA RESULT:      -6.5      2.448      3.094
REMARK  7 active torsions:
REMARK  status: ('A' for Active; 'I' for Inactive)
REMARK    1  A    between atoms: N1_2  and  C3_4 
REMARK    2  A    between atoms: C3_4  and  C4_5 
REMARK    3  A    between atoms: C5_6  and  N2_8 
REMARK    4  A    between atoms: N2_8  and  C6_9 
REMARK    5  A    between atoms: C6_9  and  C7_10 
REMARK    6  A    between atoms: C7_10  and  O1_11 
REMARK    7  A    between atoms: O1_11  and  C8_12 
ROOT
HETATM    1  C7  UNL     1      23.177   3.822  52.407  1.00  0.00     0.092 C 
HETATM    2  C9  UNL     1      23.959   2.790  52.336  1.00  0.00     0.042 C 
HETATM    3  C10 UNL     1      23.762   1.445  51.683  1.00  0.00     0.112 C 
HETATM    4  C11 UNL     1      23.994   0.450  52.786  1.00  0.00     0.035 C 
HETATM    5 CL1  UNL     1      22.832  -0.851  52.950  1.00  0.00    -0.087 Cl
HETATM    6  C12 UNL     1      25.049   0.606  53.563  1.00  0.00     0.058 C 
HETATM    7  C13 UNL     1      25.225  -0.380  54.607  1.00  0.00     0.098 C 
HETATM    8  N3  UNL     1      25.366  -1.182  55.432  1.00  0.00    -0.192 NA
HETATM    9  C14 UNL     1      26.023   1.721  53.401  1.00  0.00     0.171 C 
HETATM   10  N4  UNL     1      25.245   2.886  52.972  1.00  0.00    -0.386 N 
HETATM   11  H18 UNL     1      25.697   3.825  53.162  1.00  0.00     0.159 HD
ENDROOT
BRANCH   1  12
HETATM   12  C6  UNL     1      23.361   5.141  53.043  1.00  0.00     0.188 C 
BRANCH  12  13
HETATM   13  N2  UNL     1      24.235   5.990  52.276  1.00  0.00    -0.361 N 
HETATM   14  H10 UNL     1      25.173   6.132  52.720  1.00  0.00     0.162 HD
BRANCH  13  15
HETATM   15  C5  UNL     1      23.968   6.632  51.027  1.00  0.00     0.182 C 
HETATM   16  C4  UNL     1      24.215   6.089  49.838  1.00  0.00     0.064 C 
HETATM   17  F1  UNL     1      23.426   7.879  51.112  1.00  0.00    -0.187 F 
BRANCH  16  18
HETATM   18  C3  UNL     1      24.750   4.873  49.145  1.00  0.00     0.303 C 
BRANCH  18  19
HETATM   19  N1  UNL     1      26.111   4.699  49.558  1.00  0.00     0.083 N 
HETATM   20  C1  UNL     1      27.025   5.457  48.711  1.00  0.00     0.309 C 
HETATM   21  C2  UNL     1      26.464   3.294  49.600  1.00  0.00     0.309 C 
ENDBRANCH  18  19
ENDBRANCH  16  18
ENDBRANCH  13  15
ENDBRANCH  12  13
ENDBRANCH   1  12
BRANCH   1  22
HETATM   22  O1  UNL     1      21.983   3.560  51.745  1.00  0.00    -0.291 OA
BRANCH  22  23
HETATM   23  C8  UNL     1      20.732   3.461  52.393  1.00  0.00     0.505 C 
HETATM   24  F2  UNL     1      19.709   3.910  51.548  1.00  0.00    -0.184 F 
HETATM   25  F3  UNL     1      20.522   2.137  52.717  1.00  0.00    -0.184 F 
ENDBRANCH  22  23
ENDBRANCH   1  22
TORSDOF 7
ENDMDL
MODEL 5
REMARK VINA RESULT:      -6.4      3.260      6.300
REMARK  7 active torsions:
REMARK  status: ('A' for Active; 'I' for Inactive)
REMARK    1  A    between atoms: N1_2  and  C3_4 
REMARK    2  A    between atoms: C3_4  and  C4_5 
REMARK    3  A    between atoms: C5_6  and  N2_8 
REMARK    4  A    between atoms: N2_8  and  C6_9 
REMARK    5  A    between atoms: C6_9  and  C7_10 
REMARK    6  A    between atoms: C7_10  and  O1_11 
REMARK    7  A    between atoms: O1_11  and  C8_12 
ROOT
HETATM    1  C7  UNL     1      26.157   2.285  52.106  1.00  0.00     0.092 C 
HETATM    2  C9  UNL     1      25.738   2.596  50.919  1.00  0.00     0.042 C 
HETATM    3  C10 UNL     1      26.488   3.078  49.703  1.00  0.00     0.112 C 
HETATM    4  C11 UNL     1      25.812   4.367  49.326  1.00  0.00     0.035 C 
HETATM    5 CL1  UNL     1      26.841   5.739  48.968  1.00  0.00    -0.087 Cl
HETATM    6  C12 UNL     1      24.493   4.398  49.286  1.00  0.00     0.058 C 
HETATM    7  C13 UNL     1      23.894   5.662  48.918  1.00  0.00     0.098 C 
HETATM    8  N3  UNL     1      23.422   6.675  48.608  1.00  0.00    -0.192 NA
HETATM    9  C14 UNL     1      23.640   3.216  49.596  1.00  0.00     0.171 C 
HETATM   10  N4  UNL     1      24.329   2.482  50.660  1.00  0.00    -0.386 N 
HETATM   11  H18 UNL     1      23.712   1.846  51.241  1.00  0.00     0.159 HD
ENDROOT
BRANCH   1  12
HETATM   12  C6  UNL     1      25.431   1.812  53.301  1.00  0.00     0.188 C 
BRANCH  12  13
HETATM   13  N2  UNL     1      25.308   0.378  53.322  1.00  0.00    -0.361 N 
HETATM   14  H10 UNL     1      26.104  -0.115  52.854  1.00  0.00     0.162 HD
BRANCH  13  15
HETATM   15  C5  UNL     1      24.259  -0.410  53.891  1.00  0.00     0.182 C 
HETATM   16  C4  UNL     1      22.993  -0.382  53.480  1.00  0.00     0.064 C 
HETATM   17  F1  UNL     1      24.628  -1.226  54.917  1.00  0.00    -0.187 F 
BRANCH  16  18
HETATM   18  C3  UNL     1      22.048   0.242  52.499  1.00  0.00     0.303 C 
BRANCH  18  19
HETATM   19  N1  UNL     1      20.933   0.758  53.235  1.00  0.00     0.083 N 
HETATM   20  C1  UNL     1      19.857  -0.223  53.329  1.00  0.00     0.309 C 
HETATM   21  C2  UNL     1      20.468   2.006  52.664  1.00  0.00     0.309 C 
ENDBRANCH  18  19
ENDBRANCH  16  18
ENDBRANCH  13  15
ENDBRANCH  12  13
ENDBRANCH   1  12
BRANCH   1  22
HETATM   22  O1  UNL     1      27.535   2.451  52.184  1.00  0.00    -0.291 OA
BRANCH  22  23
HETATM   23  C8  UNL     1      28.302   2.114  53.320  1.00  0.00     0.505 C 
HETATM   24  F2  UNL     1      28.921   0.870  53.138  1.00  0.00    -0.184 F 
HETATM   25  F3  UNL     1      29.261   3.090  53.495  1.00  0.00    -0.184 F 
ENDBRANCH  22  23
ENDBRANCH   1  22
TORSDOF 7
ENDMDL
MODEL 6
REMARK VINA RESULT:      -6.4      1.833      2.146
REMARK  7 active torsions:
REMARK  status: ('A' for Active; 'I' for Inactive)
REMARK    1  A    between atoms: N1_2  and  C3_4 
REMARK    2  A    between atoms: C3_4  and  C4_5 
REMARK    3  A    between atoms: C5_6  and  N2_8 
REMARK    4  A    between atoms: N2_8  and  C6_9 
REMARK    5  A    between atoms: C6_9  and  C7_10 
REMARK    6  A    between atoms: C7_10  and  O1_11 
REMARK    7  A    between atoms: O1_11  and  C8_12 
ROOT
HETATM    1  C7  UNL     1      24.375   2.436  52.299  1.00  0.00     0.092 C 
HETATM    2  C9  UNL     1      25.595   2.034  52.119  1.00  0.00     0.042 C 
HETATM    3  C10 UNL     1      26.149   0.902  51.291  1.00  0.00     0.112 C 
HETATM    4  C11 UNL     1      26.946   0.076  52.263  1.00  0.00     0.035 C 
HETATM    5 CL1  UNL     1      26.713  -1.659  52.221  1.00  0.00    -0.087 Cl
HETATM    6  C12 UNL     1      27.771   0.695  53.086  1.00  0.00     0.058 C 
HETATM    7  C13 UNL     1      28.514  -0.146  53.999  1.00  0.00     0.098 C 
HETATM    8  N3  UNL     1      29.115  -0.829  54.718  1.00  0.00    -0.192 NA
HETATM    9  C14 UNL     1      27.951   2.174  53.101  1.00  0.00     0.171 C 
HETATM   10  N4  UNL     1      26.638   2.749  52.802  1.00  0.00    -0.386 N 
HETATM   11  H18 UNL     1      26.499   3.749  53.126  1.00  0.00     0.159 HD
ENDROOT
BRANCH   1  12
HETATM   12  C6  UNL     1      23.824   3.542  53.106  1.00  0.00     0.188 C 
BRANCH  12  13
HETATM   13  N2  UNL     1      23.932   4.808  52.428  1.00  0.00    -0.361 N 
HETATM   14  H10 UNL     1      24.707   5.410  52.794  1.00  0.00     0.162 HD
BRANCH  13  15
HETATM   15  C5  UNL     1      23.130   5.307  51.355  1.00  0.00     0.182 C 
HETATM   16  C4  UNL     1      23.461   5.221  50.069  1.00  0.00     0.064 C 
HETATM   17  F1  UNL     1      21.960   5.900  51.724  1.00  0.00    -0.187 F 
BRANCH  16  18
HETATM   18  C3  UNL     1      24.508   4.734  49.114  1.00  0.00     0.303 C 
BRANCH  18  19
HETATM   19  N1  UNL     1      25.788   5.089  49.652  1.00  0.00     0.083 N 
HETATM   20  C1  UNL     1      26.201   6.416  49.209  1.00  0.00     0.309 C 
HETATM   21  C2  UNL     1      26.782   4.086  49.330  1.00  0.00     0.309 C 
ENDBRANCH  18  19
ENDBRANCH  16  18
ENDBRANCH  13  15
ENDBRANCH  12  13
ENDBRANCH   1  12
BRANCH   1  22
HETATM   22  O1  UNL     1      23.499   1.639  51.571  1.00  0.00    -0.291 OA
BRANCH  22  23
HETATM   23  C8  UNL     1      22.610   0.713  52.158  1.00  0.00     0.505 C 
HETATM   24  F2  UNL     1      21.802   0.123  51.176  1.00  0.00    -0.184 F 
HETATM   25  F3  UNL     1      23.357  -0.257  52.791  1.00  0.00    -0.184 F 
ENDBRANCH  22  23
ENDBRANCH   1  22
TORSDOF 7
ENDMDL
MODEL 7
REMARK VINA RESULT:      -6.3      3.047      4.817
REMARK  7 active torsions:
REMARK  status: ('A' for Active; 'I' for Inactive)
REMARK    1  A    between atoms: N1_2  and  C3_4 
REMARK    2  A    between atoms: C3_4  and  C4_5 
REMARK    3  A    between atoms: C5_6  and  N2_8 
REMARK    4  A    between atoms: N2_8  and  C6_9 
REMARK    5  A    between atoms: C6_9  and  C7_10 
REMARK    6  A    between atoms: C7_10  and  O1_11 
REMARK    7  A    between atoms: O1_11  and  C8_12 
ROOT
HETATM    1  C7  UNL     1      23.427   0.141  53.066  1.00  0.00     0.092 C 
HETATM    2  C9  UNL     1      24.650   0.209  52.640  1.00  0.00     0.042 C 
HETATM    3  C10 UNL     1      25.826  -0.706  52.869  1.00  0.00     0.112 C 
HETATM    4  C11 UNL     1      26.897   0.186  53.432  1.00  0.00     0.035 C 
HETATM    5 CL1  UNL     1      27.764  -0.392  54.841  1.00  0.00    -0.087 Cl
HETATM    6  C12 UNL     1      27.125   1.345  52.844  1.00  0.00     0.058 C 
HETATM    7  C13 UNL     1      28.166   2.164  53.426  1.00  0.00     0.098 C 
HETATM    8  N3  UNL     1      29.011   2.808  53.891  1.00  0.00    -0.192 NA
HETATM    9  C14 UNL     1      26.373   1.813  51.646  1.00  0.00     0.171 C 
HETATM   10  N4  UNL     1      25.002   1.326  51.807  1.00  0.00    -0.386 N 
HETATM   11  H18 UNL     1      24.266   1.858  51.259  1.00  0.00     0.159 HD
ENDROOT
BRANCH   1  12
HETATM   12  C6  UNL     1      22.269   1.030  52.848  1.00  0.00     0.188 C 
BRANCH  12  13
HETATM   13  N2  UNL     1      21.341   0.481  51.893  1.00  0.00    -0.361 N 
HETATM   14  H10 UNL     1      20.768  -0.308  52.276  1.00  0.00     0.162 HD
BRANCH  13  15
HETATM   15  C5  UNL     1      21.129   0.882  50.537  1.00  0.00     0.182 C 
HETATM   16  C4  UNL     1      19.938   1.170  50.019  1.00  0.00     0.064 C 
HETATM   17  F1  UNL     1      22.249   0.957  49.766  1.00  0.00    -0.187 F 
BRANCH  16  18
HETATM   18  C3  UNL     1      18.473   1.267  50.320  1.00  0.00     0.303 C 
BRANCH  18  19
HETATM   19  N1  UNL     1      17.974  -0.066  50.486  1.00  0.00     0.083 N 
HETATM   20  C1  UNL     1      16.752  -0.276  49.718  1.00  0.00     0.309 C 
HETATM   21  C2  UNL     1      17.781  -0.376  51.888  1.00  0.00     0.309 C 
ENDBRANCH  18  19
ENDBRANCH  16  18
ENDBRANCH  13  15
ENDBRANCH  12  13
ENDBRANCH   1  12
BRANCH   1  22
HETATM   22  O1  UNL     1      23.259  -0.993  53.853  1.00  0.00    -0.291 OA
BRANCH  22  23
HETATM   23  C8  UNL     1      22.408  -1.047  54.979  1.00  0.00     0.505 C 
HETATM   24  F2  UNL     1      21.328  -1.906  54.732  1.00  0.00    -0.184 F 
HETATM   25  F3  UNL     1      23.141  -1.517  56.048  1.00  0.00    -0.184 F 
ENDBRANCH  22  23
ENDBRANCH   1  22
TORSDOF 7
ENDMDL
MODEL 8
REMARK VINA RESULT:      -6.3      3.015      5.796
REMARK  7 active torsions:
REMARK  status: ('A' for Active; 'I' for Inactive)
REMARK    1  A    between atoms: N1_2  and  C3_4 
REMARK    2  A    between atoms: C3_4  and  C4_5 
REMARK    3  A    between atoms: C5_6  and  N2_8 
REMARK    4  A    between atoms: N2_8  and  C6_9 
REMARK    5  A    between atoms: C6_9  and  C7_10 
REMARK    6  A    between atoms: C7_10  and  O1_11 
REMARK    7  A    between atoms: O1_11  and  C8_12 
ROOT
HETATM    1  C7  UNL     1      23.766   1.787  52.634  1.00  0.00     0.092 C 
HETATM    2  C9  UNL     1      22.830   2.353  51.937  1.00  0.00     0.042 C 
HETATM    3  C10 UNL     1      21.716   1.757  51.115  1.00  0.00     0.112 C 
HETATM    4  C11 UNL     1      21.890   2.360  49.748  1.00  0.00     0.035 C 
HETATM    5 CL1  UNL     1      21.805   1.274  48.376  1.00  0.00    -0.087 Cl
HETATM    6  C12 UNL     1      22.094   3.660  49.655  1.00  0.00     0.058 C 
HETATM    7  C13 UNL     1      22.255   4.188  48.317  1.00  0.00     0.098 C 
HETATM    8  N3  UNL     1      22.368   4.604  47.241  1.00  0.00    -0.192 NA
HETATM    9  C14 UNL     1      22.162   4.562  50.839  1.00  0.00     0.171 C 
HETATM   10  N4  UNL     1      22.801   3.789  51.906  1.00  0.00    -0.386 N 
HETATM   11  H18 UNL     1      23.252   4.366  52.673  1.00  0.00     0.159 HD
ENDROOT
BRANCH   1  12
HETATM   12  C6  UNL     1      24.860   2.361  53.443  1.00  0.00     0.188 C 
BRANCH  12  13
HETATM   13  N2  UNL     1      26.063   2.536  52.672  1.00  0.00    -0.361 N 
HETATM   14  H10 UNL     1      26.624   3.372  52.961  1.00  0.00     0.162 HD
BRANCH  13  15
HETATM   15  C5  UNL     1      26.551   1.725  51.601  1.00  0.00     0.182 C 
HETATM   16  C4  UNL     1      27.002   0.482  51.748  1.00  0.00     0.064 C 
HETATM   17  F1  UNL     1      26.534   2.307  50.370  1.00  0.00    -0.187 F 
BRANCH  16  18
HETATM   18  C3  UNL     1      27.254  -0.610  52.743  1.00  0.00     0.303 C 
BRANCH  18  19
HETATM   19  N1  UNL     1      28.464  -0.292  53.442  1.00  0.00     0.083 N 
HETATM   20  C1  UNL     1      29.393  -1.417  53.436  1.00  0.00     0.309 C 
HETATM   21  C2  UNL     1      28.182   0.159  54.789  1.00  0.00     0.309 C 
ENDBRANCH  18  19
ENDBRANCH  16  18
ENDBRANCH  13  15
ENDBRANCH  12  13
ENDBRANCH   1  12
BRANCH   1  22
HETATM   22  O1  UNL     1      23.648   0.404  52.556  1.00  0.00    -0.291 OA
BRANCH  22  23
HETATM   23  C8  UNL     1      23.284  -0.415  53.647  1.00  0.00     0.505 C 
HETATM   24  F2  UNL     1      24.380  -0.606  54.500  1.00  0.00    -0.184 F 
HETATM   25  F3  UNL     1      22.265   0.213  54.333  1.00  0.00    -0.184 F 
ENDBRANCH  22  23
ENDBRANCH   1  22
TORSDOF 7
ENDMDL
MODEL 9
REMARK VINA RESULT:      -6.2      2.567      5.327
REMARK  7 active torsions:
REMARK  status: ('A' for Active; 'I' for Inactive)
REMARK    1  A    between atoms: N1_2  and  C3_4 
REMARK    2  A    between atoms: C3_4  and  C4_5 
REMARK    3  A    between atoms: C5_6  and  N2_8 
REMARK    4  A    between atoms: N2_8  and  C6_9 
REMARK    5  A    between atoms: C6_9  and  C7_10 
REMARK    6  A    between atoms: C7_10  and  O1_11 
REMARK    7  A    between atoms: O1_11  and  C8_12 
ROOT
HETATM    1  C7  UNL     1      24.386   2.379  51.755  1.00  0.00     0.092 C 
HETATM    2  C9  UNL     1      25.009   1.734  52.692  1.00  0.00     0.042 C 
HETATM    3  C10 UNL     1      25.849   2.232  53.841  1.00  0.00     0.112 C 
HETATM    4  C11 UNL     1      27.165   1.521  53.684  1.00  0.00     0.035 C 
HETATM    5 CL1  UNL     1      28.620   2.485  53.829  1.00  0.00    -0.087 Cl
HETATM    6  C12 UNL     1      27.154   0.223  53.448  1.00  0.00     0.058 C 
HETATM    7  C13 UNL     1      28.447  -0.412  53.305  1.00  0.00     0.098 C 
HETATM    8  N3  UNL     1      29.487  -0.914  53.207  1.00  0.00    -0.192 NA
HETATM    9  C14 UNL     1      25.902  -0.574  53.329  1.00  0.00     0.171 C 
HETATM   10  N4  UNL     1      24.919   0.300  52.684  1.00  0.00    -0.386 N 
HETATM   11  H18 UNL     1      24.119  -0.199  52.201  1.00  0.00     0.159 HD
ENDROOT
BRANCH   1  12
HETATM   12  C6  UNL     1      23.560   1.902  50.628  1.00  0.00     0.188 C 
BRANCH  12  13
HETATM   13  N2  UNL     1      22.154   1.959  50.930  1.00  0.00    -0.361 N 
HETATM   14  H10 UNL     1      21.770   2.933  50.940  1.00  0.00     0.162 HD
BRANCH  13  15
HETATM   15  C5  UNL     1      21.265   0.872  51.204  1.00  0.00     0.182 C 
HETATM   16  C4  UNL     1      21.174   0.257  52.380  1.00  0.00     0.064 C 
HETATM   17  F1  UNL     1      20.482   0.478  50.162  1.00  0.00    -0.187 F 
BRANCH  16  18
HETATM   18  C3  UNL     1      21.709   0.226  53.780  1.00  0.00     0.303 C 
BRANCH  18  19
HETATM   19  N1  UNL     1      21.952  -1.144  54.123  1.00  0.00     0.083 N 
HETATM   20  C1  UNL     1      20.703  -1.875  54.306  1.00  0.00     0.309 C 
HETATM   21  C2  UNL     1      22.804  -1.243  55.290  1.00  0.00     0.309 C 
ENDBRANCH  18  19
ENDBRANCH  16  18
ENDBRANCH  13  15
ENDBRANCH  12  13
ENDBRANCH   1  12
BRANCH   1  22
HETATM   22  O1  UNL     1      24.576   3.748  51.911  1.00  0.00    -0.291 OA
BRANCH  22  23
HETATM   23  C8  UNL     1      23.571   4.633  52.359  1.00  0.00     0.505 C 
HETATM   24  F2  UNL     1      23.821   5.024  53.681  1.00  0.00    -0.184 F 
HETATM   25  F3  UNL     1      23.578   5.740  51.537  1.00  0.00    -0.184 F 
ENDBRANCH  22  23
ENDBRANCH   1  22
TORSDOF 7
ENDMDL
