MODEL 1
REMARK VINA RESULT:      -8.7      0.000      0.000
REMARK  2 active torsions:
REMARK  status: ('A' for Active; 'I' for Inactive)
REMARK    1  A    between atoms: O1_2  and  S1_3 
REMARK    2  A    between atoms: S1_3  and  O2_4 
ROOT
HETATM    1  S1  UNL     1      27.174  -0.132  53.828  1.00  0.00     0.019 SA
HETATM    2  C3  UNL     1      27.196   0.658  52.415  1.00  0.00     0.056 C 
HETATM    3  C4  UNL     1      26.153   1.413  52.151  1.00  0.00     0.055 C 
HETATM    4  C5  UNL     1      24.785   0.951  52.340  1.00  0.00     0.070 C 
HETATM    5  N1  UNL     1      23.964   1.469  51.539  1.00  0.00    -0.242 NA
HETATM    6  C6  UNL     1      23.973   2.377  50.502  1.00  0.00     0.229 C 
HETATM    7  N2  UNL     1      23.467   3.448  50.004  1.00  0.00    -0.264 NA
HETATM    8  C7  UNL     1      22.412   4.117  50.733  1.00  0.00     0.268 C 
HETATM    9  N3  UNL     1      21.162   4.276  50.141  1.00  0.00    -0.399 N 
HETATM   10  C8  UNL     1      20.940   5.326  49.296  1.00  0.00     0.144 C 
HETATM   11  C9  UNL     1      20.178   3.315  50.452  1.00  0.00     0.124 C 
HETATM   12  C10 UNL     1      19.683   3.385  51.856  1.00  0.00     0.033 C 
HETATM   13  C11 UNL     1      20.182   2.322  52.598  1.00  0.00     0.120 A 
HETATM   14  C12 UNL     1      20.783   1.169  53.210  1.00  0.00     0.011 A 
HETATM   15 CL1  UNL     1      20.929   0.797  51.502  1.00  0.00    -0.176 Cl
HETATM   16  C13 UNL     1      21.177   0.206  54.098  1.00  0.00    -0.003 C 
HETATM   17  C14 UNL     1      22.072  -0.743  53.400  1.00  0.00     0.056 C 
HETATM   18  C15 UNL     1      23.462  -0.701  54.021  1.00  0.00    -0.009 C 
HETATM   19  C16 UNL     1      24.339   0.065  53.366  1.00  0.00    -0.002 C 
HETATM   20  C17 UNL     1      25.591  -0.246  54.164  1.00  0.00     0.096 C 
ENDROOT
BRANCH   1  21
HETATM   21  O1  UNL     1      28.026   0.704  54.959  1.00  0.00    -0.315 OA
HETATM   22  C1  UNL     1      29.182   1.241  54.391  1.00  0.00     0.221 C 
ENDBRANCH   1  21
BRANCH   1  23
HETATM   23  O2  UNL     1      27.736  -1.651  53.482  1.00  0.00    -0.315 OA
HETATM   24  C2  UNL     1      27.105  -2.328  52.474  1.00  0.00     0.221 C 
ENDBRANCH   1  23
TORSDOF 2
ENDMDL
MODEL 2
REMARK VINA RESULT:      -8.0      1.975      3.823
REMARK  2 active torsions:
REMARK  status: ('A' for Active; 'I' for Inactive)
REMARK    1  A    between atoms: O1_2  and  S1_3 
REMARK    2  A    between atoms: S1_3  and  O2_4 
ROOT
HETATM    1  S1  UNL     1      27.602   0.264  53.593  1.00  0.00     0.019 SA
HETATM    2  C3  UNL     1      26.290  -0.041  54.491  1.00  0.00     0.056 C 
HETATM    3  C4  UNL     1      25.140  -0.074  53.854  1.00  0.00     0.055 C 
HETATM    4  C5  UNL     1      24.750   0.948  52.893  1.00  0.00     0.070 C 
HETATM    5  N1  UNL     1      23.506   1.135  52.837  1.00  0.00    -0.242 NA
HETATM    6  C6  UNL     1      22.365   0.642  53.431  1.00  0.00     0.229 C 
HETATM    7  N2  UNL     1      21.195   0.138  53.263  1.00  0.00    -0.264 NA
HETATM    8  C7  UNL     1      20.719  -0.069  51.914  1.00  0.00     0.268 C 
HETATM    9  N3  UNL     1      19.563   0.578  51.486  1.00  0.00    -0.399 N 
HETATM   10  C8  UNL     1      18.340   0.035  51.763  1.00  0.00     0.144 C 
HETATM   11  C9  UNL     1      19.729   1.788  50.781  1.00  0.00     0.124 C 
HETATM   12  C10 UNL     1      20.314   1.622  49.421  1.00  0.00     0.033 C 
HETATM   13  C11 UNL     1      21.631   2.062  49.405  1.00  0.00     0.120 A 
HETATM   14  C12 UNL     1      22.970   2.557  49.567  1.00  0.00     0.011 A 
HETATM   15 CL1  UNL     1      22.158   3.225  50.972  1.00  0.00    -0.176 Cl
HETATM   16  C13 UNL     1      24.270   2.931  49.358  1.00  0.00    -0.003 C 
HETATM   17  C14 UNL     1      24.826   3.442  50.630  1.00  0.00     0.056 C 
HETATM   18  C15 UNL     1      25.971   2.551  51.093  1.00  0.00    -0.009 C 
HETATM   19  C16 UNL     1      25.630   1.644  52.012  1.00  0.00    -0.002 C 
HETATM   20  C17 UNL     1      27.000   1.069  52.319  1.00  0.00     0.096 C 
ENDROOT
BRANCH   1  21
HETATM   21  O1  UNL     1      28.352  -1.141  53.185  1.00  0.00    -0.315 OA
HETATM   22  C1  UNL     1      29.717  -1.055  53.461  1.00  0.00     0.221 C 
ENDBRANCH   1  21
BRANCH   1  23
HETATM   23  O2  UNL     1      28.503   1.325  54.491  1.00  0.00    -0.315 OA
HETATM   24  C2  UNL     1      28.917   2.469  53.863  1.00  0.00     0.221 C 
ENDBRANCH   1  23
TORSDOF 2
ENDMDL
MODEL 3
REMARK VINA RESULT:      -8.0      1.440      1.633
REMARK  2 active torsions:
REMARK  status: ('A' for Active; 'I' for Inactive)
REMARK    1  A    between atoms: O1_2  and  S1_3 
REMARK    2  A    between atoms: S1_3  and  O2_4 
ROOT
HETATM    1  S1  UNL     1      26.829  -0.651  53.618  1.00  0.00     0.019 SA
HETATM    2  C3  UNL     1      27.371   0.322  52.444  1.00  0.00     0.056 C 
HETATM    3  C4  UNL     1      26.637   1.379  52.174  1.00  0.00     0.055 C 
HETATM    4  C5  UNL     1      25.192   1.304  52.010  1.00  0.00     0.070 C 
HETATM    5  N1  UNL     1      24.732   2.163  51.211  1.00  0.00    -0.242 NA
HETATM    6  C6  UNL     1      25.205   3.189  50.423  1.00  0.00     0.229 C 
HETATM    7  N2  UNL     1      25.107   4.428  50.095  1.00  0.00    -0.264 NA
HETATM    8  C7  UNL     1      24.110   5.241  50.755  1.00  0.00     0.268 C 
HETATM    9  N3  UNL     1      23.110   5.849  50.002  1.00  0.00    -0.399 N 
HETATM   10  C8  UNL     1      23.356   7.044  49.387  1.00  0.00     0.144 C 
HETATM   11  C9  UNL     1      21.876   5.174  49.910  1.00  0.00     0.124 C 
HETATM   12  C10 UNL     1      21.102   5.149  51.184  1.00  0.00     0.033 C 
HETATM   13  C11 UNL     1      21.138   3.879  51.745  1.00  0.00     0.120 A 
HETATM   14  C12 UNL     1      21.278   2.517  52.182  1.00  0.00     0.011 A 
HETATM   15 CL1  UNL     1      21.720   2.408  50.487  1.00  0.00    -0.176 Cl
HETATM   16  C13 UNL     1      21.206   1.347  52.888  1.00  0.00    -0.003 C 
HETATM   17  C14 UNL     1      21.976   0.311  52.165  1.00  0.00     0.056 C 
HETATM   18  C15 UNL     1      23.151  -0.152  53.017  1.00  0.00    -0.009 C 
HETATM   19  C16 UNL     1      24.316   0.427  52.716  1.00  0.00    -0.002 C 
HETATM   20  C17 UNL     1      25.233  -0.360  53.633  1.00  0.00     0.096 C 
ENDROOT
BRANCH   1  21
HETATM   21  O1  UNL     1      27.574  -0.297  55.040  1.00  0.00    -0.315 OA
HETATM   22  C1  UNL     1      28.763   0.395  54.801  1.00  0.00     0.221 C 
ENDBRANCH   1  21
BRANCH   1  23
HETATM   23  O2  UNL     1      27.064  -2.189  53.047  1.00  0.00    -0.315 OA
HETATM   24  C2  UNL     1      28.360  -2.617  52.942  1.00  0.00     0.221 C 
ENDBRANCH   1  23
TORSDOF 2
ENDMDL
MODEL 4
REMARK VINA RESULT:      -7.6      3.353      4.674
REMARK  2 active torsions:
REMARK  status: ('A' for Active; 'I' for Inactive)
REMARK    1  A    between atoms: O1_2  and  S1_3 
REMARK    2  A    between atoms: S1_3  and  O2_4 
ROOT
HETATM    1  S1  UNL     1      25.795   0.992  53.361  1.00  0.00     0.019 SA
HETATM    2  C3  UNL     1      26.772   1.159  52.081  1.00  0.00     0.056 C 
HETATM    3  C4  UNL     1      26.776   2.337  51.497  1.00  0.00     0.055 C 
HETATM    4  C5  UNL     1      25.549   3.051  51.171  1.00  0.00     0.070 C 
HETATM    5  N1  UNL     1      25.651   3.785  50.154  1.00  0.00    -0.242 NA
HETATM    6  C6  UNL     1      26.611   4.129  49.227  1.00  0.00     0.229 C 
HETATM    7  N2  UNL     1      27.239   5.078  48.627  1.00  0.00    -0.264 NA
HETATM    8  C7  UNL     1      26.909   6.445  48.963  1.00  0.00     0.268 C 
HETATM    9  N3  UNL     1      26.426   7.298  47.975  1.00  0.00    -0.399 N 
HETATM   10  C8  UNL     1      27.302   7.946  47.150  1.00  0.00     0.144 C 
HETATM   11  C9  UNL     1      25.026   7.439  47.877  1.00  0.00     0.124 C 
HETATM   12  C10 UNL     1      24.409   8.174  49.017  1.00  0.00     0.033 C 
HETATM   13  C11 UNL     1      23.719   7.295  49.841  1.00  0.00     0.120 A 
HETATM   14  C12 UNL     1      23.058   6.253  50.578  1.00  0.00     0.011 A 
HETATM   15 CL1  UNL     1      23.316   5.494  49.018  1.00  0.00    -0.176 Cl
HETATM   16  C13 UNL     1      22.339   5.550  51.506  1.00  0.00    -0.003 C 
HETATM   17  C14 UNL     1      22.355   4.119  51.131  1.00  0.00     0.056 C 
HETATM   18  C15 UNL     1      23.066   3.307  52.205  1.00  0.00    -0.009 C 
HETATM   19  C16 UNL     1      24.344   3.030  51.934  1.00  0.00    -0.002 C 
HETATM   20  C17 UNL     1      24.660   2.125  53.110  1.00  0.00     0.096 C 
ENDROOT
BRANCH   1  21
HETATM   21  O1  UNL     1      26.640   1.208  54.754  1.00  0.00    -0.315 OA
HETATM   22  C1  UNL     1      27.730   0.337  54.796  1.00  0.00     0.221 C 
ENDBRANCH   1  21
BRANCH   1  23
HETATM   23  O2  UNL     1      25.087  -0.493  53.173  1.00  0.00    -0.315 OA
HETATM   24  C2  UNL     1      23.792  -0.619  53.601  1.00  0.00     0.221 C 
ENDBRANCH   1  23
TORSDOF 2
ENDMDL
MODEL 5
REMARK VINA RESULT:      -7.0      6.751      9.048
REMARK  2 active torsions:
REMARK  status: ('A' for Active; 'I' for Inactive)
REMARK    1  A    between atoms: O1_2  and  S1_3 
REMARK    2  A    between atoms: S1_3  and  O2_4 
ROOT
HETATM    1  S1  UNL     1      24.297   3.976  50.435  1.00  0.00     0.019 SA
HETATM    2  C3  UNL     1      25.464   3.335  49.514  1.00  0.00     0.056 C 
HETATM    3  C4  UNL     1      26.601   3.994  49.467  1.00  0.00     0.055 C 
HETATM    4  C5  UNL     1      26.661   5.434  49.261  1.00  0.00     0.070 C 
HETATM    5  N1  UNL     1      27.701   5.813  48.661  1.00  0.00    -0.242 NA
HETATM    6  C6  UNL     1      28.840   5.251  48.126  1.00  0.00     0.229 C 
HETATM    7  N2  UNL     1      30.125   5.261  48.075  1.00  0.00    -0.264 NA
HETATM    8  C7  UNL     1      30.840   6.229  48.877  1.00  0.00     0.268 C 
HETATM    9  N3  UNL     1      31.663   7.163  48.255  1.00  0.00    -0.399 N 
HETATM   10  C8  UNL     1      32.944   6.823  47.921  1.00  0.00     0.144 C 
HETATM   11  C9  UNL     1      31.108   8.433  47.992  1.00  0.00     0.124 C 
HETATM   12  C10 UNL     1      30.860   9.250  49.214  1.00  0.00     0.033 C 
HETATM   13  C11 UNL     1      29.499   9.312  49.484  1.00  0.00     0.120 A 
HETATM   14  C12 UNL     1      28.068   9.270  49.615  1.00  0.00     0.011 A 
HETATM   15 CL1  UNL     1      28.300   8.778  47.947  1.00  0.00    -0.176 Cl
HETATM   16  C13 UNL     1      26.781   9.439  50.045  1.00  0.00    -0.003 C 
HETATM   17  C14 UNL     1      25.877   8.708  49.130  1.00  0.00     0.056 C 
HETATM   18  C15 UNL     1      25.161   7.595  49.884  1.00  0.00    -0.009 C 
HETATM   19  C16 UNL     1      25.712   6.386  49.740  1.00  0.00    -0.002 C 
HETATM   20  C17 UNL     1      24.685   5.551  50.481  1.00  0.00     0.096 C 
ENDROOT
BRANCH   1  21
HETATM   21  O1  UNL     1      24.284   3.261  51.915  1.00  0.00    -0.315 OA
HETATM   22  C1  UNL     1      24.273   1.872  51.777  1.00  0.00     0.221 C 
ENDBRANCH   1  21
BRANCH   1  23
HETATM   23  O2  UNL     1      22.908   3.817  49.547  1.00  0.00    -0.315 OA
HETATM   24  C2  UNL     1      22.895   4.405  48.311  1.00  0.00     0.221 C 
ENDBRANCH   1  23
TORSDOF 2
ENDMDL
MODEL 6
REMARK VINA RESULT:      -6.9      4.059      6.873
REMARK  2 active torsions:
REMARK  status: ('A' for Active; 'I' for Inactive)
REMARK    1  A    between atoms: O1_2  and  S1_3 
REMARK    2  A    between atoms: S1_3  and  O2_4 
ROOT
HETATM    1  S1  UNL     1      21.853   3.741  47.925  1.00  0.00     0.019 SA
HETATM    2  C3  UNL     1      23.277   4.376  48.359  1.00  0.00     0.056 C 
HETATM    3  C4  UNL     1      24.062   3.611  49.085  1.00  0.00     0.055 C 
HETATM    4  C5  UNL     1      23.578   2.867  50.239  1.00  0.00     0.070 C 
HETATM    5  N1  UNL     1      24.449   2.701  51.132  1.00  0.00    -0.242 NA
HETATM    6  C6  UNL     1      25.772   3.022  51.349  1.00  0.00     0.229 C 
HETATM    7  N2  UNL     1      26.946   2.600  51.659  1.00  0.00    -0.264 NA
HETATM    8  C7  UNL     1      27.125   1.191  51.927  1.00  0.00     0.268 C 
HETATM    9  N3  UNL     1      27.584   0.781  53.175  1.00  0.00    -0.399 N 
HETATM   10  C8  UNL     1      28.925   0.774  53.437  1.00  0.00     0.144 C 
HETATM   11  C9  UNL     1      26.611   0.396  54.121  1.00  0.00     0.124 C 
HETATM   12  C10 UNL     1      25.920  -0.883  53.794  1.00  0.00     0.033 C 
HETATM   13  C11 UNL     1      24.622  -0.635  53.366  1.00  0.00     0.120 A 
HETATM   14  C12 UNL     1      23.318  -0.200  52.949  1.00  0.00     0.011 A 
HETATM   15 CL1  UNL     1      23.919   1.208  53.806  1.00  0.00    -0.176 Cl
HETATM   16  C13 UNL     1      22.026  -0.157  52.500  1.00  0.00    -0.003 C 
HETATM   17  C14 UNL     1      21.595   1.257  52.436  1.00  0.00     0.056 C 
HETATM   18  C15 UNL     1      21.289   1.643  50.995  1.00  0.00    -0.009 C 
HETATM   19  C16 UNL     1      22.283   2.283  50.371  1.00  0.00    -0.002 C 
HETATM   20  C17 UNL     1      21.585   2.619  49.066  1.00  0.00     0.096 C 
ENDROOT
BRANCH   1  21
HETATM   21  O1  UNL     1      21.947   3.120  46.405  1.00  0.00    -0.315 OA
HETATM   22  C1  UNL     1      21.834   4.142  45.461  1.00  0.00     0.221 C 
ENDBRANCH   1  21
BRANCH   1  23
HETATM   23  O2  UNL     1      20.753   4.961  48.136  1.00  0.00    -0.315 OA
HETATM   24  C2  UNL     1      20.531   5.376  49.422  1.00  0.00     0.221 C 
ENDBRANCH   1  23
TORSDOF 2
ENDMDL
MODEL 7
REMARK VINA RESULT:      -6.7      5.279      7.110
REMARK  2 active torsions:
REMARK  status: ('A' for Active; 'I' for Inactive)
REMARK    1  A    between atoms: O1_2  and  S1_3 
REMARK    2  A    between atoms: S1_3  and  O2_4 
ROOT
HETATM    1  S1  UNL     1      27.008   8.252  47.844  1.00  0.00     0.019 SA
HETATM    2  C3  UNL     1      25.420   8.297  47.531  1.00  0.00     0.056 C 
HETATM    3  C4  UNL     1      24.646   7.599  48.333  1.00  0.00     0.055 C 
HETATM    4  C5  UNL     1      24.949   6.226  48.711  1.00  0.00     0.070 C 
HETATM    5  N1  UNL     1      23.925   5.529  48.936  1.00  0.00    -0.242 NA
HETATM    6  C6  UNL     1      22.556   5.685  48.935  1.00  0.00     0.229 C 
HETATM    7  N2  UNL     1      21.456   5.545  49.584  1.00  0.00    -0.264 NA
HETATM    8  C7  UNL     1      21.507   4.999  50.922  1.00  0.00     0.268 C 
HETATM    9  N3  UNL     1      20.828   3.819  51.209  1.00  0.00    -0.399 N 
HETATM   10  C8  UNL     1      19.497   3.859  51.516  1.00  0.00     0.144 C 
HETATM   11  C9  UNL     1      21.572   2.622  51.157  1.00  0.00     0.124 C 
HETATM   12  C10 UNL     1      22.574   2.482  52.251  1.00  0.00     0.033 C 
HETATM   13  C11 UNL     1      23.858   2.666  51.756  1.00  0.00     0.120 A 
HETATM   14  C12 UNL     1      25.108   2.881  51.079  1.00  0.00     0.011 A 
HETATM   15 CL1  UNL     1      24.023   2.530  49.746  1.00  0.00    -0.176 Cl
HETATM   16  C13 UNL     1      26.434   3.038  50.783  1.00  0.00    -0.003 C 
HETATM   17  C14 UNL     1      26.565   3.337  49.340  1.00  0.00     0.056 C 
HETATM   18  C15 UNL     1      27.156   4.728  49.149  1.00  0.00    -0.009 C 
HETATM   19  C16 UNL     1      26.254   5.684  48.908  1.00  0.00    -0.002 C 
HETATM   20  C17 UNL     1      27.189   6.849  48.639  1.00  0.00     0.096 C 
ENDROOT
BRANCH   1  21
HETATM   21  O1  UNL     1      27.452   9.567  48.725  1.00  0.00    -0.315 OA
HETATM   22  C1  UNL     1      27.496   9.243  50.083  1.00  0.00     0.221 C 
ENDBRANCH   1  21
BRANCH   1  23
HETATM   23  O2  UNL     1      27.735   8.100  46.363  1.00  0.00    -0.315 OA
HETATM   24  C2  UNL     1      29.066   7.780  46.360  1.00  0.00     0.221 C 
ENDBRANCH   1  23
TORSDOF 2
ENDMDL
MODEL 8
REMARK VINA RESULT:      -6.6      4.495      7.019
REMARK  2 active torsions:
REMARK  status: ('A' for Active; 'I' for Inactive)
REMARK    1  A    between atoms: O1_2  and  S1_3 
REMARK    2  A    between atoms: S1_3  and  O2_4 
ROOT
HETATM    1  S1  UNL     1      17.487   0.480  50.902  1.00  0.00     0.019 SA
HETATM    2  C3  UNL     1      18.030   1.877  50.290  1.00  0.00     0.056 C 
HETATM    3  C4  UNL     1      19.333   1.992  50.162  1.00  0.00     0.055 C 
HETATM    4  C5  UNL     1      20.258   1.625  51.225  1.00  0.00     0.070 C 
HETATM    5  N1  UNL     1      21.318   2.305  51.226  1.00  0.00    -0.242 NA
HETATM    6  C6  UNL     1      21.884   3.326  50.494  1.00  0.00     0.229 C 
HETATM    7  N2  UNL     1      22.911   3.743  49.841  1.00  0.00    -0.264 NA
HETATM    8  C7  UNL     1      24.061   2.874  49.736  1.00  0.00     0.268 C 
HETATM    9  N3  UNL     1      25.287   3.291  50.247  1.00  0.00    -0.399 N 
HETATM   10  C8  UNL     1      26.100   4.091  49.493  1.00  0.00     0.144 C 
HETATM   11  C9  UNL     1      25.620   2.859  51.547  1.00  0.00     0.124 C 
HETATM   12  C10 UNL     1      25.912   1.400  51.645  1.00  0.00     0.033 C 
HETATM   13  C11 UNL     1      24.867   0.741  52.280  1.00  0.00     0.120 A 
HETATM   14  C12 UNL     1      23.705   0.224  52.949  1.00  0.00     0.011 A 
HETATM   15 CL1  UNL     1      23.601   1.939  53.303  1.00  0.00    -0.176 Cl
HETATM   16  C13 UNL     1      22.783  -0.595  53.540  1.00  0.00    -0.003 C 
HETATM   17  C14 UNL     1      21.627   0.224  53.966  1.00  0.00     0.056 C 
HETATM   18  C15 UNL     1      20.377  -0.206  53.209  1.00  0.00    -0.009 C 
HETATM   19  C16 UNL     1      20.080   0.556  52.152  1.00  0.00    -0.002 C 
HETATM   20  C17 UNL     1      18.753  -0.065  51.760  1.00  0.00     0.096 C 
ENDROOT
BRANCH   1  21
HETATM   21  O1  UNL     1      17.032  -0.534  49.690  1.00  0.00    -0.315 OA
HETATM   22  C1  UNL     1      15.679  -0.854  49.815  1.00  0.00     0.221 C 
ENDBRANCH   1  21
BRANCH   1  23
HETATM   23  O2  UNL     1      16.293   0.910  51.967  1.00  0.00    -0.315 OA
HETATM   24  C2  UNL     1      15.893   2.218  51.950  1.00  0.00     0.221 C 
ENDBRANCH   1  23
TORSDOF 2
ENDMDL
MODEL 9
REMARK VINA RESULT:      -6.5      3.808      6.109
REMARK  2 active torsions:
REMARK  status: ('A' for Active; 'I' for Inactive)
REMARK    1  A    between atoms: O1_2  and  S1_3 
REMARK    2  A    between atoms: S1_3  and  O2_4 
ROOT
HETATM    1  S1  UNL     1      21.295   1.030  52.279  1.00  0.00     0.019 SA
HETATM    2  C3  UNL     1      20.564   2.445  52.564  1.00  0.00     0.056 C 
HETATM    3  C4  UNL     1      20.886   3.441  51.768  1.00  0.00     0.055 C 
HETATM    4  C5  UNL     1      22.267   3.754  51.429  1.00  0.00     0.070 C 
HETATM    5  N1  UNL     1      22.464   4.978  51.204  1.00  0.00    -0.242 NA
HETATM    6  C6  UNL     1      21.736   6.147  51.180  1.00  0.00     0.229 C 
HETATM    7  N2  UNL     1      21.409   7.199  50.516  1.00  0.00    -0.264 NA
HETATM    8  C7  UNL     1      21.963   7.381  49.194  1.00  0.00     0.268 C 
HETATM    9  N3  UNL     1      22.746   8.500  48.925  1.00  0.00    -0.399 N 
HETATM   10  C8  UNL     1      22.148   9.684  48.595  1.00  0.00     0.144 C 
HETATM   11  C9  UNL     1      24.144   8.342  49.019  1.00  0.00     0.124 C 
HETATM   12  C10 UNL     1      24.733   7.492  47.945  1.00  0.00     0.033 C 
HETATM   13  C11 UNL     1      25.103   6.256  48.456  1.00  0.00     0.120 A 
HETATM   14  C12 UNL     1      25.424   5.037  49.148  1.00  0.00     0.011 A 
HETATM   15 CL1  UNL     1      25.238   6.174  50.471  1.00  0.00    -0.176 Cl
HETATM   16  C13 UNL     1      25.843   3.773  49.461  1.00  0.00    -0.003 C 
HETATM   17  C14 UNL     1      25.587   3.533  50.898  1.00  0.00     0.056 C 
HETATM   18  C15 UNL     1      24.579   2.403  51.064  1.00  0.00    -0.009 C 
HETATM   19  C16 UNL     1      23.322   2.808  51.267  1.00  0.00    -0.002 C 
HETATM   20  C17 UNL     1      22.663   1.465  51.522  1.00  0.00     0.096 C 
ENDROOT
BRANCH   1  21
HETATM   21  O1  UNL     1      20.325   0.060  51.372  1.00  0.00    -0.315 OA
HETATM   22  C1  UNL     1      19.010   0.125  51.839  1.00  0.00     0.221 C 
ENDBRANCH   1  21
BRANCH   1  23
HETATM   23  O2  UNL     1      21.701   0.444  53.774  1.00  0.00    -0.315 OA
HETATM   24  C2  UNL     1      22.406  -0.729  53.807  1.00  0.00     0.221 C 
ENDBRANCH   1  23
TORSDOF 2
ENDMDL
