MODEL 1
REMARK VINA RESULT:      -7.1      0.000      0.000
REMARK  6 active torsions:
REMARK  status: ('A' for Active; 'I' for Inactive)
REMARK    1  A    between atoms: C2_2  and  O1_3 
REMARK    2  A    between atoms: C2_2  and  C4_5 
REMARK    3  A    between atoms: C4_5  and  O2_20 
REMARK    4  A    between atoms: C5_6  and  C6_7 
REMARK    5  A    between atoms: C9_12  and  N3_13 
REMARK    6  A    between atoms: N3_13  and  C10_14 
ROOT
HETATM    1  C6  UNL     1      23.841  -0.658  54.497  1.00  0.00     0.030 A 
HETATM    2  C7  UNL     1      23.201  -1.550  55.363  1.00  0.00     0.133 A 
HETATM    3  N1  UNL     1      21.897  -1.860  55.138  1.00  0.00    -0.253 NA
HETATM    4  C8  UNL     1      21.216  -1.332  54.109  1.00  0.00     0.234 A 
HETATM    5  N2  UNL     1      21.841  -0.478  53.289  1.00  0.00    -0.224 NA
HETATM    6  C9  UNL     1      23.126  -0.129  53.454  1.00  0.00     0.137 A 
ENDROOT
BRANCH   1   7
HETATM    7  C5  UNL     1      25.196  -0.428  54.864  1.00  0.00     0.056 C 
HETATM    8  C4  UNL     1      26.409  -0.543  54.406  1.00  0.00     0.098 C 
BRANCH   8   9
HETATM    9  C2  UNL     1      26.745  -1.066  53.087  1.00  0.00     0.079 C 
HETATM   10  C1  UNL     1      26.784  -0.626  51.844  1.00  0.00     0.074 C 
BRANCH   9  11
HETATM   11  O1  UNL     1      27.162  -2.380  52.915  1.00  0.00    -0.357 OA
HETATM   12  C3  UNL     1      28.542  -2.658  52.997  1.00  0.00     0.209 C 
ENDBRANCH   9  11
ENDBRANCH   8   9
BRANCH   8  13
HETATM   13  O2  UNL     1      27.482  -0.152  55.196  1.00  0.00    -0.353 OA
HETATM   14  C15 UNL     1      28.555   0.583  54.646  1.00  0.00     0.210 C 
ENDBRANCH   8  13
ENDBRANCH   1   7
BRANCH   6  15
HETATM   15  N3  UNL     1      23.741   0.802  52.595  1.00  0.00    -0.363 N 
HETATM   16  H9  UNL     1      24.511   0.352  52.017  1.00  0.00     0.162 HD
BRANCH  15  17
HETATM   17  C10 UNL     1      23.707   2.172  52.210  1.00  0.00     0.131 A 
HETATM   18  C11 UNL     1      22.834   2.249  50.989  1.00  0.00     0.003 A 
HETATM   19  C12 UNL     1      23.548   2.731  49.957  1.00  0.00     0.017 A 
HETATM   20  C13 UNL     1      24.919   3.006  50.409  1.00  0.00     0.009 A 
HETATM   21 BR1  UNL     1      26.519   3.676  49.624  1.00  0.00    -0.051 Br
HETATM   22  C14 UNL     1      25.010   2.686  51.693  1.00  0.00     0.021 A 
ENDBRANCH  15  17
ENDBRANCH   6  15
TORSDOF 6
ENDMDL
MODEL 2
REMARK VINA RESULT:      -6.9      1.210      2.041
REMARK  6 active torsions:
REMARK  status: ('A' for Active; 'I' for Inactive)
REMARK    1  A    between atoms: C2_2  and  O1_3 
REMARK    2  A    between atoms: C2_2  and  C4_5 
REMARK    3  A    between atoms: C4_5  and  O2_20 
REMARK    4  A    between atoms: C5_6  and  C6_7 
REMARK    5  A    between atoms: C9_12  and  N3_13 
REMARK    6  A    between atoms: N3_13  and  C10_14 
ROOT
HETATM    1  C6  UNL     1      23.468  -0.340  53.445  1.00  0.00     0.030 A 
HETATM    2  C7  UNL     1      23.138  -1.041  54.609  1.00  0.00     0.133 A 
HETATM    3  N1  UNL     1      21.921  -0.831  55.177  1.00  0.00    -0.253 NA
HETATM    4  C8  UNL     1      21.037   0.030  54.649  1.00  0.00     0.234 A 
HETATM    5  N2  UNL     1      21.367   0.695  53.535  1.00  0.00    -0.224 NA
HETATM    6  C9  UNL     1      22.551   0.535  52.923  1.00  0.00     0.137 A 
ENDROOT
BRANCH   1   7
HETATM    7  C5  UNL     1      24.771  -0.661  52.973  1.00  0.00     0.056 C 
HETATM    8  C4  UNL     1      26.014  -0.293  53.083  1.00  0.00     0.098 C 
BRANCH   8   9
HETATM    9  C2  UNL     1      26.475   0.809  53.922  1.00  0.00     0.079 C 
HETATM   10  C1  UNL     1      26.362   2.122  53.956  1.00  0.00     0.074 C 
BRANCH   9  11
HETATM   11  O1  UNL     1      27.264   0.582  55.043  1.00  0.00    -0.357 OA
HETATM   12  C3  UNL     1      28.656   0.455  54.864  1.00  0.00     0.209 C 
ENDBRANCH   9  11
ENDBRANCH   8   9
BRANCH   8  13
HETATM   13  O2  UNL     1      26.997  -0.968  52.373  1.00  0.00    -0.353 OA
HETATM   14  C15 UNL     1      27.215  -2.348  52.572  1.00  0.00     0.210 C 
ENDBRANCH   8  13
ENDBRANCH   1   7
BRANCH   6  15
HETATM   15  N3  UNL     1      22.881   1.280  51.774  1.00  0.00    -0.363 N 
HETATM   16  H9  UNL     1      23.167   0.650  50.968  1.00  0.00     0.162 HD
BRANCH  15  17
HETATM   17  C10 UNL     1      22.976   2.614  51.287  1.00  0.00     0.131 A 
HETATM   18  C11 UNL     1      22.495   2.582  49.864  1.00  0.00     0.003 A 
HETATM   19  C12 UNL     1      23.483   2.989  49.048  1.00  0.00     0.017 A 
HETATM   20  C13 UNL     1      24.668   3.314  49.854  1.00  0.00     0.009 A 
HETATM   21 BR1  UNL     1      26.435   3.937  49.515  1.00  0.00    -0.051 Br
HETATM   22  C14 UNL     1      24.379   3.099  51.130  1.00  0.00     0.021 A 
ENDBRANCH  15  17
ENDBRANCH   6  15
TORSDOF 6
ENDMDL
MODEL 3
REMARK VINA RESULT:      -6.8      2.525      4.832
REMARK  6 active torsions:
REMARK  status: ('A' for Active; 'I' for Inactive)
REMARK    1  A    between atoms: C2_2  and  O1_3 
REMARK    2  A    between atoms: C2_2  and  C4_5 
REMARK    3  A    between atoms: C4_5  and  O2_20 
REMARK    4  A    between atoms: C5_6  and  C6_7 
REMARK    5  A    between atoms: C9_12  and  N3_13 
REMARK    6  A    between atoms: N3_13  and  C10_14 
ROOT
HETATM    1  C6  UNL     1      25.819   1.112  51.755  1.00  0.00     0.030 A 
HETATM    2  C7  UNL     1      26.785   1.945  51.183  1.00  0.00     0.133 A 
HETATM    3  N1  UNL     1      26.415   3.184  50.761  1.00  0.00    -0.253 NA
HETATM    4  C8  UNL     1      25.151   3.619  50.881  1.00  0.00     0.234 A 
HETATM    5  N2  UNL     1      24.237   2.810  51.430  1.00  0.00    -0.224 NA
HETATM    6  C9  UNL     1      24.535   1.577  51.867  1.00  0.00     0.137 A 
ENDROOT
BRANCH   1   7
HETATM    7  C5  UNL     1      26.354  -0.148  52.140  1.00  0.00     0.056 C 
HETATM    8  C4  UNL     1      26.849  -0.774  53.168  1.00  0.00     0.098 C 
BRANCH   8   9
HETATM    9  C2  UNL     1      27.014  -0.181  54.491  1.00  0.00     0.079 C 
HETATM   10  C1  UNL     1      26.246   0.190  55.497  1.00  0.00     0.074 C 
BRANCH   9  11
HETATM   11  O1  UNL     1      28.272   0.142  54.986  1.00  0.00    -0.357 OA
HETATM   12  C3  UNL     1      29.058   1.060  54.260  1.00  0.00     0.209 C 
ENDBRANCH   9  11
ENDBRANCH   8   9
BRANCH   8  13
HETATM   13  O2  UNL     1      27.258  -2.094  53.039  1.00  0.00    -0.353 OA
HETATM   14  C15 UNL     1      28.629  -2.424  52.968  1.00  0.00     0.210 C 
ENDBRANCH   8  13
ENDBRANCH   1   7
BRANCH   6  15
HETATM   15  N3  UNL     1      23.539   0.737  52.404  1.00  0.00    -0.363 N 
HETATM   16  H9  UNL     1      23.293  -0.054  51.738  1.00  0.00     0.162 HD
BRANCH  15  17
HETATM   17  C10 UNL     1      22.715   0.560  53.551  1.00  0.00     0.131 A 
HETATM   18  C11 UNL     1      22.955  -0.842  54.035  1.00  0.00     0.003 A 
HETATM   19  C12 UNL     1      21.801  -1.531  54.001  1.00  0.00     0.017 A 
HETATM   20  C13 UNL     1      20.733  -0.655  53.503  1.00  0.00     0.009 A 
HETATM   21 BR1  UNL     1      18.868  -0.818  53.153  1.00  0.00    -0.051 Br
HETATM   22  C14 UNL     1      21.254   0.538  53.245  1.00  0.00     0.021 A 
ENDBRANCH  15  17
ENDBRANCH   6  15
TORSDOF 6
ENDMDL
MODEL 4
REMARK VINA RESULT:      -6.8      1.906      2.686
REMARK  6 active torsions:
REMARK  status: ('A' for Active; 'I' for Inactive)
REMARK    1  A    between atoms: C2_2  and  O1_3 
REMARK    2  A    between atoms: C2_2  and  C4_5 
REMARK    3  A    between atoms: C4_5  and  O2_20 
REMARK    4  A    between atoms: C5_6  and  C6_7 
REMARK    5  A    between atoms: C9_12  and  N3_13 
REMARK    6  A    between atoms: N3_13  and  C10_14 
ROOT
HETATM    1  C6  UNL     1      24.101   1.337  52.616  1.00  0.00     0.030 A 
HETATM    2  C7  UNL     1      23.462   0.310  53.318  1.00  0.00     0.133 A 
HETATM    3  N1  UNL     1      22.273  -0.158  52.855  1.00  0.00    -0.253 NA
HETATM    4  C8  UNL     1      21.704   0.340  51.745  1.00  0.00     0.234 A 
HETATM    5  N2  UNL     1      22.328   1.323  51.084  1.00  0.00    -0.224 NA
HETATM    6  C9  UNL     1      23.502   1.831  51.487  1.00  0.00     0.137 A 
ENDROOT
BRANCH   1   7
HETATM    7  C5  UNL     1      25.327   1.724  53.224  1.00  0.00     0.056 C 
HETATM    8  C4  UNL     1      26.515   1.270  53.501  1.00  0.00     0.098 C 
BRANCH   8   9
HETATM    9  C2  UNL     1      26.980  -0.073  53.174  1.00  0.00     0.079 C 
HETATM   10  C1  UNL     1      26.845  -0.939  52.189  1.00  0.00     0.074 C 
BRANCH   9  11
HETATM   11  O1  UNL     1      27.810  -0.781  54.035  1.00  0.00    -0.357 OA
HETATM   12  C3  UNL     1      29.082  -1.167  53.568  1.00  0.00     0.209 C 
ENDBRANCH   9  11
ENDBRANCH   8   9
BRANCH   8  13
HETATM   13  O2  UNL     1      27.431   2.088  54.149  1.00  0.00    -0.353 OA
HETATM   14  C15 UNL     1      28.623   2.490  53.509  1.00  0.00     0.210 C 
ENDBRANCH   8  13
ENDBRANCH   1   7
BRANCH   6  15
HETATM   15  N3  UNL     1      24.112   2.892  50.789  1.00  0.00    -0.363 N 
HETATM   16  H9  UNL     1      24.147   3.778  51.375  1.00  0.00     0.162 HD
BRANCH  15  17
HETATM   17  C10 UNL     1      24.713   3.220  49.541  1.00  0.00     0.131 A 
HETATM   18  C11 UNL     1      26.175   2.903  49.678  1.00  0.00     0.003 A 
HETATM   19  C12 UNL     1      26.896   4.022  49.490  1.00  0.00     0.017 A 
HETATM   20  C13 UNL     1      25.983   5.141  49.220  1.00  0.00     0.009 A 
HETATM   21 BR1  UNL     1      26.156   7.002  48.858  1.00  0.00    -0.051 Br
HETATM   22  C14 UNL     1      24.738   4.684  49.250  1.00  0.00     0.021 A 
ENDBRANCH  15  17
ENDBRANCH   6  15
TORSDOF 6
ENDMDL
MODEL 5
REMARK VINA RESULT:      -6.8      2.926      5.242
REMARK  6 active torsions:
REMARK  status: ('A' for Active; 'I' for Inactive)
REMARK    1  A    between atoms: C2_2  and  O1_3 
REMARK    2  A    between atoms: C2_2  and  C4_5 
REMARK    3  A    between atoms: C4_5  and  O2_20 
REMARK    4  A    between atoms: C5_6  and  C6_7 
REMARK    5  A    between atoms: C9_12  and  N3_13 
REMARK    6  A    between atoms: N3_13  and  C10_14 
ROOT
HETATM    1  C6  UNL     1      22.518  -0.539  53.230  1.00  0.00     0.030 A 
HETATM    2  C7  UNL     1      21.721  -1.309  54.083  1.00  0.00     0.133 A 
HETATM    3  N1  UNL     1      22.258  -1.766  55.245  1.00  0.00    -0.253 NA
HETATM    4  C8  UNL     1      23.528  -1.497  55.588  1.00  0.00     0.234 A 
HETATM    5  N2  UNL     1      24.279  -0.759  54.761  1.00  0.00    -0.224 NA
HETATM    6  C9  UNL     1      23.811  -0.277  53.599  1.00  0.00     0.137 A 
ENDROOT
BRANCH   1   7
HETATM    7  C5  UNL     1      21.821  -0.139  52.056  1.00  0.00     0.056 C 
HETATM    8  C4  UNL     1      21.356   0.918  51.458  1.00  0.00     0.098 C 
BRANCH   8   9
HETATM    9  C2  UNL     1      21.464   2.275  51.982  1.00  0.00     0.079 C 
HETATM   10  C1  UNL     1      20.652   3.244  52.357  1.00  0.00     0.074 C 
BRANCH   9  11
HETATM   11  O1  UNL     1      22.701   2.864  52.212  1.00  0.00    -0.357 OA
HETATM   12  C3  UNL     1      23.420   3.359  51.105  1.00  0.00     0.209 C 
ENDBRANCH   9  11
ENDBRANCH   8   9
BRANCH   8  13
HETATM   13  O2  UNL     1      20.708   0.788  50.237  1.00  0.00    -0.353 OA
HETATM   14  C15 UNL     1      21.391   1.028  49.025  1.00  0.00     0.210 C 
ENDBRANCH   8  13
ENDBRANCH   1   7
BRANCH   6  15
HETATM   15  N3  UNL     1      24.641   0.463  52.735  1.00  0.00    -0.363 N 
HETATM   16  H9  UNL     1      24.167   1.355  52.405  1.00  0.00     0.162 HD
BRANCH  15  17
HETATM   17  C10 UNL     1      25.925   0.446  52.119  1.00  0.00     0.131 A 
HETATM   18  C11 UNL     1      26.493  -0.924  52.359  1.00  0.00     0.003 A 
HETATM   19  C12 UNL     1      27.636  -0.819  53.059  1.00  0.00     0.017 A 
HETATM   20  C13 UNL     1      27.904   0.600  53.330  1.00  0.00     0.009 A 
HETATM   21 BR1  UNL     1      29.255   1.599  54.226  1.00  0.00    -0.051 Br
HETATM   22  C14 UNL     1      26.928   1.321  52.795  1.00  0.00     0.021 A 
ENDBRANCH  15  17
ENDBRANCH   6  15
TORSDOF 6
ENDMDL
MODEL 6
REMARK VINA RESULT:      -6.7      1.718      2.205
REMARK  6 active torsions:
REMARK  status: ('A' for Active; 'I' for Inactive)
REMARK    1  A    between atoms: C2_2  and  O1_3 
REMARK    2  A    between atoms: C2_2  and  C4_5 
REMARK    3  A    between atoms: C4_5  and  O2_20 
REMARK    4  A    between atoms: C5_6  and  C6_7 
REMARK    5  A    between atoms: C9_12  and  N3_13 
REMARK    6  A    between atoms: N3_13  and  C10_14 
ROOT
HETATM    1  C6  UNL     1      23.741  -0.279  53.462  1.00  0.00     0.030 A 
HETATM    2  C7  UNL     1      24.072  -0.830  54.704  1.00  0.00     0.133 A 
HETATM    3  N1  UNL     1      23.106  -1.466  55.417  1.00  0.00    -0.253 NA
HETATM    4  C8  UNL     1      21.849  -1.574  54.958  1.00  0.00     0.234 A 
HETATM    5  N2  UNL     1      21.546  -1.041  53.768  1.00  0.00    -0.224 NA
HETATM    6  C9  UNL     1      22.452  -0.401  53.013  1.00  0.00     0.137 A 
ENDROOT
BRANCH   1   7
HETATM    7  C5  UNL     1      24.851   0.355  52.839  1.00  0.00     0.056 C 
HETATM    8  C4  UNL     1      26.098   0.152  52.526  1.00  0.00     0.098 C 
BRANCH   8   9
HETATM    9  C2  UNL     1      26.828  -1.077  52.815  1.00  0.00     0.079 C 
HETATM   10  C1  UNL     1      26.910  -2.300  52.328  1.00  0.00     0.074 C 
BRANCH   9  11
HETATM   11  O1  UNL     1      27.737  -1.149  53.864  1.00  0.00    -0.357 OA
HETATM   12  C3  UNL     1      29.106  -0.988  53.572  1.00  0.00     0.209 C 
ENDBRANCH   9  11
ENDBRANCH   8   9
BRANCH   8  13
HETATM   13  O2  UNL     1      26.814   1.145  51.873  1.00  0.00    -0.353 OA
HETATM   14  C15 UNL     1      26.233   2.405  51.613  1.00  0.00     0.210 C 
ENDBRANCH   8  13
ENDBRANCH   1   7
BRANCH   6  15
HETATM   15  N3  UNL     1      22.089   0.182  51.783  1.00  0.00    -0.363 N 
HETATM   16  H9  UNL     1      22.258  -0.482  50.971  1.00  0.00     0.162 HD
BRANCH  15  17
HETATM   17  C10 UNL     1      21.565   1.377  51.216  1.00  0.00     0.131 A 
HETATM   18  C11 UNL     1      22.274   1.572  49.905  1.00  0.00     0.003 A 
HETATM   19  C12 UNL     1      22.941   2.739  49.926  1.00  0.00     0.017 A 
HETATM   20  C13 UNL     1      22.727   3.392  51.225  1.00  0.00     0.009 A 
HETATM   21 BR1  UNL     1      23.283   5.008  52.063  1.00  0.00    -0.051 Br
HETATM   22  C14 UNL     1      21.943   2.615  51.960  1.00  0.00     0.021 A 
ENDBRANCH  15  17
ENDBRANCH   6  15
TORSDOF 6
ENDMDL
MODEL 7
REMARK VINA RESULT:      -6.6      1.741      2.111
REMARK  6 active torsions:
REMARK  status: ('A' for Active; 'I' for Inactive)
REMARK    1  A    between atoms: C2_2  and  O1_3 
REMARK    2  A    between atoms: C2_2  and  C4_5 
REMARK    3  A    between atoms: C4_5  and  O2_20 
REMARK    4  A    between atoms: C5_6  and  C6_7 
REMARK    5  A    between atoms: C9_12  and  N3_13 
REMARK    6  A    between atoms: N3_13  and  C10_14 
ROOT
HETATM    1  C6  UNL     1      23.302  -0.490  54.403  1.00  0.00     0.030 A 
HETATM    2  C7  UNL     1      22.593  -1.575  54.927  1.00  0.00     0.133 A 
HETATM    3  N1  UNL     1      21.276  -1.708  54.618  1.00  0.00    -0.253 NA
HETATM    4  C8  UNL     1      20.647  -0.824  53.826  1.00  0.00     0.234 A 
HETATM    5  N2  UNL     1      21.339   0.210  53.333  1.00  0.00    -0.224 NA
HETATM    6  C9  UNL     1      22.640   0.400  53.598  1.00  0.00     0.137 A 
ENDROOT
BRANCH   1   7
HETATM    7  C5  UNL     1      24.663  -0.483  54.818  1.00  0.00     0.056 C 
HETATM    8  C4  UNL     1      25.871  -0.609  54.351  1.00  0.00     0.098 C 
BRANCH   8   9
HETATM    9  C2  UNL     1      26.191  -0.846  52.948  1.00  0.00     0.079 C 
HETATM   10  C1  UNL     1      26.761  -1.789  52.223  1.00  0.00     0.074 C 
BRANCH   9  11
HETATM   11  O1  UNL     1      25.870   0.083  51.966  1.00  0.00    -0.357 OA
HETATM   12  C3  UNL     1      26.762   1.152  51.742  1.00  0.00     0.209 C 
ENDBRANCH   9  11
ENDBRANCH   8   9
BRANCH   8  13
HETATM   13  O2  UNL     1      26.955  -0.515  55.213  1.00  0.00    -0.353 OA
HETATM   14  C15 UNL     1      28.099   0.234  54.861  1.00  0.00     0.210 C 
ENDBRANCH   8  13
ENDBRANCH   1   7
BRANCH   6  15
HETATM   15  N3  UNL     1      23.327   1.521  53.093  1.00  0.00    -0.363 N 
HETATM   16  H9  UNL     1      24.114   1.823  53.741  1.00  0.00     0.162 HD
BRANCH  15  17
HETATM   17  C10 UNL     1      23.348   2.428  51.997  1.00  0.00     0.131 A 
HETATM   18  C11 UNL     1      22.185   3.359  52.192  1.00  0.00     0.003 A 
HETATM   19  C12 UNL     1      21.346   3.254  51.147  1.00  0.00     0.017 A 
HETATM   20  C13 UNL     1      21.881   2.266  50.199  1.00  0.00     0.009 A 
HETATM   21 BR1  UNL     1      21.348   1.536  48.524  1.00  0.00    -0.051 Br
HETATM   22  C14 UNL     1      23.022   1.795  50.684  1.00  0.00     0.021 A 
ENDBRANCH  15  17
ENDBRANCH   6  15
TORSDOF 6
ENDMDL
MODEL 8
REMARK VINA RESULT:      -6.6      3.311      5.700
REMARK  6 active torsions:
REMARK  status: ('A' for Active; 'I' for Inactive)
REMARK    1  A    between atoms: C2_2  and  O1_3 
REMARK    2  A    between atoms: C2_2  and  C4_5 
REMARK    3  A    between atoms: C4_5  and  O2_20 
REMARK    4  A    between atoms: C5_6  and  C6_7 
REMARK    5  A    between atoms: C9_12  and  N3_13 
REMARK    6  A    between atoms: N3_13  and  C10_14 
ROOT
HETATM    1  C6  UNL     1      25.388   1.538  53.281  1.00  0.00     0.030 A 
HETATM    2  C7  UNL     1      26.758   1.805  53.360  1.00  0.00     0.133 A 
HETATM    3  N1  UNL     1      27.615   0.772  53.577  1.00  0.00    -0.253 NA
HETATM    4  C8  UNL     1      27.176  -0.489  53.717  1.00  0.00     0.234 A 
HETATM    5  N2  UNL     1      25.862  -0.729  53.639  1.00  0.00    -0.224 NA
HETATM    6  C9  UNL     1      24.962   0.244  53.427  1.00  0.00     0.137 A 
ENDROOT
BRANCH   1   7
HETATM    7  C5  UNL     1      24.621   2.715  53.057  1.00  0.00     0.056 C 
HETATM    8  C4  UNL     1      23.918   3.314  52.141  1.00  0.00     0.098 C 
BRANCH   8   9
HETATM    9  C2  UNL     1      23.701   2.791  50.797  1.00  0.00     0.079 C 
HETATM   10  C1  UNL     1      23.959   3.154  49.555  1.00  0.00     0.074 C 
BRANCH   9  11
HETATM   11  O1  UNL     1      23.058   1.577  50.589  1.00  0.00    -0.357 OA
HETATM   12  C3  UNL     1      21.882   1.570  49.812  1.00  0.00     0.209 C 
ENDBRANCH   9  11
ENDBRANCH   8   9
BRANCH   8  13
HETATM   13  O2  UNL     1      23.317   4.534  52.422  1.00  0.00    -0.353 OA
HETATM   14  C15 UNL     1      21.936   4.728  52.204  1.00  0.00     0.210 C 
ENDBRANCH   8  13
ENDBRANCH   1   7
BRANCH   6  15
HETATM   15  N3  UNL     1      23.583  -0.039  53.390  1.00  0.00    -0.363 N 
HETATM   16  H9  UNL     1      23.316  -0.575  52.512  1.00  0.00     0.162 HD
BRANCH  15  17
HETATM   17  C10 UNL     1      22.377   0.141  54.125  1.00  0.00     0.131 A 
HETATM   18  C11 UNL     1      21.992  -1.213  54.650  1.00  0.00     0.003 A 
HETATM   19  C12 UNL     1      20.787  -1.556  54.163  1.00  0.00     0.017 A 
HETATM   20  C13 UNL     1      20.293  -0.476  53.297  1.00  0.00     0.009 A 
HETATM   21 BR1  UNL     1      18.737  -0.154  52.249  1.00  0.00    -0.051 Br
HETATM   22  C14 UNL     1      21.200   0.491  53.275  1.00  0.00     0.021 A 
ENDBRANCH  15  17
ENDBRANCH   6  15
TORSDOF 6
ENDMDL
MODEL 9
REMARK VINA RESULT:      -6.5      3.106      5.276
REMARK  6 active torsions:
REMARK  status: ('A' for Active; 'I' for Inactive)
REMARK    1  A    between atoms: C2_2  and  O1_3 
REMARK    2  A    between atoms: C2_2  and  C4_5 
REMARK    3  A    between atoms: C4_5  and  O2_20 
REMARK    4  A    between atoms: C5_6  and  C6_7 
REMARK    5  A    between atoms: C9_12  and  N3_13 
REMARK    6  A    between atoms: N3_13  and  C10_14 
ROOT
HETATM    1  C6  UNL     1      22.817   0.506  52.493  1.00  0.00     0.030 A 
HETATM    2  C7  UNL     1      21.438   0.276  52.512  1.00  0.00     0.133 A 
HETATM    3  N1  UNL     1      20.916  -0.494  53.504  1.00  0.00    -0.253 NA
HETATM    4  C8  UNL     1      21.692  -1.035  54.457  1.00  0.00     0.234 A 
HETATM    5  N2  UNL     1      23.011  -0.806  54.425  1.00  0.00    -0.224 NA
HETATM    6  C9  UNL     1      23.590  -0.056  53.475  1.00  0.00     0.137 A 
ENDROOT
BRANCH   1   7
HETATM    7  C5  UNL     1      23.213   1.322  51.398  1.00  0.00     0.056 C 
HETATM    8  C4  UNL     1      23.355   2.569  51.055  1.00  0.00     0.098 C 
BRANCH   8   9
HETATM    9  C2  UNL     1      23.069   3.701  51.929  1.00  0.00     0.079 C 
HETATM   10  C1  UNL     1      23.613   4.285  52.979  1.00  0.00     0.074 C 
BRANCH   9  11
HETATM   11  O1  UNL     1      21.944   4.495  51.739  1.00  0.00    -0.357 OA
HETATM   12  C3  UNL     1      20.675   3.890  51.845  1.00  0.00     0.209 C 
ENDBRANCH   9  11
ENDBRANCH   8   9
BRANCH   8  13
HETATM   13  O2  UNL     1      23.808   2.886  49.781  1.00  0.00    -0.353 OA
HETATM   14  C15 UNL     1      25.082   3.464  49.589  1.00  0.00     0.210 C 
ENDBRANCH   8  13
ENDBRANCH   1   7
BRANCH   6  15
HETATM   15  N3  UNL     1      24.986   0.131  53.450  1.00  0.00    -0.363 N 
HETATM   16  H9  UNL     1      25.432  -0.356  52.618  1.00  0.00     0.162 HD
BRANCH  15  17
HETATM   17  C10 UNL     1      26.050   0.755  54.161  1.00  0.00     0.131 A 
HETATM   18  C11 UNL     1      26.500   1.916  53.320  1.00  0.00     0.003 A 
HETATM   19  C12 UNL     1      27.791   1.753  52.984  1.00  0.00     0.017 A 
HETATM   20  C13 UNL     1      28.284   0.497  53.565  1.00  0.00     0.009 A 
HETATM   21 BR1  UNL     1      29.929  -0.461  53.581  1.00  0.00    -0.051 Br
HETATM   22  C14 UNL     1      27.291  -0.073  54.235  1.00  0.00     0.021 A 
ENDBRANCH  15  17
ENDBRANCH   6  15
TORSDOF 6
ENDMDL
