MODEL 1
REMARK VINA RESULT:      -7.4      0.000      0.000
REMARK  2 active torsions:
REMARK  status: ('A' for Active; 'I' for Inactive)
REMARK    1  A    between atoms: O1_2  and  C2_3 
REMARK    2  A    between atoms: N3_18  and  N4_19 
ROOT
HETATM    1  C2  UNL     1      26.263  -0.427  53.449  1.00  0.00     0.123 C 
HETATM    2  C3  UNL     1      25.123  -0.781  54.016  1.00  0.00     0.048 C 
HETATM    3  C4  UNL     1      23.806  -0.202  53.848  1.00  0.00     0.027 C 
HETATM    4  C5  UNL     1      23.503   0.818  53.070  1.00  0.00     0.137 C 
HETATM    5  O2  UNL     1      23.462   1.875  52.199  1.00  0.00    -0.336 OA
HETATM    6  C6  UNL     1      23.701   1.829  50.814  1.00  0.00     0.267 C 
HETATM    7  C7  UNL     1      22.563   2.332  49.996  1.00  0.00     0.136 C 
HETATM    8  N1  UNL     1      22.834   3.531  49.641  1.00  0.00    -0.269 NA
HETATM    9  C8  UNL     1      24.131   3.917  50.174  1.00  0.00     0.151 A 
HETATM   10  C9  UNL     1      23.868   4.678  51.396  1.00  0.00     0.024 A 
HETATM   11  C10 UNL     1      24.118   5.962  51.669  1.00  0.00    -0.000 A 
HETATM   12  C11 UNL     1      24.744   6.810  50.652  1.00  0.00    -0.004 A 
HETATM   13  C12 UNL     1      25.007   6.168  49.513  1.00  0.00    -0.022 A 
HETATM   14  C13 UNL     1      24.779   4.765  49.101  1.00  0.00     0.083 A 
HETATM   15  N2  UNL     1      24.754   2.650  50.334  1.00  0.00    -0.137 NA
HETATM   16  N3  UNL     1      25.930   2.600  51.000  1.00  0.00    -0.190 N 
HETATM   17  C14 UNL     1      26.066   1.544  51.859  1.00  0.00     0.049 C 
HETATM   18  C15 UNL     1      26.165   0.649  52.575  1.00  0.00    -0.016 C 
ENDROOT
BRANCH  16  19
HETATM   19  N4  UNL     1      26.947   3.545  50.842  1.00  0.00    -0.224 NA
HETATM   20  H15 UNL     1      27.702   3.081  50.282  1.00  0.00     0.145 HD
HETATM   21  H16 UNL     1      27.412   3.797  51.744  1.00  0.00     0.145 HD
ENDBRANCH  16  19
BRANCH   1  22
HETATM   22  O1  UNL     1      27.540  -0.957  53.585  1.00  0.00    -0.347 OA
HETATM   23  C1  UNL     1      28.612  -0.320  54.217  1.00  0.00     0.211 C 
ENDBRANCH   1  22
TORSDOF 2
ENDMDL
MODEL 2
REMARK VINA RESULT:      -7.4      2.099      5.990
REMARK  2 active torsions:
REMARK  status: ('A' for Active; 'I' for Inactive)
REMARK    1  A    between atoms: O1_2  and  C2_3 
REMARK    2  A    between atoms: N3_18  and  N4_19 
ROOT
HETATM    1  C2  UNL     1      23.396   3.080  50.939  1.00  0.00     0.123 C 
HETATM    2  C3  UNL     1      22.392   2.221  50.947  1.00  0.00     0.048 C 
HETATM    3  C4  UNL     1      22.312   0.921  51.579  1.00  0.00     0.027 C 
HETATM    4  C5  UNL     1      23.264   0.345  52.284  1.00  0.00     0.137 C 
HETATM    5  O2  UNL     1      24.399  -0.021  52.960  1.00  0.00    -0.336 OA
HETATM    6  C6  UNL     1      24.921   0.590  54.114  1.00  0.00     0.267 C 
HETATM    7  C7  UNL     1      25.073  -0.341  55.266  1.00  0.00     0.136 C 
HETATM    8  N1  UNL     1      26.302  -0.690  55.329  1.00  0.00    -0.269 NA
HETATM    9  C8  UNL     1      27.049  -0.045  54.261  1.00  0.00     0.151 A 
HETATM   10  C9  UNL     1      27.158  -1.024  53.179  1.00  0.00     0.024 A 
HETATM   11  C10 UNL     1      28.244  -1.620  52.675  1.00  0.00    -0.000 A 
HETATM   12  C11 UNL     1      29.564  -1.306  53.229  1.00  0.00    -0.004 A 
HETATM   13  C12 UNL     1      29.526  -0.417  54.221  1.00  0.00    -0.022 A 
HETATM   14  C13 UNL     1      28.398   0.301  54.856  1.00  0.00     0.083 A 
HETATM   15  N2  UNL     1      26.243   1.097  54.007  1.00  0.00    -0.137 NA
HETATM   16  N3  UNL     1      26.532   1.851  52.923  1.00  0.00    -0.190 N 
HETATM   17  C14 UNL     1      25.446   2.294  52.218  1.00  0.00     0.049 C 
HETATM   18  C15 UNL     1      24.522   2.659  51.639  1.00  0.00    -0.016 C 
ENDROOT
BRANCH  16  19
HETATM   19  N4  UNL     1      27.834   2.167  52.528  1.00  0.00    -0.224 NA
HETATM   20  H15 UNL     1      27.985   3.174  52.776  1.00  0.00     0.145 HD
HETATM   21  H16 UNL     1      27.963   2.135  51.490  1.00  0.00     0.145 HD
ENDBRANCH  16  19
BRANCH   1  22
HETATM   22  O1  UNL     1      23.509   4.332  50.347  1.00  0.00    -0.347 OA
HETATM   23  C1  UNL     1      23.904   5.500  51.005  1.00  0.00     0.211 C 
ENDBRANCH   1  22
TORSDOF 2
ENDMDL
MODEL 3
REMARK VINA RESULT:      -7.3      2.357      5.973
REMARK  2 active torsions:
REMARK  status: ('A' for Active; 'I' for Inactive)
REMARK    1  A    between atoms: O1_2  and  C2_3 
REMARK    2  A    between atoms: N3_18  and  N4_19 
ROOT
HETATM    1  C2  UNL     1      22.696   4.667  51.125  1.00  0.00     0.123 C 
HETATM    2  C3  UNL     1      21.946   3.970  50.291  1.00  0.00     0.048 C 
HETATM    3  C4  UNL     1      21.867   2.533  50.122  1.00  0.00     0.027 C 
HETATM    4  C5  UNL     1      22.555   1.637  50.798  1.00  0.00     0.137 C 
HETATM    5  O2  UNL     1      23.382   0.928  51.631  1.00  0.00    -0.336 OA
HETATM    6  C6  UNL     1      23.288   0.844  53.032  1.00  0.00     0.267 C 
HETATM    7  C7  UNL     1      23.146  -0.549  53.538  1.00  0.00     0.136 C 
HETATM    8  N1  UNL     1      24.294  -0.937  53.948  1.00  0.00    -0.269 NA
HETATM    9  C8  UNL     1      25.267   0.127  53.758  1.00  0.00     0.151 A 
HETATM   10  C9  UNL     1      25.968  -0.169  52.509  1.00  0.00     0.024 A 
HETATM   11  C10 UNL     1      27.255  -0.474  52.306  1.00  0.00    -0.000 A 
HETATM   12  C11 UNL     1      28.170  -0.545  53.448  1.00  0.00    -0.004 A 
HETATM   13  C12 UNL     1      27.583  -0.283  54.616  1.00  0.00    -0.022 A 
HETATM   14  C13 UNL     1      26.186   0.063  54.959  1.00  0.00     0.083 A 
HETATM   15  N2  UNL     1      24.428   1.274  53.760  1.00  0.00    -0.137 NA
HETATM   16  N3  UNL     1      24.974   2.461  53.411  1.00  0.00    -0.190 N 
HETATM   17  C14 UNL     1      24.189   3.249  52.614  1.00  0.00     0.049 C 
HETATM   18  C15 UNL     1      23.515   3.900  51.946  1.00  0.00    -0.016 C 
ENDROOT
BRANCH  16  19
HETATM   19  N4  UNL     1      26.244   2.876  53.819  1.00  0.00    -0.224 NA
HETATM   20  H15 UNL     1      26.632   3.460  53.039  1.00  0.00     0.145 HD
HETATM   21  H16 UNL     1      26.921   2.084  53.910  1.00  0.00     0.145 HD
ENDBRANCH  16  19
BRANCH   1  22
HETATM   22  O1  UNL     1      22.799   6.040  51.315  1.00  0.00    -0.347 OA
HETATM   23  C1  UNL     1      21.909   6.990  50.805  1.00  0.00     0.211 C 
ENDBRANCH   1  22
TORSDOF 2
ENDMDL
MODEL 4
REMARK VINA RESULT:      -7.0      2.592      4.311
REMARK  2 active torsions:
REMARK  status: ('A' for Active; 'I' for Inactive)
REMARK    1  A    between atoms: O1_2  and  C2_3 
REMARK    2  A    between atoms: N3_18  and  N4_19 
ROOT
HETATM    1  C2  UNL     1      26.934   0.237  52.989  1.00  0.00     0.123 C 
HETATM    2  C3  UNL     1      27.545   1.212  52.339  1.00  0.00     0.048 C 
HETATM    3  C4  UNL     1      26.968   2.323  51.612  1.00  0.00     0.027 C 
HETATM    4  C5  UNL     1      25.681   2.565  51.466  1.00  0.00     0.137 C 
HETATM    5  O2  UNL     1      24.310   2.584  51.467  1.00  0.00    -0.336 OA
HETATM    6  C6  UNL     1      23.476   2.782  52.582  1.00  0.00     0.267 C 
HETATM    7  C7  UNL     1      22.550   3.939  52.435  1.00  0.00     0.136 C 
HETATM    8  N1  UNL     1      21.401   3.482  52.105  1.00  0.00    -0.269 NA
HETATM    9  C8  UNL     1      21.460   2.032  52.007  1.00  0.00     0.151 A 
HETATM   10  C9  UNL     1      21.637   1.719  50.589  1.00  0.00     0.024 A 
HETATM   11  C10 UNL     1      20.818   1.076  49.750  1.00  0.00    -0.000 A 
HETATM   12  C11 UNL     1      19.529   0.578  50.238  1.00  0.00    -0.004 A 
HETATM   13  C12 UNL     1      19.313   0.836  51.528  1.00  0.00    -0.022 A 
HETATM   14  C13 UNL     1      20.137   1.531  52.542  1.00  0.00     0.083 A 
HETATM   15  N2  UNL     1      22.555   1.740  52.864  1.00  0.00    -0.137 NA
HETATM   16  N3  UNL     1      23.034   0.476  52.875  1.00  0.00    -0.190 N 
HETATM   17  C14 UNL     1      24.398   0.373  52.919  1.00  0.00     0.049 C 
HETATM   18  C15 UNL     1      25.545   0.304  52.958  1.00  0.00    -0.016 C 
ENDROOT
BRANCH  16  19
HETATM   19  N4  UNL     1      22.219  -0.658  52.842  1.00  0.00    -0.224 NA
HETATM   20  H15 UNL     1      22.564  -1.296  53.599  1.00  0.00     0.145 HD
HETATM   21  H16 UNL     1      22.333  -1.215  51.964  1.00  0.00     0.145 HD
ENDBRANCH  16  19
BRANCH   1  22
HETATM   22  O1  UNL     1      27.453  -0.841  53.696  1.00  0.00    -0.347 OA
HETATM   23  C1  UNL     1      28.688  -1.447  53.445  1.00  0.00     0.211 C 
ENDBRANCH   1  22
TORSDOF 2
ENDMDL
MODEL 5
REMARK VINA RESULT:      -6.9      2.625      3.305
REMARK  2 active torsions:
REMARK  status: ('A' for Active; 'I' for Inactive)
REMARK    1  A    between atoms: O1_2  and  C2_3 
REMARK    2  A    between atoms: N3_18  and  N4_19 
ROOT
HETATM    1  C2  UNL     1      21.519  -1.179  54.323  1.00  0.00     0.123 C 
HETATM    2  C3  UNL     1      20.234  -1.241  54.019  1.00  0.00     0.048 C 
HETATM    3  C4  UNL     1      19.501  -0.502  53.012  1.00  0.00     0.027 C 
HETATM    4  C5  UNL     1      20.007   0.394  52.190  1.00  0.00     0.137 C 
HETATM    5  O2  UNL     1      20.775   1.270  51.467  1.00  0.00    -0.336 OA
HETATM    6  C6  UNL     1      21.811   0.938  50.577  1.00  0.00     0.267 C 
HETATM    7  C7  UNL     1      21.602   1.457  49.197  1.00  0.00     0.136 C 
HETATM    8  N1  UNL     1      22.309   2.515  49.064  1.00  0.00    -0.269 NA
HETATM    9  C8  UNL     1      23.026   2.783  50.300  1.00  0.00     0.151 A 
HETATM   10  C9  UNL     1      22.243   3.783  51.027  1.00  0.00     0.024 A 
HETATM   11  C10 UNL     1      22.560   5.041  51.351  1.00  0.00    -0.000 A 
HETATM   12  C11 UNL     1      23.864   5.583  50.961  1.00  0.00    -0.004 A 
HETATM   13  C12 UNL     1      24.623   4.712  50.294  1.00  0.00    -0.022 A 
HETATM   14  C13 UNL     1      24.381   3.312  49.882  1.00  0.00     0.083 A 
HETATM   15  N2  UNL     1      23.087   1.484  50.873  1.00  0.00    -0.137 NA
HETATM   16  N3  UNL     1      23.528   1.372  52.147  1.00  0.00    -0.190 N 
HETATM   17  C14 UNL     1      22.839   0.480  52.922  1.00  0.00     0.049 C 
HETATM   18  C15 UNL     1      22.250  -0.275  53.560  1.00  0.00    -0.016 C 
ENDROOT
BRANCH  16  19
HETATM   19  N4  UNL     1      24.604   2.101  52.658  1.00  0.00    -0.224 NA
HETATM   20  H15 UNL     1      24.202   2.786  53.342  1.00  0.00     0.145 HD
HETATM   21  H16 UNL     1      25.070   2.699  51.937  1.00  0.00     0.145 HD
ENDBRANCH  16  19
BRANCH   1  22
HETATM   22  O1  UNL     1      22.254  -1.869  55.279  1.00  0.00    -0.347 OA
HETATM   23  C1  UNL     1      23.531  -1.512  55.722  1.00  0.00     0.211 C 
ENDBRANCH   1  22
TORSDOF 2
ENDMDL
MODEL 6
REMARK VINA RESULT:      -6.8      2.272      5.810
REMARK  2 active torsions:
REMARK  status: ('A' for Active; 'I' for Inactive)
REMARK    1  A    between atoms: O1_2  and  C2_3 
REMARK    2  A    between atoms: N3_18  and  N4_19 
ROOT
HETATM    1  C2  UNL     1      22.541   3.942  48.018  1.00  0.00     0.123 C 
HETATM    2  C3  UNL     1      21.632   3.005  47.813  1.00  0.00     0.048 C 
HETATM    3  C4  UNL     1      21.386   1.795  48.570  1.00  0.00     0.027 C 
HETATM    4  C5  UNL     1      22.052   1.403  49.638  1.00  0.00     0.137 C 
HETATM    5  O2  UNL     1      22.892   1.231  50.708  1.00  0.00    -0.336 OA
HETATM    6  C6  UNL     1      22.952   2.031  51.862  1.00  0.00     0.267 C 
HETATM    7  C7  UNL     1      22.726   1.275  53.125  1.00  0.00     0.136 C 
HETATM    8  N1  UNL     1      23.868   1.048  53.656  1.00  0.00    -0.269 NA
HETATM    9  C8  UNL     1      24.916   1.614  52.823  1.00  0.00     0.151 A 
HETATM   10  C9  UNL     1      25.436   0.517  52.005  1.00  0.00     0.024 A 
HETATM   11  C10 UNL     1      26.652  -0.038  51.999  1.00  0.00    -0.000 A 
HETATM   12  C11 UNL     1      27.680   0.461  52.916  1.00  0.00    -0.004 A 
HETATM   13  C12 UNL     1      27.262   1.465  53.687  1.00  0.00    -0.022 A 
HETATM   14  C13 UNL     1      25.956   2.154  53.781  1.00  0.00     0.083 A 
HETATM   15  N2  UNL     1      24.206   2.636  52.138  1.00  0.00    -0.137 NA
HETATM   16  N3  UNL     1      24.827   3.266  51.115  1.00  0.00    -0.190 N 
HETATM   17  C14 UNL     1      24.041   3.515  50.024  1.00  0.00     0.049 C 
HETATM   18  C15 UNL     1      23.365   3.718  49.115  1.00  0.00    -0.016 C 
ENDROOT
BRANCH  16  19
HETATM   19  N4  UNL     1      26.171   3.645  51.145  1.00  0.00    -0.224 NA
HETATM   20  H15 UNL     1      26.712   2.804  51.461  1.00  0.00     0.145 HD
HETATM   21  H16 UNL     1      26.374   4.371  51.870  1.00  0.00     0.145 HD
ENDBRANCH  16  19
BRANCH   1  22
HETATM   22  O1  UNL     1      22.805   5.112  47.316  1.00  0.00    -0.347 OA
HETATM   23  C1  UNL     1      22.117   5.536  46.175  1.00  0.00     0.211 C 
ENDBRANCH   1  22
TORSDOF 2
ENDMDL
MODEL 7
REMARK VINA RESULT:      -6.7      1.892      3.728
REMARK  2 active torsions:
REMARK  status: ('A' for Active; 'I' for Inactive)
REMARK    1  A    between atoms: O1_2  and  C2_3 
REMARK    2  A    between atoms: N3_18  and  N4_19 
ROOT
HETATM    1  C2  UNL     1      25.593  -0.407  54.080  1.00  0.00     0.123 C 
HETATM    2  C3  UNL     1      26.775  -0.144  53.552  1.00  0.00     0.048 C 
HETATM    3  C4  UNL     1      27.102   0.722  52.438  1.00  0.00     0.027 C 
HETATM    4  C5  UNL     1      26.244   1.427  51.729  1.00  0.00     0.137 C 
HETATM    5  O2  UNL     1      25.160   2.047  51.164  1.00  0.00    -0.336 OA
HETATM    6  C6  UNL     1      24.336   3.012  51.770  1.00  0.00     0.267 C 
HETATM    7  C7  UNL     1      24.271   4.296  51.019  1.00  0.00     0.136 C 
HETATM    8  N1  UNL     1      23.180   4.304  50.350  1.00  0.00    -0.269 NA
HETATM    9  C8  UNL     1      22.451   3.069  50.588  1.00  0.00     0.151 A 
HETATM   10  C9  UNL     1      22.759   2.181  49.467  1.00  0.00     0.024 A 
HETATM   11  C10 UNL     1      21.950   1.694  48.519  1.00  0.00    -0.000 A 
HETATM   12  C11 UNL     1      20.529   2.052  48.527  1.00  0.00    -0.004 A 
HETATM   13  C12 UNL     1      20.190   2.862  49.530  1.00  0.00    -0.022 A 
HETATM   14  C13 UNL     1      20.988   3.458  50.624  1.00  0.00     0.083 A 
HETATM   15  N2  UNL     1      22.957   2.688  51.859  1.00  0.00    -0.137 NA
HETATM   16  N3  UNL     1      22.639   1.460  52.328  1.00  0.00    -0.190 N 
HETATM   17  C14 UNL     1      23.660   0.793  52.948  1.00  0.00     0.049 C 
HETATM   18  C15 UNL     1      24.529   0.247  53.469  1.00  0.00    -0.016 C 
ENDROOT
BRANCH  16  19
HETATM   19  N4  UNL     1      21.370   0.890  52.200  1.00  0.00    -0.224 NA
HETATM   20  H15 UNL     1      20.683   1.617  52.514  1.00  0.00     0.145 HD
HETATM   21  H16 UNL     1      21.216   0.089  52.855  1.00  0.00     0.145 HD
ENDBRANCH  16  19
BRANCH   1  22
HETATM   22  O1  UNL     1      25.242  -1.228  55.144  1.00  0.00    -0.347 OA
HETATM   23  C1  UNL     1      23.957  -1.341  55.682  1.00  0.00     0.211 C 
ENDBRANCH   1  22
TORSDOF 2
ENDMDL
MODEL 8
REMARK VINA RESULT:      -6.7      8.100      9.678
REMARK  2 active torsions:
REMARK  status: ('A' for Active; 'I' for Inactive)
REMARK    1  A    between atoms: O1_2  and  C2_3 
REMARK    2  A    between atoms: N3_18  and  N4_19 
ROOT
HETATM    1  C2  UNL     1      33.183   2.543  46.996  1.00  0.00     0.123 C 
HETATM    2  C3  UNL     1      34.086   2.831  46.076  1.00  0.00     0.048 C 
HETATM    3  C4  UNL     1      34.495   4.127  45.576  1.00  0.00     0.027 C 
HETATM    4  C5  UNL     1      34.020   5.292  45.968  1.00  0.00     0.137 C 
HETATM    5  O2  UNL     1      33.365   6.347  46.547  1.00  0.00    -0.336 OA
HETATM    6  C6  UNL     1      33.453   6.754  47.890  1.00  0.00     0.267 C 
HETATM    7  C7  UNL     1      33.903   8.163  48.058  1.00  0.00     0.136 C 
HETATM    8  N1  UNL     1      32.868   8.882  48.282  1.00  0.00    -0.269 NA
HETATM    9  C8  UNL     1      31.681   8.042  48.281  1.00  0.00     0.151 A 
HETATM   10  C9  UNL     1      31.085   8.165  46.950  1.00  0.00     0.024 A 
HETATM   11  C10 UNL     1      29.906   8.683  46.590  1.00  0.00    -0.000 A 
HETATM   12  C11 UNL     1      29.014   9.233  47.613  1.00  0.00    -0.004 A 
HETATM   13  C12 UNL     1      29.507   9.148  48.849  1.00  0.00    -0.022 A 
HETATM   14  C13 UNL     1      30.782   8.602  49.363  1.00  0.00     0.083 A 
HETATM   15  N2  UNL     1      32.234   6.777  48.616  1.00  0.00    -0.137 NA
HETATM   16  N3  UNL     1      31.436   5.690  48.522  1.00  0.00    -0.190 N 
HETATM   17  C14 UNL     1      32.032   4.577  47.994  1.00  0.00     0.049 C 
HETATM   18  C15 UNL     1      32.550   3.650  47.550  1.00  0.00    -0.016 C 
ENDROOT
BRANCH  16  19
HETATM   19  N4  UNL     1      30.099   5.676  48.925  1.00  0.00    -0.224 NA
HETATM   20  H15 UNL     1      29.687   4.783  48.563  1.00  0.00     0.145 HD
HETATM   21  H16 UNL     1      29.529   6.426  48.469  1.00  0.00     0.145 HD
ENDBRANCH  16  19
BRANCH   1  22
HETATM   22  O1  UNL     1      32.766   1.317  47.500  1.00  0.00    -0.347 OA
HETATM   23  C1  UNL     1      32.076   0.343  46.773  1.00  0.00     0.211 C 
ENDBRANCH   1  22
TORSDOF 2
ENDMDL
MODEL 9
REMARK VINA RESULT:      -6.5      8.132     10.822
REMARK  2 active torsions:
REMARK  status: ('A' for Active; 'I' for Inactive)
REMARK    1  A    between atoms: O1_2  and  C2_3 
REMARK    2  A    between atoms: N3_18  and  N4_19 
ROOT
HETATM    1  C2  UNL     1      29.729   9.509  49.173  1.00  0.00     0.123 C 
HETATM    2  C3  UNL     1      30.399  10.574  48.770  1.00  0.00     0.048 C 
HETATM    3  C4  UNL     1      31.579  10.644  47.933  1.00  0.00     0.027 C 
HETATM    4  C5  UNL     1      32.215   9.617  47.406  1.00  0.00     0.137 C 
HETATM    5  O2  UNL     1      32.679   8.397  46.988  1.00  0.00    -0.336 OA
HETATM    6  C6  UNL     1      32.025   7.504  46.121  1.00  0.00     0.267 C 
HETATM    7  C7  UNL     1      32.817   7.163  44.908  1.00  0.00     0.136 C 
HETATM    8  N1  UNL     1      33.358   6.019  45.100  1.00  0.00    -0.269 NA
HETATM    9  C8  UNL     1      32.985   5.517  46.413  1.00  0.00     0.151 A 
HETATM   10  C9  UNL     1      34.096   5.837  47.311  1.00  0.00     0.024 A 
HETATM   11  C10 UNL     1      34.923   5.018  47.968  1.00  0.00    -0.000 A 
HETATM   12  C11 UNL     1      34.770   3.567  47.825  1.00  0.00    -0.004 A 
HETATM   13  C12 UNL     1      33.770   3.216  47.016  1.00  0.00    -0.022 A 
HETATM   14  C13 UNL     1      32.799   4.025  46.244  1.00  0.00     0.083 A 
HETATM   15  N2  UNL     1      31.765   6.209  46.640  1.00  0.00    -0.137 NA
HETATM   16  N3  UNL     1      31.211   6.134  47.871  1.00  0.00    -0.190 N 
HETATM   17  C14 UNL     1      30.684   7.305  48.342  1.00  0.00     0.049 C 
HETATM   18  C15 UNL     1      30.243   8.298  48.721  1.00  0.00    -0.016 C 
ENDROOT
BRANCH  16  19
HETATM   19  N4  UNL     1      31.170   4.961  48.629  1.00  0.00    -0.224 NA
HETATM   20  H15 UNL     1      31.745   4.252  48.113  1.00  0.00     0.145 HD
HETATM   21  H16 UNL     1      30.214   4.538  48.672  1.00  0.00     0.145 HD
ENDBRANCH  16  19
BRANCH   1  22
HETATM   22  O1  UNL     1      28.598   9.403  49.973  1.00  0.00    -0.347 OA
HETATM   23  C1  UNL     1      27.290   9.263  49.500  1.00  0.00     0.211 C 
ENDBRANCH   1  22
TORSDOF 2
ENDMDL
