MODEL 1
REMARK VINA RESULT:      -7.5      0.000      0.000
REMARK  9 active torsions:
REMARK  status: ('A' for Active; 'I' for Inactive)
REMARK    1  A    between atoms: C2_2  and  N1_3 
REMARK    2  A    between atoms: C2_2  and  C13_17 
REMARK    3  A    between atoms: N1_3  and  C3_4 
REMARK    4  A    between atoms: C3_4  and  N2_5 
REMARK    5  A    between atoms: N2_5  and  C4_6 
REMARK    6  A    between atoms: C4_6  and  N3_7 
REMARK    7  A    between atoms: N3_7  and  C5_8 
REMARK    8  A    between atoms: C9_12  and  C10_13 
REMARK    9  A    between atoms: C10_13  and  C11_14 
ROOT
HETATM    1  C1  UNL     1      22.960   3.769  48.247  1.00  0.00     0.071 C 
HETATM    2  C2  UNL     1      23.328   3.283  49.583  1.00  0.00     0.038 C 
ENDROOT
BRANCH   2   3
HETATM    3  N1  UNL     1      24.524   3.670  50.286  1.00  0.00    -0.246 NA
BRANCH   3   4
HETATM    4  C3  UNL     1      25.510   4.145  49.579  1.00  0.00     0.234 C 
BRANCH   4   5
HETATM    5  N2  UNL     1      26.273   2.970  49.714  1.00  0.00    -0.237 NA
BRANCH   5   6
HETATM    6  C4  UNL     1      26.606   2.456  50.843  1.00  0.00     0.208 C 
BRANCH   6   7
HETATM    7  N3  UNL     1      26.503   2.720  52.220  1.00  0.00    -0.351 N 
HETATM    8  H6  UNL     1      25.734   3.388  52.377  1.00  0.00     0.166 HD
BRANCH   7   9
HETATM    9  C5  UNL     1      27.504   1.960  52.887  1.00  0.00     0.033 A 
HETATM   10  C6  UNL     1      28.501   2.459  53.696  1.00  0.00     0.029 A 
HETATM   11  C7  UNL     1      29.385   1.560  54.254  1.00  0.00     0.003 A 
HETATM   12  C8  UNL     1      29.281   0.225  54.017  1.00  0.00     0.007 A 
HETATM   13  C9  UNL     1      28.281  -0.282  53.205  1.00  0.00    -0.054 A 
HETATM   14  C12 UNL     1      27.388   0.604  52.639  1.00  0.00     0.036 A 
BRANCH  13  15
HETATM   15  C10 UNL     1      28.245  -1.754  53.006  1.00  0.00     0.070 C 
BRANCH  15  16
HETATM   16  C11 UNL     1      26.816  -2.202  52.795  1.00  0.00     0.226 C 
HETATM   17  F1  UNL     1      26.648  -2.470  51.459  1.00  0.00    -0.255 F 
ENDBRANCH  15  16
ENDBRANCH  13  15
ENDBRANCH   7   9
ENDBRANCH   6   7
ENDBRANCH   5   6
ENDBRANCH   4   5
ENDBRANCH   3   4
ENDBRANCH   2   3
BRANCH   2  18
HETATM   18  C13 UNL     1      22.531   2.420  50.239  1.00  0.00    -0.009 C 
HETATM   19  C14 UNL     1      21.696   1.613  49.375  1.00  0.00     0.206 C 
HETATM   20  O1  UNL     1      20.357   1.505  49.346  1.00  0.00    -0.387 OA
HETATM   21  C15 UNL     1      19.777   0.836  50.413  1.00  0.00     0.169 C 
HETATM   22  C16 UNL     1      19.699   1.637  51.648  1.00  0.00     0.056 C 
HETATM   23  C17 UNL     1      19.869   0.868  52.942  1.00  0.00     0.278 C 
HETATM   24  N4  UNL     1      21.039   0.061  53.053  1.00  0.00     0.121 N 
HETATM   25  C18 UNL     1      20.712  -1.091  53.851  1.00  0.00     0.301 C 
HETATM   26  C21 UNL     1      22.297   0.665  53.314  1.00  0.00     0.383 C 
HETATM   27  C19 UNL     1      21.919  -1.930  54.172  1.00  0.00     0.198 C 
HETATM   28  O2  UNL     1      22.763  -1.077  54.921  1.00  0.00    -0.385 OA
HETATM   29  C20 UNL     1      23.304  -0.221  53.962  1.00  0.00     0.231 C 
HETATM   30  O3  UNL     1      22.820   0.893  51.974  1.00  0.00    -0.351 OA
HETATM   31  C22 UNL     1      22.568   2.229  51.690  1.00  0.00     0.209 C 
ENDBRANCH   2  18
TORSDOF 9
ENDMDL
MODEL 2
REMARK VINA RESULT:      -7.3      4.518      7.836
REMARK  9 active torsions:
REMARK  status: ('A' for Active; 'I' for Inactive)
REMARK    1  A    between atoms: C2_2  and  N1_3 
REMARK    2  A    between atoms: C2_2  and  C13_17 
REMARK    3  A    between atoms: N1_3  and  C3_4 
REMARK    4  A    between atoms: C3_4  and  N2_5 
REMARK    5  A    between atoms: N2_5  and  C4_6 
REMARK    6  A    between atoms: C4_6  and  N3_7 
REMARK    7  A    between atoms: N3_7  and  C5_8 
REMARK    8  A    between atoms: C9_12  and  C10_13 
REMARK    9  A    between atoms: C10_13  and  C11_14 
ROOT
HETATM    1  C1  UNL     1      26.519   3.287  49.907  1.00  0.00     0.071 C 
HETATM    2  C2  UNL     1      25.765   4.547  49.952  1.00  0.00     0.038 C 
ENDROOT
BRANCH   2   3
HETATM    3  N1  UNL     1      24.491   4.707  50.607  1.00  0.00    -0.246 NA
BRANCH   3   4
HETATM    4  C3  UNL     1      23.590   3.788  50.401  1.00  0.00     0.234 C 
BRANCH   4   5
HETATM    5  N2  UNL     1      23.094   3.872  51.716  1.00  0.00    -0.237 NA
BRANCH   5   6
HETATM    6  C4  UNL     1      23.641   3.303  52.728  1.00  0.00     0.208 C 
BRANCH   6   7
HETATM    7  N3  UNL     1      24.854   3.303  53.441  1.00  0.00    -0.351 N 
HETATM    8  H6  UNL     1      24.958   4.208  53.924  1.00  0.00     0.166 HD
BRANCH   7   9
HETATM    9  C5  UNL     1      25.487   2.047  53.229  1.00  0.00     0.033 A 
HETATM   10  C6  UNL     1      24.876   0.889  52.802  1.00  0.00     0.029 A 
HETATM   11  C7  UNL     1      25.661  -0.236  52.659  1.00  0.00     0.003 A 
HETATM   12  C8  UNL     1      26.993  -0.208  52.928  1.00  0.00     0.007 A 
HETATM   13  C9  UNL     1      27.613   0.953  53.357  1.00  0.00    -0.054 A 
HETATM   14  C12 UNL     1      26.842   2.087  53.506  1.00  0.00     0.036 A 
BRANCH  13  15
HETATM   15  C10 UNL     1      29.073   0.889  53.624  1.00  0.00     0.070 C 
BRANCH  15  16
HETATM   16  C11 UNL     1      29.461  -0.530  53.976  1.00  0.00     0.226 C 
HETATM   17  F1  UNL     1      30.151  -1.058  52.913  1.00  0.00    -0.255 F 
ENDBRANCH  15  16
ENDBRANCH  13  15
ENDBRANCH   7   9
ENDBRANCH   6   7
ENDBRANCH   5   6
ENDBRANCH   4   5
ENDBRANCH   3   4
ENDBRANCH   2   3
BRANCH   2  18
HETATM   18  C13 UNL     1      26.250   5.654  49.363  1.00  0.00    -0.009 C 
HETATM   19  C14 UNL     1      25.714   6.890  49.895  1.00  0.00     0.206 C 
HETATM   20  O1  UNL     1      25.052   7.871  49.259  1.00  0.00    -0.387 OA
HETATM   21  C15 UNL     1      25.804   8.653  48.395  1.00  0.00     0.169 C 
HETATM   22  C16 UNL     1      26.100   8.001  47.107  1.00  0.00     0.056 C 
HETATM   23  C17 UNL     1      27.447   8.329  46.497  1.00  0.00     0.278 C 
HETATM   24  N4  UNL     1      28.587   8.125  47.328  1.00  0.00     0.121 N 
HETATM   25  C18 UNL     1      29.572   9.115  46.984  1.00  0.00     0.301 C 
HETATM   26  C21 UNL     1      29.076   6.811  47.555  1.00  0.00     0.383 C 
HETATM   27  C19 UNL     1      30.885   8.890  47.685  1.00  0.00     0.198 C 
HETATM   28  O2  UNL     1      31.326   7.626  47.229  1.00  0.00    -0.385 OA
HETATM   29  C20 UNL     1      30.517   6.724  47.920  1.00  0.00     0.231 C 
HETATM   30  O3  UNL     1      28.368   6.418  48.766  1.00  0.00    -0.351 OA
HETATM   31  C22 UNL     1      27.302   5.633  48.345  1.00  0.00     0.209 C 
ENDBRANCH   2  18
TORSDOF 9
ENDMDL
MODEL 3
REMARK VINA RESULT:      -7.2      4.307      7.825
REMARK  9 active torsions:
REMARK  status: ('A' for Active; 'I' for Inactive)
REMARK    1  A    between atoms: C2_2  and  N1_3 
REMARK    2  A    between atoms: C2_2  and  C13_17 
REMARK    3  A    between atoms: N1_3  and  C3_4 
REMARK    4  A    between atoms: C3_4  and  N2_5 
REMARK    5  A    between atoms: N2_5  and  C4_6 
REMARK    6  A    between atoms: C4_6  and  N3_7 
REMARK    7  A    between atoms: N3_7  and  C5_8 
REMARK    8  A    between atoms: C9_12  and  C10_13 
REMARK    9  A    between atoms: C10_13  and  C11_14 
ROOT
HETATM    1  C1  UNL     1      26.558   3.118  49.976  1.00  0.00     0.071 C 
HETATM    2  C2  UNL     1      25.868   4.414  49.936  1.00  0.00     0.038 C 
ENDROOT
BRANCH   2   3
HETATM    3  N1  UNL     1      24.643   4.703  50.637  1.00  0.00    -0.246 NA
BRANCH   3   4
HETATM    4  C3  UNL     1      23.640   3.891  50.453  1.00  0.00     0.234 C 
BRANCH   4   5
HETATM    5  N2  UNL     1      23.194   4.019  51.783  1.00  0.00    -0.237 NA
BRANCH   5   6
HETATM    6  C4  UNL     1      23.700   3.380  52.774  1.00  0.00     0.208 C 
BRANCH   6   7
HETATM    7  N3  UNL     1      24.886   3.320  53.527  1.00  0.00    -0.351 N 
HETATM    8  H6  UNL     1      24.978   4.186  54.078  1.00  0.00     0.166 HD
BRANCH   7   9
HETATM    9  C5  UNL     1      25.521   2.078  53.245  1.00  0.00     0.033 A 
HETATM   10  C6  UNL     1      24.919   0.957  52.719  1.00  0.00     0.029 A 
HETATM   11  C7  UNL     1      25.704  -0.159  52.521  1.00  0.00     0.003 A 
HETATM   12  C8  UNL     1      27.028  -0.158  52.830  1.00  0.00     0.007 A 
HETATM   13  C9  UNL     1      27.638   0.967  53.359  1.00  0.00    -0.054 A 
HETATM   14  C12 UNL     1      26.867   2.091  53.565  1.00  0.00     0.036 A 
BRANCH  13  15
HETATM   15  C10 UNL     1      29.089   0.875  53.664  1.00  0.00     0.070 C 
BRANCH  15  16
HETATM   16  C11 UNL     1      29.454  -0.562  53.965  1.00  0.00     0.226 C 
HETATM   17  F1  UNL     1      30.125  -1.066  52.878  1.00  0.00    -0.255 F 
ENDBRANCH  15  16
ENDBRANCH  13  15
ENDBRANCH   7   9
ENDBRANCH   6   7
ENDBRANCH   5   6
ENDBRANCH   4   5
ENDBRANCH   3   4
ENDBRANCH   2   3
BRANCH   2  18
HETATM   18  C13 UNL     1      26.370   5.433  49.215  1.00  0.00    -0.009 C 
HETATM   19  C14 UNL     1      27.572   5.101  48.480  1.00  0.00     0.206 C 
HETATM   20  O1  UNL     1      28.790   5.666  48.544  1.00  0.00    -0.387 OA
HETATM   21  C15 UNL     1      28.899   6.940  48.007  1.00  0.00     0.169 C 
HETATM   22  C16 UNL     1      28.347   7.999  48.870  1.00  0.00     0.056 C 
HETATM   23  C17 UNL     1      27.695   9.162  48.149  1.00  0.00     0.278 C 
HETATM   24  N4  UNL     1      26.679   8.834  47.205  1.00  0.00     0.121 N 
HETATM   25  C18 UNL     1      26.726   9.805  46.145  1.00  0.00     0.301 C 
HETATM   26  C21 UNL     1      25.384   8.463  47.654  1.00  0.00     0.383 C 
HETATM   27  C19 UNL     1      25.586   9.654  45.174  1.00  0.00     0.198 C 
HETATM   28  O2  UNL     1      24.422   9.874  45.947  1.00  0.00    -0.385 OA
HETATM   29  C20 UNL     1      24.283   8.696  46.679  1.00  0.00     0.231 C 
HETATM   30  O3  UNL     1      25.488   7.013  47.748  1.00  0.00    -0.351 OA
HETATM   31  C22 UNL     1      25.714   6.735  49.091  1.00  0.00     0.209 C 
ENDBRANCH   2  18
TORSDOF 9
ENDMDL
MODEL 4
REMARK VINA RESULT:      -7.2      2.919      6.820
REMARK  9 active torsions:
REMARK  status: ('A' for Active; 'I' for Inactive)
REMARK    1  A    between atoms: C2_2  and  N1_3 
REMARK    2  A    between atoms: C2_2  and  C13_17 
REMARK    3  A    between atoms: N1_3  and  C3_4 
REMARK    4  A    between atoms: C3_4  and  N2_5 
REMARK    5  A    between atoms: N2_5  and  C4_6 
REMARK    6  A    between atoms: C4_6  and  N3_7 
REMARK    7  A    between atoms: N3_7  and  C5_8 
REMARK    8  A    between atoms: C9_12  and  C10_13 
REMARK    9  A    between atoms: C10_13  and  C11_14 
ROOT
HETATM    1  C1  UNL     1      24.957   2.849  53.164  1.00  0.00     0.071 C 
HETATM    2  C2  UNL     1      25.574   2.577  51.859  1.00  0.00     0.038 C 
ENDROOT
BRANCH   2   3
HETATM    3  N1  UNL     1      26.304   1.376  51.542  1.00  0.00    -0.246 NA
BRANCH   3   4
HETATM    4  C3  UNL     1      27.115   0.908  52.448  1.00  0.00     0.234 C 
BRANCH   4   5
HETATM    5  N2  UNL     1      26.596  -0.397  52.348  1.00  0.00    -0.237 NA
BRANCH   5   6
HETATM    6  C4  UNL     1      25.700  -0.876  53.133  1.00  0.00     0.208 C 
BRANCH   6   7
HETATM    7  N3  UNL     1      25.082  -0.593  54.364  1.00  0.00    -0.351 N 
HETATM    8  H6  UNL     1      25.809  -0.380  55.063  1.00  0.00     0.166 HD
BRANCH   7   9
HETATM    9  C5  UNL     1      23.676  -0.707  54.184  1.00  0.00     0.033 A 
HETATM   10  C6  UNL     1      22.779  -1.234  55.087  1.00  0.00     0.029 A 
HETATM   11  C7  UNL     1      21.448  -1.261  54.727  1.00  0.00     0.003 A 
HETATM   12  C8  UNL     1      21.029  -0.785  53.525  1.00  0.00     0.007 A 
HETATM   13  C9  UNL     1      21.926  -0.253  52.614  1.00  0.00    -0.054 A 
HETATM   14  C12 UNL     1      23.261  -0.219  52.957  1.00  0.00     0.036 A 
BRANCH  13  15
HETATM   15  C10 UNL     1      21.376   0.245  51.327  1.00  0.00     0.070 C 
BRANCH  15  16
HETATM   16  C11 UNL     1      22.262   1.347  50.789  1.00  0.00     0.226 C 
HETATM   17  F1  UNL     1      21.531   2.508  50.770  1.00  0.00    -0.255 F 
ENDBRANCH  15  16
ENDBRANCH  13  15
ENDBRANCH   7   9
ENDBRANCH   6   7
ENDBRANCH   5   6
ENDBRANCH   4   5
ENDBRANCH   3   4
ENDBRANCH   2   3
BRANCH   2  18
HETATM   18  C13 UNL     1      25.482   3.473  50.860  1.00  0.00    -0.009 C 
HETATM   19  C14 UNL     1      26.482   3.310  49.826  1.00  0.00     0.206 C 
HETATM   20  O1  UNL     1      27.400   4.188  49.386  1.00  0.00    -0.387 OA
HETATM   21  C15 UNL     1      26.914   5.258  48.649  1.00  0.00     0.169 C 
HETATM   22  C16 UNL     1      26.284   6.308  49.468  1.00  0.00     0.056 C 
HETATM   23  C17 UNL     1      25.103   7.017  48.836  1.00  0.00     0.278 C 
HETATM   24  N4  UNL     1      24.049   6.188  48.353  1.00  0.00     0.121 N 
HETATM   25  C18 UNL     1      23.473   6.825  47.200  1.00  0.00     0.301 C 
HETATM   26  C21 UNL     1      23.132   5.600  49.265  1.00  0.00     0.383 C 
HETATM   27  C19 UNL     1      22.239   6.119  46.707  1.00  0.00     0.198 C 
HETATM   28  O2  UNL     1      21.323   6.198  47.781  1.00  0.00    -0.385 OA
HETATM   29  C20 UNL     1      21.800   5.258  48.694  1.00  0.00     0.231 C 
HETATM   30  O3  UNL     1      23.751   4.312  49.546  1.00  0.00    -0.351 OA
HETATM   31  C22 UNL     1      24.409   4.464  50.760  1.00  0.00     0.209 C 
ENDBRANCH   2  18
TORSDOF 9
ENDMDL
MODEL 5
REMARK VINA RESULT:      -7.1      3.405      5.308
REMARK  9 active torsions:
REMARK  status: ('A' for Active; 'I' for Inactive)
REMARK    1  A    between atoms: C2_2  and  N1_3 
REMARK    2  A    between atoms: C2_2  and  C13_17 
REMARK    3  A    between atoms: N1_3  and  C3_4 
REMARK    4  A    between atoms: C3_4  and  N2_5 
REMARK    5  A    between atoms: N2_5  and  C4_6 
REMARK    6  A    between atoms: C4_6  and  N3_7 
REMARK    7  A    between atoms: N3_7  and  C5_8 
REMARK    8  A    between atoms: C9_12  and  C10_13 
REMARK    9  A    between atoms: C10_13  and  C11_14 
ROOT
HETATM    1  C1  UNL     1      19.195   4.468  50.475  1.00  0.00     0.071 C 
HETATM    2  C2  UNL     1      20.632   4.703  50.668  1.00  0.00     0.038 C 
ENDROOT
BRANCH   2   3
HETATM    3  N1  UNL     1      21.350   5.827  50.123  1.00  0.00    -0.246 NA
BRANCH   3   4
HETATM    4  C3  UNL     1      20.689   6.938  49.956  1.00  0.00     0.234 C 
BRANCH   4   5
HETATM    5  N2  UNL     1      21.565   7.673  50.777  1.00  0.00    -0.237 NA
BRANCH   5   6
HETATM    6  C4  UNL     1      22.835   7.732  50.600  1.00  0.00     0.208 C 
BRANCH   6   7
HETATM    7  N3  UNL     1      24.033   7.412  51.264  1.00  0.00    -0.351 N 
HETATM    8  H6  UNL     1      23.837   7.286  52.268  1.00  0.00     0.166 HD
BRANCH   7   9
HETATM    9  C5  UNL     1      25.075   7.379  50.295  1.00  0.00     0.033 A 
HETATM   10  C6  UNL     1      25.576   8.459  49.602  1.00  0.00     0.029 A 
HETATM   11  C7  UNL     1      26.589   8.225  48.696  1.00  0.00     0.003 A 
HETATM   12  C8  UNL     1      27.081   6.974  48.491  1.00  0.00     0.007 A 
HETATM   13  C9  UNL     1      26.582   5.886  49.186  1.00  0.00    -0.054 A 
HETATM   14  C12 UNL     1      25.568   6.102  50.095  1.00  0.00     0.036 A 
BRANCH  13  15
HETATM   15  C10 UNL     1      27.183   4.558  48.897  1.00  0.00     0.070 C 
BRANCH  15  16
HETATM   16  C11 UNL     1      26.447   3.489  49.674  1.00  0.00     0.226 C 
HETATM   17  F1  UNL     1      25.360   3.098  48.932  1.00  0.00    -0.255 F 
ENDBRANCH  15  16
ENDBRANCH  13  15
ENDBRANCH   7   9
ENDBRANCH   6   7
ENDBRANCH   5   6
ENDBRANCH   4   5
ENDBRANCH   3   4
ENDBRANCH   2   3
BRANCH   2  18
HETATM   18  C13 UNL     1      21.374   3.845  51.392  1.00  0.00    -0.009 C 
HETATM   19  C14 UNL     1      22.250   4.485  52.350  1.00  0.00     0.206 C 
HETATM   20  O1  UNL     1      23.587   4.407  52.464  1.00  0.00    -0.387 OA
HETATM   21  C15 UNL     1      24.089   3.196  52.920  1.00  0.00     0.169 C 
HETATM   22  C16 UNL     1      24.100   2.134  51.899  1.00  0.00     0.056 C 
HETATM   23  C17 UNL     1      23.837   0.731  52.407  1.00  0.00     0.278 C 
HETATM   24  N4  UNL     1      22.651   0.545  53.176  1.00  0.00     0.121 N 
HETATM   25  C18 UNL     1      22.911  -0.476  54.156  1.00  0.00     0.301 C 
HETATM   26  C21 UNL     1      21.388   0.485  52.531  1.00  0.00     0.383 C 
HETATM   27  C19 UNL     1      21.674  -0.872  54.916  1.00  0.00     0.198 C 
HETATM   28  O2  UNL     1      20.797  -1.389  53.935  1.00  0.00    -0.385 OA
HETATM   29  C20 UNL     1      20.330  -0.253  53.276  1.00  0.00     0.231 C 
HETATM   30  O3  UNL     1      20.954   1.875  52.561  1.00  0.00    -0.351 OA
HETATM   31  C22 UNL     1      21.243   2.390  51.304  1.00  0.00     0.209 C 
ENDBRANCH   2  18
TORSDOF 9
ENDMDL
MODEL 6
REMARK VINA RESULT:      -7.1      6.134      9.696
REMARK  9 active torsions:
REMARK  status: ('A' for Active; 'I' for Inactive)
REMARK    1  A    between atoms: C2_2  and  N1_3 
REMARK    2  A    between atoms: C2_2  and  C13_17 
REMARK    3  A    between atoms: N1_3  and  C3_4 
REMARK    4  A    between atoms: C3_4  and  N2_5 
REMARK    5  A    between atoms: N2_5  and  C4_6 
REMARK    6  A    between atoms: C4_6  and  N3_7 
REMARK    7  A    between atoms: N3_7  and  C5_8 
REMARK    8  A    between atoms: C9_12  and  C10_13 
REMARK    9  A    between atoms: C10_13  and  C11_14 
ROOT
HETATM    1  C1  UNL     1      26.280   6.959  48.241  1.00  0.00     0.071 C 
HETATM    2  C2  UNL     1      27.436   6.065  48.387  1.00  0.00     0.038 C 
ENDROOT
BRANCH   2   3
HETATM    3  N1  UNL     1      27.344   4.675  48.757  1.00  0.00    -0.246 NA
BRANCH   3   4
HETATM    4  C3  UNL     1      26.223   4.265  49.279  1.00  0.00     0.234 C 
BRANCH   4   5
HETATM    5  N2  UNL     1      26.835   3.176  49.928  1.00  0.00    -0.237 NA
BRANCH   5   6
HETATM    6  C4  UNL     1      26.586   2.830  51.139  1.00  0.00     0.208 C 
BRANCH   6   7
HETATM    7  N3  UNL     1      25.558   2.914  52.096  1.00  0.00    -0.351 N 
HETATM    8  H6  UNL     1      25.047   3.798  51.962  1.00  0.00     0.166 HD
BRANCH   7   9
HETATM    9  C5  UNL     1      25.607   1.737  52.895  1.00  0.00     0.033 A 
HETATM   10  C6  UNL     1      24.558   0.882  53.149  1.00  0.00     0.029 A 
HETATM   11  C7  UNL     1      24.801  -0.209  53.956  1.00  0.00     0.003 A 
HETATM   12  C8  UNL     1      26.033  -0.439  54.484  1.00  0.00     0.007 A 
HETATM   13  C9  UNL     1      27.092   0.417  54.231  1.00  0.00    -0.054 A 
HETATM   14  C12 UNL     1      26.865   1.514  53.426  1.00  0.00     0.036 A 
BRANCH  13  15
HETATM   15  C10 UNL     1      28.401   0.084  54.849  1.00  0.00     0.070 C 
BRANCH  15  16
HETATM   16  C11 UNL     1      29.251  -0.676  53.855  1.00  0.00     0.226 C 
HETATM   17  F1  UNL     1      30.305   0.128  53.496  1.00  0.00    -0.255 F 
ENDBRANCH  15  16
ENDBRANCH  13  15
ENDBRANCH   7   9
ENDBRANCH   6   7
ENDBRANCH   5   6
ENDBRANCH   4   5
ENDBRANCH   3   4
ENDBRANCH   2   3
BRANCH   2  18
HETATM   18  C13 UNL     1      28.683   6.520  48.170  1.00  0.00    -0.009 C 
HETATM   19  C14 UNL     1      29.698   5.487  48.178  1.00  0.00     0.206 C 
HETATM   20  O1  UNL     1      30.788   5.374  48.955  1.00  0.00    -0.387 OA
HETATM   21  C15 UNL     1      31.810   6.278  48.705  1.00  0.00     0.169 C 
HETATM   22  C16 UNL     1      31.555   7.628  49.238  1.00  0.00     0.056 C 
HETATM   23  C17 UNL     1      32.096   8.776  48.409  1.00  0.00     0.278 C 
HETATM   24  N4  UNL     1      31.718   8.801  47.035  1.00  0.00     0.121 N 
HETATM   25  C18 UNL     1      32.806   9.368  46.284  1.00  0.00     0.301 C 
HETATM   26  C21 UNL     1      30.415   9.225  46.664  1.00  0.00     0.383 C 
HETATM   27  C19 UNL     1      32.451   9.598  44.840  1.00  0.00     0.198 C 
HETATM   28  O2  UNL     1      31.383  10.524  44.873  1.00  0.00    -0.385 OA
HETATM   29  C20 UNL     1      30.291   9.758  45.279  1.00  0.00     0.231 C 
HETATM   30  O3  UNL     1      29.671   7.973  46.642  1.00  0.00    -0.351 OA
HETATM   31  C22 UNL     1      28.990   7.914  47.851  1.00  0.00     0.209 C 
ENDBRANCH   2  18
TORSDOF 9
ENDMDL
MODEL 7
REMARK VINA RESULT:      -7.1      2.290      5.145
REMARK  9 active torsions:
REMARK  status: ('A' for Active; 'I' for Inactive)
REMARK    1  A    between atoms: C2_2  and  N1_3 
REMARK    2  A    between atoms: C2_2  and  C13_17 
REMARK    3  A    between atoms: N1_3  and  C3_4 
REMARK    4  A    between atoms: C3_4  and  N2_5 
REMARK    5  A    between atoms: N2_5  and  C4_6 
REMARK    6  A    between atoms: C4_6  and  N3_7 
REMARK    7  A    between atoms: N3_7  and  C5_8 
REMARK    8  A    between atoms: C9_12  and  C10_13 
REMARK    9  A    between atoms: C10_13  and  C11_14 
ROOT
HETATM    1  C1  UNL     1      18.763   0.150  51.373  1.00  0.00     0.071 C 
HETATM    2  C2  UNL     1      20.146   0.568  51.638  1.00  0.00     0.038 C 
ENDROOT
BRANCH   2   3
HETATM    3  N1  UNL     1      20.968   0.028  52.691  1.00  0.00    -0.246 NA
BRANCH   3   4
HETATM    4  C3  UNL     1      20.378  -0.683  53.610  1.00  0.00     0.234 C 
BRANCH   4   5
HETATM    5  N2  UNL     1      21.491  -1.530  53.776  1.00  0.00    -0.237 NA
BRANCH   5   6
HETATM    6  C4  UNL     1      22.709  -1.124  53.770  1.00  0.00     0.208 C 
BRANCH   6   7
HETATM    7  N3  UNL     1      23.706  -0.690  54.662  1.00  0.00    -0.351 N 
HETATM    8  H6  UNL     1      23.370  -0.817  55.628  1.00  0.00     0.166 HD
BRANCH   7   9
HETATM    9  C5  UNL     1      24.814  -0.236  53.894  1.00  0.00     0.033 A 
HETATM   10  C6  UNL     1      24.761   0.297  52.625  1.00  0.00     0.029 A 
HETATM   11  C7  UNL     1      25.950   0.677  52.039  1.00  0.00     0.003 A 
HETATM   12  C8  UNL     1      27.137   0.533  52.687  1.00  0.00     0.007 A 
HETATM   13  C9  UNL     1      27.196  -0.002  53.962  1.00  0.00    -0.054 A 
HETATM   14  C12 UNL     1      26.016  -0.388  54.563  1.00  0.00     0.036 A 
BRANCH  13  15
HETATM   15  C10 UNL     1      28.536  -0.118  54.591  1.00  0.00     0.070 C 
BRANCH  15  16
HETATM   16  C11 UNL     1      29.478  -0.834  53.649  1.00  0.00     0.226 C 
HETATM   17  F1  UNL     1      30.465   0.048  53.285  1.00  0.00    -0.255 F 
ENDBRANCH  15  16
ENDBRANCH  13  15
ENDBRANCH   7   9
ENDBRANCH   6   7
ENDBRANCH   5   6
ENDBRANCH   4   5
ENDBRANCH   3   4
ENDBRANCH   2   3
BRANCH   2  18
HETATM   18  C13 UNL     1      20.732   1.512  50.880  1.00  0.00    -0.009 C 
HETATM   19  C14 UNL     1      19.944   1.925  49.738  1.00  0.00     0.206 C 
HETATM   20  O1  UNL     1      20.257   1.888  48.431  1.00  0.00    -0.387 OA
HETATM   21  C15 UNL     1      21.215   2.798  48.010  1.00  0.00     0.169 C 
HETATM   22  C16 UNL     1      22.594   2.418  48.364  1.00  0.00     0.056 C 
HETATM   23  C17 UNL     1      23.527   3.565  48.696  1.00  0.00     0.278 C 
HETATM   24  N4  UNL     1      23.084   4.474  49.699  1.00  0.00     0.121 N 
HETATM   25  C18 UNL     1      23.592   5.780  49.372  1.00  0.00     0.301 C 
HETATM   26  C21 UNL     1      23.144   4.106  51.069  1.00  0.00     0.383 C 
HETATM   27  C19 UNL     1      23.324   6.790  50.455  1.00  0.00     0.198 C 
HETATM   28  O2  UNL     1      24.016   6.299  51.587  1.00  0.00    -0.385 OA
HETATM   29  C20 UNL     1      23.220   5.243  52.029  1.00  0.00     0.231 C 
HETATM   30  O3  UNL     1      21.828   3.524  51.296  1.00  0.00    -0.351 OA
HETATM   31  C22 UNL     1      22.005   2.148  51.221  1.00  0.00     0.209 C 
ENDBRANCH   2  18
TORSDOF 9
ENDMDL
MODEL 8
REMARK VINA RESULT:      -7.0      5.602      8.930
REMARK  9 active torsions:
REMARK  status: ('A' for Active; 'I' for Inactive)
REMARK    1  A    between atoms: C2_2  and  N1_3 
REMARK    2  A    between atoms: C2_2  and  C13_17 
REMARK    3  A    between atoms: N1_3  and  C3_4 
REMARK    4  A    between atoms: C3_4  and  N2_5 
REMARK    5  A    between atoms: N2_5  and  C4_6 
REMARK    6  A    between atoms: C4_6  and  N3_7 
REMARK    7  A    between atoms: N3_7  and  C5_8 
REMARK    8  A    between atoms: C9_12  and  C10_13 
REMARK    9  A    between atoms: C10_13  and  C11_14 
ROOT
HETATM    1  C1  UNL     1      25.630   7.957  47.201  1.00  0.00     0.071 C 
HETATM    2  C2  UNL     1      26.518   7.181  48.077  1.00  0.00     0.038 C 
ENDROOT
BRANCH   2   3
HETATM    3  N1  UNL     1      26.108   6.020  48.825  1.00  0.00    -0.246 NA
BRANCH   3   4
HETATM    4  C3  UNL     1      24.893   6.008  49.297  1.00  0.00     0.234 C 
BRANCH   4   5
HETATM    5  N2  UNL     1      24.778   4.610  49.174  1.00  0.00    -0.237 NA
BRANCH   5   6
HETATM    6  C4  UNL     1      25.634   3.775  49.642  1.00  0.00     0.208 C 
BRANCH   6   7
HETATM    7  N3  UNL     1      26.424   3.567  50.787  1.00  0.00    -0.351 N 
HETATM    8  H6  UNL     1      27.166   4.281  50.817  1.00  0.00     0.166 HD
BRANCH   7   9
HETATM    9  C5  UNL     1      25.899   2.441  51.482  1.00  0.00     0.033 A 
HETATM   10  C6  UNL     1      24.588   2.256  51.860  1.00  0.00     0.029 A 
HETATM   11  C7  UNL     1      24.272   1.095  52.534  1.00  0.00     0.003 A 
HETATM   12  C8  UNL     1      25.218   0.160  52.816  1.00  0.00     0.007 A 
HETATM   13  C9  UNL     1      26.538   0.341  52.438  1.00  0.00    -0.054 A 
HETATM   14  C12 UNL     1      26.871   1.497  51.764  1.00  0.00     0.036 A 
BRANCH  13  15
HETATM   15  C10 UNL     1      27.501  -0.735  52.787  1.00  0.00     0.070 C 
BRANCH  15  16
HETATM   16  C11 UNL     1      28.445  -0.241  53.860  1.00  0.00     0.226 C 
HETATM   17  F1  UNL     1      29.718  -0.622  53.514  1.00  0.00    -0.255 F 
ENDBRANCH  15  16
ENDBRANCH  13  15
ENDBRANCH   7   9
ENDBRANCH   6   7
ENDBRANCH   5   6
ENDBRANCH   4   5
ENDBRANCH   3   4
ENDBRANCH   2   3
BRANCH   2  18
HETATM   18  C13 UNL     1      27.808   7.532  48.225  1.00  0.00    -0.009 C 
HETATM   19  C14 UNL     1      28.048   8.452  49.318  1.00  0.00     0.206 C 
HETATM   20  O1  UNL     1      28.602   9.676  49.291  1.00  0.00    -0.387 OA
HETATM   21  C15 UNL     1      29.967   9.721  49.047  1.00  0.00     0.169 C 
HETATM   22  C16 UNL     1      30.326   9.515  47.633  1.00  0.00     0.056 C 
HETATM   23  C17 UNL     1      31.623   8.772  47.385  1.00  0.00     0.278 C 
HETATM   24  N4  UNL     1      31.766   7.510  48.031  1.00  0.00     0.121 N 
HETATM   25  C18 UNL     1      33.158   7.327  48.349  1.00  0.00     0.301 C 
HETATM   26  C21 UNL     1      31.087   6.371  47.525  1.00  0.00     0.383 C 
HETATM   27  C19 UNL     1      33.450   5.952  48.886  1.00  0.00     0.198 C 
HETATM   28  O2  UNL     1      33.100   5.073  47.835  1.00  0.00    -0.385 OA
HETATM   29  C20 UNL     1      31.706   5.060  47.865  1.00  0.00     0.231 C 
HETATM   30  O3  UNL     1      29.838   6.392  48.275  1.00  0.00    -0.351 OA
HETATM   31  C22 UNL     1      28.897   6.965  47.429  1.00  0.00     0.209 C 
ENDBRANCH   2  18
TORSDOF 9
ENDMDL
MODEL 9
REMARK VINA RESULT:      -7.0      2.667      7.089
REMARK  9 active torsions:
REMARK  status: ('A' for Active; 'I' for Inactive)
REMARK    1  A    between atoms: C2_2  and  N1_3 
REMARK    2  A    between atoms: C2_2  and  C13_17 
REMARK    3  A    between atoms: N1_3  and  C3_4 
REMARK    4  A    between atoms: C3_4  and  N2_5 
REMARK    5  A    between atoms: N2_5  and  C4_6 
REMARK    6  A    between atoms: C4_6  and  N3_7 
REMARK    7  A    between atoms: N3_7  and  C5_8 
REMARK    8  A    between atoms: C9_12  and  C10_13 
REMARK    9  A    between atoms: C10_13  and  C11_14 
ROOT
HETATM    1  C1  UNL     1      21.960  -0.949  54.547  1.00  0.00     0.071 C 
HETATM    2  C2  UNL     1      22.000   0.016  53.440  1.00  0.00     0.038 C 
ENDROOT
BRANCH   2   3
HETATM    3  N1  UNL     1      20.877   0.322  52.591  1.00  0.00    -0.246 NA
BRANCH   3   4
HETATM    4  C3  UNL     1      19.734  -0.232  52.882  1.00  0.00     0.234 C 
BRANCH   4   5
HETATM    5  N2  UNL     1      19.164   0.115  51.643  1.00  0.00    -0.237 NA
BRANCH   5   6
HETATM    6  C4  UNL     1      19.776   0.780  50.731  1.00  0.00     0.208 C 
BRANCH   6   7
HETATM    7  N3  UNL     1      19.622   1.161  49.386  1.00  0.00    -0.351 N 
HETATM    8  H6  UNL     1      18.759   0.738  49.015  1.00  0.00     0.166 HD
BRANCH   7   9
HETATM    9  C5  UNL     1      20.721   1.996  49.039  1.00  0.00     0.033 A 
HETATM   10  C6  UNL     1      21.801   1.638  48.264  1.00  0.00     0.029 A 
HETATM   11  C7  UNL     1      22.774   2.590  48.041  1.00  0.00     0.003 A 
HETATM   12  C8  UNL     1      22.674   3.841  48.565  1.00  0.00     0.007 A 
HETATM   13  C9  UNL     1      21.590   4.206  49.344  1.00  0.00    -0.054 A 
HETATM   14  C12 UNL     1      20.608   3.265  49.578  1.00  0.00     0.036 A 
BRANCH  13  15
HETATM   15  C10 UNL     1      21.566   5.594  49.872  1.00  0.00     0.070 C 
BRANCH  15  16
HETATM   16  C11 UNL     1      22.982   6.107  50.015  1.00  0.00     0.226 C 
HETATM   17  F1  UNL     1      23.260   6.216  51.355  1.00  0.00    -0.255 F 
ENDBRANCH  15  16
ENDBRANCH  13  15
ENDBRANCH   7   9
ENDBRANCH   6   7
ENDBRANCH   5   6
ENDBRANCH   4   5
ENDBRANCH   3   4
ENDBRANCH   2   3
BRANCH   2  18
HETATM   18  C13 UNL     1      23.131   0.687  53.160  1.00  0.00    -0.009 C 
HETATM   19  C14 UNL     1      22.961   2.122  53.073  1.00  0.00     0.206 C 
HETATM   20  O1  UNL     1      23.224   2.948  52.046  1.00  0.00    -0.387 OA
HETATM   21  C15 UNL     1      24.566   3.162  51.766  1.00  0.00     0.169 C 
HETATM   22  C16 UNL     1      25.210   2.046  51.050  1.00  0.00     0.056 C 
HETATM   23  C17 UNL     1      26.663   1.793  51.398  1.00  0.00     0.278 C 
HETATM   24  N4  UNL     1      26.964   1.620  52.780  1.00  0.00     0.121 N 
HETATM   25  C18 UNL     1      28.281   2.149  53.019  1.00  0.00     0.301 C 
HETATM   26  C21 UNL     1      26.657   0.394  53.427  1.00  0.00     0.383 C 
HETATM   27  C19 UNL     1      28.771   1.868  54.414  1.00  0.00     0.198 C 
HETATM   28  O2  UNL     1      28.819   0.457  54.503  1.00  0.00    -0.385 OA
HETATM   29  C20 UNL     1      27.480   0.087  54.629  1.00  0.00     0.231 C 
HETATM   30  O3  UNL     1      25.321   0.642  53.951  1.00  0.00    -0.351 OA
HETATM   31  C22 UNL     1      24.444   0.049  53.052  1.00  0.00     0.209 C 
ENDBRANCH   2  18
TORSDOF 9
ENDMDL
