MODEL 1
REMARK VINA RESULT:      -8.7      0.000      0.000
REMARK  6 active torsions:
REMARK  status: ('A' for Active; 'I' for Inactive)
REMARK    1  A    between atoms: C2_2  and  N1_3 
REMARK    2  A    between atoms: C2_2  and  N3_19 
REMARK    3  A    between atoms: N1_3  and  C3_4 
REMARK    4  A    between atoms: C4_5  and  C5_6 
REMARK    5  A    between atoms: N3_19  and  C15_20 
REMARK    6  A    between atoms: C15_20  and  C16_21 
ROOT
HETATM    1  C3  UNL     1      22.973   1.618  51.039  1.00  0.00     0.085 C 
HETATM    2  C4  UNL     1      23.051   2.707  50.293  1.00  0.00     0.017 C 
ENDROOT
BRANCH   1   3
HETATM    3  N1  UNL     1      24.131   1.045  51.635  1.00  0.00    -0.379 N 
HETATM    4  H5  UNL     1      24.830   0.557  51.017  1.00  0.00     0.161 HD
BRANCH   3   5
HETATM    5  C2  UNL     1      24.290   1.167  53.098  1.00  0.00     0.171 C 
HETATM    6  C1  UNL     1      25.022   2.469  53.311  1.00  0.00     0.055 C 
BRANCH   5   7
HETATM    7  N3  UNL     1      24.912   0.055  53.660  1.00  0.00    -0.399 N 
HETATM    8  H16 UNL     1      24.553  -0.239  54.597  1.00  0.00     0.155 HD
BRANCH   7   9
HETATM    9  C15 UNL     1      25.801  -0.811  53.024  1.00  0.00     0.159 C 
BRANCH   9  10
HETATM   10  C16 UNL     1      27.249  -0.526  53.080  1.00  0.00     0.306 C 
HETATM   11  N4  UNL     1      27.936  -1.837  53.048  1.00  0.00     0.096 N 
HETATM   12  C17 UNL     1      29.309  -1.682  53.489  1.00  0.00     0.271 C 
HETATM   13  H20 UNL     1      27.817  -2.314  52.152  1.00  0.00     0.317 HD
HETATM   14  C18 UNL     1      29.785  -0.247  53.490  1.00  0.00     0.037 C 
HETATM   15  C19 UNL     1      28.975   0.644  54.422  1.00  0.00     0.082 C 
HETATM   16  C20 UNL     1      27.622  -0.034  54.483  1.00  0.00     0.161 C 
HETATM   17  O1  UNL     1      27.070  -0.087  55.567  1.00  0.00    -0.296 OA
ENDBRANCH   9  10
ENDBRANCH   7   9
ENDBRANCH   5   7
ENDBRANCH   3   5
ENDBRANCH   1   3
BRANCH   2  18
HETATM   18  C5  UNL     1      24.092   3.618  49.834  1.00  0.00     0.009 C 
HETATM   19  C6  UNL     1      24.439   4.849  50.246  1.00  0.00    -0.042 C 
HETATM   20  C7  UNL     1      23.795   5.616  51.336  1.00  0.00     0.059 C 
HETATM   21  C14 UNL     1      25.558   5.424  49.527  1.00  0.00     0.021 A 
HETATM   22  C8  UNL     1      23.431   7.004  50.793  1.00  0.00     0.124 C 
HETATM   23  N2  UNL     1      24.269   7.390  49.675  1.00  0.00    -0.389 N 
HETATM   24  C9  UNL     1      25.492   6.784  49.207  1.00  0.00     0.040 A 
HETATM   25  H13 UNL     1      23.919   8.226  49.151  1.00  0.00     0.159 HD
HETATM   26  C10 UNL     1      26.465   7.482  48.529  1.00  0.00     0.033 A 
HETATM   27  C11 UNL     1      27.570   6.738  48.158  1.00  0.00     0.046 A 
HETATM   28  C12 UNL     1      27.689   5.388  48.449  1.00  0.00     0.139 A 
HETATM   29  F1  UNL     1      28.788   4.709  48.066  1.00  0.00    -0.204 F 
HETATM   30  C13 UNL     1      26.691   4.714  49.134  1.00  0.00     0.085 A 
HETATM   31 CL1  UNL     1      26.788   3.019  49.554  1.00  0.00    -0.080 Cl
ENDBRANCH   2  18
TORSDOF 6
ENDMDL
MODEL 2
REMARK VINA RESULT:      -8.1      4.671      7.562
REMARK  6 active torsions:
REMARK  status: ('A' for Active; 'I' for Inactive)
REMARK    1  A    between atoms: C2_2  and  N1_3 
REMARK    2  A    between atoms: C2_2  and  N3_19 
REMARK    3  A    between atoms: N1_3  and  C3_4 
REMARK    4  A    between atoms: C4_5  and  C5_6 
REMARK    5  A    between atoms: N3_19  and  C15_20 
REMARK    6  A    between atoms: C15_20  and  C16_21 
ROOT
HETATM    1  C3  UNL     1      23.046   2.177  50.768  1.00  0.00     0.085 C 
HETATM    2  C4  UNL     1      22.394   1.030  50.672  1.00  0.00     0.017 C 
ENDROOT
BRANCH   1   3
HETATM    3  N1  UNL     1      22.500   3.280  51.480  1.00  0.00    -0.379 N 
HETATM    4  H5  UNL     1      21.465   3.467  51.410  1.00  0.00     0.161 HD
BRANCH   3   5
HETATM    5  C2  UNL     1      23.419   4.112  52.283  1.00  0.00     0.171 C 
HETATM    6  C1  UNL     1      23.496   5.432  51.556  1.00  0.00     0.055 C 
BRANCH   5   7
HETATM    7  N3  UNL     1      24.648   3.494  52.494  1.00  0.00    -0.399 N 
HETATM    8  H16 UNL     1      25.391   3.713  51.791  1.00  0.00     0.155 HD
BRANCH   7   9
HETATM    9  C15 UNL     1      25.043   2.794  53.633  1.00  0.00     0.159 C 
BRANCH   9  10
HETATM   10  C16 UNL     1      25.593   1.432  53.487  1.00  0.00     0.306 C 
HETATM   11  N4  UNL     1      26.542   1.239  54.608  1.00  0.00     0.096 N 
HETATM   12  C17 UNL     1      27.406   0.108  54.329  1.00  0.00     0.271 C 
HETATM   13  H20 UNL     1      26.069   1.215  55.514  1.00  0.00     0.317 HD
HETATM   14  C18 UNL     1      26.896  -0.784  53.221  1.00  0.00     0.037 C 
HETATM   15  C19 UNL     1      26.767  -0.058  51.889  1.00  0.00     0.082 C 
HETATM   16  C20 UNL     1      26.545   1.387  52.287  1.00  0.00     0.161 C 
HETATM   17  O1  UNL     1      27.121   2.241  51.638  1.00  0.00    -0.296 OA
ENDBRANCH   9  10
ENDBRANCH   7   9
ENDBRANCH   5   7
ENDBRANCH   3   5
ENDBRANCH   1   3
BRANCH   2  18
HETATM   18  C5  UNL     1      21.124   0.479  51.129  1.00  0.00     0.009 C 
HETATM   19  C6  UNL     1      20.621   0.315  52.364  1.00  0.00    -0.042 C 
HETATM   20  C7  UNL     1      21.292   0.679  53.633  1.00  0.00     0.059 C 
HETATM   21  C14 UNL     1      19.295  -0.269  52.395  1.00  0.00     0.021 A 
HETATM   22  C8  UNL     1      21.262  -0.545  54.558  1.00  0.00     0.124 C 
HETATM   23  N2  UNL     1      20.169  -1.442  54.241  1.00  0.00    -0.389 N 
HETATM   24  C9  UNL     1      19.026  -1.215  53.390  1.00  0.00     0.040 A 
HETATM   25  H13 UNL     1      20.240  -2.378  54.706  1.00  0.00     0.159 HD
HETATM   26  C10 UNL     1      17.824  -1.862  53.557  1.00  0.00     0.033 A 
HETATM   27  C11 UNL     1      16.841  -1.517  52.649  1.00  0.00     0.046 A 
HETATM   28  C12 UNL     1      17.051  -0.587  51.643  1.00  0.00     0.139 A 
HETATM   29  F1  UNL     1      16.059  -0.285  50.783  1.00  0.00    -0.204 F 
HETATM   30  C13 UNL     1      18.274   0.048  51.501  1.00  0.00     0.085 A 
HETATM   31 CL1  UNL     1      18.599   1.249  50.271  1.00  0.00    -0.080 Cl
ENDBRANCH   2  18
TORSDOF 6
ENDMDL
MODEL 3
REMARK VINA RESULT:      -8.1      3.157      4.619
REMARK  6 active torsions:
REMARK  status: ('A' for Active; 'I' for Inactive)
REMARK    1  A    between atoms: C2_2  and  N1_3 
REMARK    2  A    between atoms: C2_2  and  N3_19 
REMARK    3  A    between atoms: N1_3  and  C3_4 
REMARK    4  A    between atoms: C4_5  and  C5_6 
REMARK    5  A    between atoms: N3_19  and  C15_20 
REMARK    6  A    between atoms: C15_20  and  C16_21 
ROOT
HETATM    1  C3  UNL     1      26.721   3.760  49.364  1.00  0.00     0.085 C 
HETATM    2  C4  UNL     1      27.467   4.557  48.619  1.00  0.00     0.017 C 
ENDROOT
BRANCH   1   3
HETATM    3  N1  UNL     1      25.999   4.256  50.484  1.00  0.00    -0.379 N 
HETATM    4  H5  UNL     1      26.155   5.254  50.786  1.00  0.00     0.161 HD
BRANCH   3   5
HETATM    5  C2  UNL     1      25.064   3.341  51.169  1.00  0.00     0.171 C 
HETATM    6  C1  UNL     1      23.686   3.823  50.787  1.00  0.00     0.055 C 
BRANCH   5   7
HETATM    7  N3  UNL     1      25.294   3.272  52.540  1.00  0.00    -0.399 N 
HETATM    8  H16 UNL     1      25.375   4.191  53.032  1.00  0.00     0.155 HD
BRANCH   7   9
HETATM    9  C15 UNL     1      25.224   2.132  53.340  1.00  0.00     0.159 C 
BRANCH   9  10
HETATM   10  C16 UNL     1      26.473   1.529  53.846  1.00  0.00     0.306 C 
HETATM   11  N4  UNL     1      27.501   2.594  53.804  1.00  0.00     0.096 N 
HETATM   12  C17 UNL     1      28.822   2.004  53.904  1.00  0.00     0.271 C 
HETATM   13  H20 UNL     1      27.307   3.345  54.470  1.00  0.00     0.317 HD
HETATM   14  C18 UNL     1      28.811   0.575  54.397  1.00  0.00     0.037 C 
HETATM   15  C19 UNL     1      28.037  -0.361  53.480  1.00  0.00     0.082 C 
HETATM   16  C20 UNL     1      27.027   0.547  52.808  1.00  0.00     0.161 C 
HETATM   17  O1  UNL     1      26.822   0.374  51.621  1.00  0.00    -0.296 OA
ENDBRANCH   9  10
ENDBRANCH   7   9
ENDBRANCH   5   7
ENDBRANCH   3   5
ENDBRANCH   1   3
BRANCH   2  18
HETATM   18  C5  UNL     1      27.823   5.970  48.588  1.00  0.00     0.009 C 
HETATM   19  C6  UNL     1      28.999   6.585  48.375  1.00  0.00    -0.042 C 
HETATM   20  C7  UNL     1      30.294   5.918  48.106  1.00  0.00     0.059 C 
HETATM   21  C14 UNL     1      28.931   8.031  48.416  1.00  0.00     0.021 A 
HETATM   22  C8  UNL     1      31.333   6.479  49.085  1.00  0.00     0.124 C 
HETATM   23  N2  UNL     1      30.984   7.807  49.550  1.00  0.00    -0.389 N 
HETATM   24  C9  UNL     1      29.982   8.712  49.041  1.00  0.00     0.040 A 
HETATM   25  H13 UNL     1      31.551   8.132  50.368  1.00  0.00     0.159 HD
HETATM   26  C10 UNL     1      30.070  10.079  49.166  1.00  0.00     0.033 A 
HETATM   27  C11 UNL     1      29.019  10.788  48.617  1.00  0.00     0.046 A 
HETATM   28  C12 UNL     1      27.953  10.167  47.986  1.00  0.00     0.139 A 
HETATM   29  F1  UNL     1      26.952  10.904  47.466  1.00  0.00    -0.204 F 
HETATM   30  C13 UNL     1      27.892   8.787  47.876  1.00  0.00     0.085 A 
HETATM   31 CL1  UNL     1      26.589   7.941  47.072  1.00  0.00    -0.080 Cl
ENDBRANCH   2  18
TORSDOF 6
ENDMDL
MODEL 4
REMARK VINA RESULT:      -8.1      3.921      7.961
REMARK  6 active torsions:
REMARK  status: ('A' for Active; 'I' for Inactive)
REMARK    1  A    between atoms: C2_2  and  N1_3 
REMARK    2  A    between atoms: C2_2  and  N3_19 
REMARK    3  A    between atoms: N1_3  and  C3_4 
REMARK    4  A    between atoms: C4_5  and  C5_6 
REMARK    5  A    between atoms: N3_19  and  C15_20 
REMARK    6  A    between atoms: C15_20  and  C16_21 
ROOT
HETATM    1  C3  UNL     1      26.712   4.492  49.334  1.00  0.00     0.085 C 
HETATM    2  C4  UNL     1      26.407   3.239  49.627  1.00  0.00     0.017 C 
ENDROOT
BRANCH   1   3
HETATM    3  N1  UNL     1      26.104   5.580  50.018  1.00  0.00    -0.379 N 
HETATM    4  H5  UNL     1      25.547   5.383  50.891  1.00  0.00     0.161 HD
BRANCH   3   5
HETATM    5  C2  UNL     1      26.286   6.937  49.464  1.00  0.00     0.171 C 
HETATM    6  C1  UNL     1      25.509   6.944  48.171  1.00  0.00     0.055 C 
BRANCH   5   7
HETATM    7  N3  UNL     1      27.628   7.284  49.336  1.00  0.00    -0.399 N 
HETATM    8  H16 UNL     1      28.185   7.271  50.221  1.00  0.00     0.155 HD
BRANCH   7   9
HETATM    9  C15 UNL     1      28.337   7.441  48.146  1.00  0.00     0.159 C 
BRANCH   9  10
HETATM   10  C16 UNL     1      29.810   7.346  48.167  1.00  0.00     0.306 C 
HETATM   11  N4  UNL     1      30.148   6.271  49.128  1.00  0.00     0.096 N 
HETATM   12  C17 UNL     1      31.545   6.372  49.504  1.00  0.00     0.271 C 
HETATM   13  H20 UNL     1      29.851   5.350  48.797  1.00  0.00     0.317 HD
HETATM   14  C18 UNL     1      32.360   7.246  48.579  1.00  0.00     0.037 C 
HETATM   15  C19 UNL     1      31.865   8.685  48.538  1.00  0.00     0.082 C 
HETATM   16  C20 UNL     1      30.394   8.570  48.882  1.00  0.00     0.161 C 
HETATM   17  O1  UNL     1      29.926   9.410  49.628  1.00  0.00    -0.296 OA
ENDBRANCH   9  10
ENDBRANCH   7   9
ENDBRANCH   5   7
ENDBRANCH   3   5
ENDBRANCH   1   3
BRANCH   2  18
HETATM   18  C5  UNL     1      25.524   2.541  50.554  1.00  0.00     0.009 C 
HETATM   19  C6  UNL     1      25.768   1.947  51.734  1.00  0.00    -0.042 C 
HETATM   20  C7  UNL     1      27.083   1.858  52.410  1.00  0.00     0.059 C 
HETATM   21  C14 UNL     1      24.598   1.366  52.361  1.00  0.00     0.021 A 
HETATM   22  C8  UNL     1      27.337   0.389  52.769  1.00  0.00     0.124 C 
HETATM   23  N2  UNL     1      26.104  -0.361  52.905  1.00  0.00    -0.389 N 
HETATM   24  C9  UNL     1      24.750   0.128  52.995  1.00  0.00     0.040 A 
HETATM   25  H13 UNL     1      26.241  -1.399  52.941  1.00  0.00     0.159 HD
HETATM   26  C10 UNL     1      23.744  -0.559  53.634  1.00  0.00     0.033 A 
HETATM   27  C11 UNL     1      22.509   0.063  53.622  1.00  0.00     0.046 A 
HETATM   28  C12 UNL     1      22.301   1.289  53.010  1.00  0.00     0.139 A 
HETATM   29  F1  UNL     1      21.077   1.854  53.027  1.00  0.00    -0.204 F 
HETATM   30  C13 UNL     1      23.336   1.956  52.374  1.00  0.00     0.085 A 
HETATM   31 CL1  UNL     1      23.147   3.515  51.604  1.00  0.00    -0.080 Cl
ENDBRANCH   2  18
TORSDOF 6
ENDMDL
MODEL 5
REMARK VINA RESULT:      -8.0      3.610      7.614
REMARK  6 active torsions:
REMARK  status: ('A' for Active; 'I' for Inactive)
REMARK    1  A    between atoms: C2_2  and  N1_3 
REMARK    2  A    between atoms: C2_2  and  N3_19 
REMARK    3  A    between atoms: N1_3  and  C3_4 
REMARK    4  A    between atoms: C4_5  and  C5_6 
REMARK    5  A    between atoms: N3_19  and  C15_20 
REMARK    6  A    between atoms: C15_20  and  C16_21 
ROOT
HETATM    1  C3  UNL     1      24.371   5.583  50.205  1.00  0.00     0.085 C 
HETATM    2  C4  UNL     1      23.720   4.565  50.740  1.00  0.00     0.017 C 
ENDROOT
BRANCH   1   3
HETATM    3  N1  UNL     1      25.783   5.703  50.325  1.00  0.00    -0.379 N 
HETATM    4  H5  UNL     1      26.200   5.844  51.283  1.00  0.00     0.161 HD
BRANCH   3   5
HETATM    5  C2  UNL     1      26.594   5.625  49.093  1.00  0.00     0.171 C 
HETATM    6  C1  UNL     1      27.055   4.191  49.013  1.00  0.00     0.055 C 
BRANCH   5   7
HETATM    7  N3  UNL     1      27.620   6.565  49.071  1.00  0.00    -0.399 N 
HETATM    8  H16 UNL     1      27.946   6.902  50.006  1.00  0.00     0.155 HD
BRANCH   7   9
HETATM    9  C15 UNL     1      28.382   6.940  47.965  1.00  0.00     0.159 C 
BRANCH   9  10
HETATM   10  C16 UNL     1      29.802   7.296  48.155  1.00  0.00     0.306 C 
HETATM   11  N4  UNL     1      30.346   6.339  49.145  1.00  0.00     0.096 N 
HETATM   12  C17 UNL     1      31.596   6.844  49.680  1.00  0.00     0.271 C 
HETATM   13  H20 UNL     1      30.382   5.384  48.780  1.00  0.00     0.317 HD
HETATM   14  C18 UNL     1      32.200   7.959  48.857  1.00  0.00     0.037 C 
HETATM   15  C19 UNL     1      31.296   9.181  48.763  1.00  0.00     0.082 C 
HETATM   16  C20 UNL     1      29.903   8.612  48.935  1.00  0.00     0.161 C 
HETATM   17  O1  UNL     1      29.123   9.242  49.625  1.00  0.00    -0.296 OA
ENDBRANCH   9  10
ENDBRANCH   7   9
ENDBRANCH   5   7
ENDBRANCH   3   5
ENDBRANCH   1   3
BRANCH   2  18
HETATM   18  C5  UNL     1      24.045   3.375  51.517  1.00  0.00     0.009 C 
HETATM   19  C6  UNL     1      23.589   2.113  51.441  1.00  0.00    -0.042 C 
HETATM   20  C7  UNL     1      22.577   1.610  50.484  1.00  0.00     0.059 C 
HETATM   21  C14 UNL     1      24.184   1.207  52.402  1.00  0.00     0.021 A 
HETATM   22  C8  UNL     1      21.489   0.878  51.281  1.00  0.00     0.124 C 
HETATM   23  N2  UNL     1      21.983   0.381  52.550  1.00  0.00    -0.389 N 
HETATM   24  C9  UNL     1      23.345   0.268  53.013  1.00  0.00     0.040 A 
HETATM   25  H13 UNL     1      21.228   0.066  53.204  1.00  0.00     0.159 HD
HETATM   26  C10 UNL     1      23.748  -0.661  53.944  1.00  0.00     0.033 A 
HETATM   27  C11 UNL     1      25.092  -0.624  54.265  1.00  0.00     0.046 A 
HETATM   28  C12 UNL     1      25.969   0.283  53.692  1.00  0.00     0.139 A 
HETATM   29  F1  UNL     1      27.271   0.277  54.039  1.00  0.00    -0.204 F 
HETATM   30  C13 UNL     1      25.532   1.207  52.756  1.00  0.00     0.085 A 
HETATM   31 CL1  UNL     1      26.589   2.362  51.977  1.00  0.00    -0.080 Cl
ENDBRANCH   2  18
TORSDOF 6
ENDMDL
MODEL 6
REMARK VINA RESULT:      -7.9      3.392      8.079
REMARK  6 active torsions:
REMARK  status: ('A' for Active; 'I' for Inactive)
REMARK    1  A    between atoms: C2_2  and  N1_3 
REMARK    2  A    between atoms: C2_2  and  N3_19 
REMARK    3  A    between atoms: N1_3  and  C3_4 
REMARK    4  A    between atoms: C4_5  and  C5_6 
REMARK    5  A    between atoms: N3_19  and  C15_20 
REMARK    6  A    between atoms: C15_20  and  C16_21 
ROOT
HETATM    1  C3  UNL     1      23.599   5.620  50.471  1.00  0.00     0.085 C 
HETATM    2  C4  UNL     1      23.352   4.344  50.710  1.00  0.00     0.017 C 
ENDROOT
BRANCH   1   3
HETATM    3  N1  UNL     1      24.803   6.236  50.911  1.00  0.00    -0.379 N 
HETATM    4  H5  UNL     1      25.039   6.211  51.938  1.00  0.00     0.161 HD
BRANCH   3   5
HETATM    5  C2  UNL     1      25.662   6.882  49.899  1.00  0.00     0.171 C 
HETATM    6  C1  UNL     1      26.305   5.746  49.142  1.00  0.00     0.055 C 
BRANCH   5   7
HETATM    7  N3  UNL     1      26.561   7.784  50.461  1.00  0.00    -0.399 N 
HETATM    8  H16 UNL     1      27.185   7.398  51.206  1.00  0.00     0.155 HD
BRANCH   7   9
HETATM    9  C15 UNL     1      26.849   9.069  50.001  1.00  0.00     0.159 C 
BRANCH   9  10
HETATM   10  C16 UNL     1      28.257   9.503  49.910  1.00  0.00     0.306 C 
HETATM   11  N4  UNL     1      28.246  10.831  49.256  1.00  0.00     0.096 N 
HETATM   12  C17 UNL     1      29.576  11.152  48.777  1.00  0.00     0.271 C 
HETATM   13  H20 UNL     1      27.809  11.546  49.842  1.00  0.00     0.317 HD
HETATM   14  C18 UNL     1      30.661  10.287  49.376  1.00  0.00     0.037 C 
HETATM   15  C19 UNL     1      30.481   8.809  49.059  1.00  0.00     0.082 C 
HETATM   16  C20 UNL     1      28.987   8.664  48.855  1.00  0.00     0.161 C 
HETATM   17  O1  UNL     1      28.614   7.951  47.942  1.00  0.00    -0.296 OA
ENDBRANCH   9  10
ENDBRANCH   7   9
ENDBRANCH   5   7
ENDBRANCH   3   5
ENDBRANCH   1   3
BRANCH   2  18
HETATM   18  C5  UNL     1      24.021   3.230  51.372  1.00  0.00     0.009 C 
HETATM   19  C6  UNL     1      23.674   1.939  51.506  1.00  0.00    -0.042 C 
HETATM   20  C7  UNL     1      22.443   1.309  50.974  1.00  0.00     0.059 C 
HETATM   21  C14 UNL     1      24.633   1.137  52.238  1.00  0.00     0.021 A 
HETATM   22  C8  UNL     1      21.756   0.560  52.123  1.00  0.00     0.124 C 
HETATM   23  N2  UNL     1      22.690   0.179  53.164  1.00  0.00    -0.389 N 
HETATM   24  C9  UNL     1      24.133   0.186  53.135  1.00  0.00     0.040 A 
HETATM   25  H13 UNL     1      22.231  -0.142  54.049  1.00  0.00     0.159 HD
HETATM   26  C10 UNL     1      24.904  -0.652  53.905  1.00  0.00     0.033 A 
HETATM   27  C11 UNL     1      26.269  -0.506  53.745  1.00  0.00     0.046 A 
HETATM   28  C12 UNL     1      26.820   0.418  52.871  1.00  0.00     0.139 A 
HETATM   29  F1  UNL     1      28.159   0.520  52.751  1.00  0.00    -0.204 F 
HETATM   30  C13 UNL     1      26.016   1.249  52.108  1.00  0.00     0.085 A 
HETATM   31 CL1  UNL     1      26.645   2.418  50.970  1.00  0.00    -0.080 Cl
ENDBRANCH   2  18
TORSDOF 6
ENDMDL
MODEL 7
REMARK VINA RESULT:      -7.9      2.883      7.265
REMARK  6 active torsions:
REMARK  status: ('A' for Active; 'I' for Inactive)
REMARK    1  A    between atoms: C2_2  and  N1_3 
REMARK    2  A    between atoms: C2_2  and  N3_19 
REMARK    3  A    between atoms: N1_3  and  C3_4 
REMARK    4  A    between atoms: C4_5  and  C5_6 
REMARK    5  A    between atoms: N3_19  and  C15_20 
REMARK    6  A    between atoms: C15_20  and  C16_21 
ROOT
HETATM    1  C3  UNL     1      20.723   4.194  51.544  1.00  0.00     0.085 C 
HETATM    2  C4  UNL     1      21.048   3.085  52.187  1.00  0.00     0.017 C 
ENDROOT
BRANCH   1   3
HETATM    3  N1  UNL     1      21.697   4.951  50.837  1.00  0.00    -0.379 N 
HETATM    4  H5  UNL     1      22.036   4.598  49.904  1.00  0.00     0.161 HD
BRANCH   3   5
HETATM    5  C2  UNL     1      22.186   6.201  51.455  1.00  0.00     0.171 C 
HETATM    6  C1  UNL     1      21.487   7.311  50.709  1.00  0.00     0.055 C 
BRANCH   5   7
HETATM    7  N3  UNL     1      23.575   6.287  51.453  1.00  0.00    -0.399 N 
HETATM    8  H16 UNL     1      24.080   5.475  51.876  1.00  0.00     0.155 HD
BRANCH   7   9
HETATM    9  C15 UNL     1      24.350   7.227  50.774  1.00  0.00     0.159 C 
BRANCH   9  10
HETATM   10  C16 UNL     1      25.578   6.785  50.083  1.00  0.00     0.306 C 
HETATM   11  N4  UNL     1      25.803   7.741  48.975  1.00  0.00     0.096 N 
HETATM   12  C17 UNL     1      26.737   7.175  48.022  1.00  0.00     0.271 C 
HETATM   13  H20 UNL     1      26.038   8.677  49.314  1.00  0.00     0.317 HD
HETATM   14  C18 UNL     1      27.509   5.992  48.560  1.00  0.00     0.037 C 
HETATM   15  C19 UNL     1      26.610   4.830  48.958  1.00  0.00     0.082 C 
HETATM   16  C20 UNL     1      25.294   5.496  49.304  1.00  0.00     0.161 C 
HETATM   17  O1  UNL     1      24.273   4.946  48.933  1.00  0.00    -0.296 OA
ENDBRANCH   9  10
ENDBRANCH   7   9
ENDBRANCH   5   7
ENDBRANCH   3   5
ENDBRANCH   1   3
BRANCH   2  18
HETATM   18  C5  UNL     1      22.253   2.301  52.426  1.00  0.00     0.009 C 
HETATM   19  C6  UNL     1      22.429   0.985  52.637  1.00  0.00    -0.042 C 
HETATM   20  C7  UNL     1      21.360  -0.040  52.681  1.00  0.00     0.059 C 
HETATM   21  C14 UNL     1      23.810   0.591  52.824  1.00  0.00     0.021 A 
HETATM   22  C8  UNL     1      21.522  -0.842  53.978  1.00  0.00     0.124 C 
HETATM   23  N2  UNL     1      22.884  -0.814  54.472  1.00  0.00    -0.389 N 
HETATM   24  C9  UNL     1      24.083  -0.371  53.803  1.00  0.00     0.040 A 
HETATM   25  H13 UNL     1      22.987  -1.169  55.452  1.00  0.00     0.159 HD
HETATM   26  C10 UNL     1      25.335  -0.853  54.106  1.00  0.00     0.033 A 
HETATM   27  C11 UNL     1      26.367  -0.315  53.360  1.00  0.00     0.046 A 
HETATM   28  C12 UNL     1      26.156   0.640  52.379  1.00  0.00     0.139 A 
HETATM   29  F1  UNL     1      27.197   1.132  51.679  1.00  0.00    -0.204 F 
HETATM   30  C13 UNL     1      24.881   1.105  52.097  1.00  0.00     0.085 A 
HETATM   31 CL1  UNL     1      24.542   2.290  50.856  1.00  0.00    -0.080 Cl
ENDBRANCH   2  18
TORSDOF 6
ENDMDL
MODEL 8
REMARK VINA RESULT:      -7.7      3.683      8.764
REMARK  6 active torsions:
REMARK  status: ('A' for Active; 'I' for Inactive)
REMARK    1  A    between atoms: C2_2  and  N1_3 
REMARK    2  A    between atoms: C2_2  and  N3_19 
REMARK    3  A    between atoms: N1_3  and  C3_4 
REMARK    4  A    between atoms: C4_5  and  C5_6 
REMARK    5  A    between atoms: N3_19  and  C15_20 
REMARK    6  A    between atoms: C15_20  and  C16_21 
ROOT
HETATM    1  C3  UNL     1      26.623   3.149  50.559  1.00  0.00     0.085 C 
HETATM    2  C4  UNL     1      26.404   1.934  51.033  1.00  0.00     0.017 C 
ENDROOT
BRANCH   1   3
HETATM    3  N1  UNL     1      25.729   4.221  50.832  1.00  0.00    -0.379 N 
HETATM    4  H5  UNL     1      25.143   4.183  51.707  1.00  0.00     0.161 HD
BRANCH   3   5
HETATM    5  C2  UNL     1      25.668   5.337  49.866  1.00  0.00     0.171 C 
HETATM    6  C1  UNL     1      26.823   5.108  48.923  1.00  0.00     0.055 C 
BRANCH   5   7
HETATM    7  N3  UNL     1      25.667   6.581  50.490  1.00  0.00    -0.399 N 
HETATM    8  H16 UNL     1      26.557   6.847  50.972  1.00  0.00     0.155 HD
BRANCH   7   9
HETATM    9  C15 UNL     1      24.696   7.574  50.366  1.00  0.00     0.159 C 
BRANCH   9  10
HETATM   10  C16 UNL     1      24.914   8.680  49.413  1.00  0.00     0.306 C 
HETATM   11  N4  UNL     1      24.992   8.066  48.067  1.00  0.00     0.096 N 
HETATM   12  C17 UNL     1      25.586   9.004  47.135  1.00  0.00     0.271 C 
HETATM   13  H20 UNL     1      24.098   7.664  47.774  1.00  0.00     0.317 HD
HETATM   14  C18 UNL     1      25.610  10.428  47.641  1.00  0.00     0.037 C 
HETATM   15  C19 UNL     1      26.422  10.587  48.919  1.00  0.00     0.082 C 
HETATM   16  C20 UNL     1      26.339   9.221  49.570  1.00  0.00     0.161 C 
HETATM   17  O1  UNL     1      27.352   8.785  50.084  1.00  0.00    -0.296 OA
ENDBRANCH   9  10
ENDBRANCH   7   9
ENDBRANCH   5   7
ENDBRANCH   3   5
ENDBRANCH   1   3
BRANCH   2  18
HETATM   18  C5  UNL     1      25.398   1.270  51.852  1.00  0.00     0.009 C 
HETATM   19  C6  UNL     1      25.355   1.014  53.171  1.00  0.00    -0.042 C 
HETATM   20  C7  UNL     1      26.395   1.372  54.161  1.00  0.00     0.059 C 
HETATM   21  C14 UNL     1      24.153   0.331  53.606  1.00  0.00     0.021 A 
HETATM   22  C8  UNL     1      26.750   0.111  54.959  1.00  0.00     0.124 C 
HETATM   23  N2  UNL     1      25.667  -0.852  54.968  1.00  0.00    -0.389 N 
HETATM   24  C9  UNL     1      24.292  -0.675  54.568  1.00  0.00     0.040 A 
HETATM   25  H13 UNL     1      25.945  -1.799  55.319  1.00  0.00     0.159 HD
HETATM   26  C10 UNL     1      23.257  -1.418  55.086  1.00  0.00     0.033 A 
HETATM   27  C11 UNL     1      22.005  -1.109  54.586  1.00  0.00     0.046 A 
HETATM   28  C12 UNL     1      21.809  -0.122  53.633  1.00  0.00     0.139 A 
HETATM   29  F1  UNL     1      20.568   0.141  53.178  1.00  0.00    -0.204 F 
HETATM   30  C13 UNL     1      22.873   0.609  53.131  1.00  0.00     0.085 A 
HETATM   31 CL1  UNL     1      22.692   1.883  51.945  1.00  0.00    -0.080 Cl
ENDBRANCH   2  18
TORSDOF 6
ENDMDL
MODEL 9
REMARK VINA RESULT:      -7.6      4.455      8.025
REMARK  6 active torsions:
REMARK  status: ('A' for Active; 'I' for Inactive)
REMARK    1  A    between atoms: C2_2  and  N1_3 
REMARK    2  A    between atoms: C2_2  and  N3_19 
REMARK    3  A    between atoms: N1_3  and  C3_4 
REMARK    4  A    between atoms: C4_5  and  C5_6 
REMARK    5  A    between atoms: N3_19  and  C15_20 
REMARK    6  A    between atoms: C15_20  and  C16_21 
ROOT
HETATM    1  C3  UNL     1      24.442   4.166  50.124  1.00  0.00     0.085 C 
HETATM    2  C4  UNL     1      24.531   2.896  50.484  1.00  0.00     0.017 C 
ENDROOT
BRANCH   1   3
HETATM    3  N1  UNL     1      23.571   5.066  50.797  1.00  0.00    -0.379 N 
HETATM    4  H5  UNL     1      22.585   4.758  51.004  1.00  0.00     0.161 HD
BRANCH   3   5
HETATM    5  C2  UNL     1      24.100   6.393  51.173  1.00  0.00     0.171 C 
HETATM    6  C1  UNL     1      23.138   7.387  50.570  1.00  0.00     0.055 C 
BRANCH   5   7
HETATM    7  N3  UNL     1      25.427   6.565  50.790  1.00  0.00    -0.399 N 
HETATM    8  H16 UNL     1      26.004   5.694  50.753  1.00  0.00     0.155 HD
BRANCH   7   9
HETATM    9  C15 UNL     1      25.998   7.723  50.263  1.00  0.00     0.159 C 
BRANCH   9  10
HETATM   10  C16 UNL     1      26.784   7.636  49.016  1.00  0.00     0.306 C 
HETATM   11  N4  UNL     1      27.575   6.387  49.105  1.00  0.00     0.096 N 
HETATM   12  C17 UNL     1      28.648   6.417  48.131  1.00  0.00     0.271 C 
HETATM   13  H20 UNL     1      26.984   5.553  49.078  1.00  0.00     0.317 HD
HETATM   14  C18 UNL     1      28.466   7.470  47.061  1.00  0.00     0.037 C 
HETATM   15  C19 UNL     1      28.416   8.883  47.626  1.00  0.00     0.082 C 
HETATM   16  C20 UNL     1      27.897   8.689  49.036  1.00  0.00     0.161 C 
HETATM   17  O1  UNL     1      28.411   9.353  49.917  1.00  0.00    -0.296 OA
ENDBRANCH   9  10
ENDBRANCH   7   9
ENDBRANCH   5   7
ENDBRANCH   3   5
ENDBRANCH   1   3
BRANCH   2  18
HETATM   18  C5  UNL     1      23.933   2.024  51.487  1.00  0.00     0.009 C 
HETATM   19  C6  UNL     1      22.812   1.282  51.463  1.00  0.00    -0.042 C 
HETATM   20  C7  UNL     1      21.860   1.179  50.334  1.00  0.00     0.059 C 
HETATM   21  C14 UNL     1      22.569   0.532  52.679  1.00  0.00     0.021 A 
HETATM   22  C8  UNL     1      20.451   1.460  50.869  1.00  0.00     0.124 C 
HETATM   23  N2  UNL     1      20.338   1.174  52.286  1.00  0.00    -0.389 N 
HETATM   24  C9  UNL     1      21.251   0.459  53.143  1.00  0.00     0.040 A 
HETATM   25  H13 UNL     1      19.463   1.548  52.725  1.00  0.00     0.159 HD
HETATM   26  C10 UNL     1      20.851  -0.210  54.276  1.00  0.00     0.033 A 
HETATM   27  C11 UNL     1      21.864  -0.841  54.973  1.00  0.00     0.046 A 
HETATM   28  C12 UNL     1      23.187  -0.803  54.560  1.00  0.00     0.139 A 
HETATM   29  F1  UNL     1      24.137  -1.436  55.276  1.00  0.00    -0.204 F 
HETATM   30  C13 UNL     1      23.558  -0.120  53.413  1.00  0.00     0.085 A 
HETATM   31 CL1  UNL     1      25.203  -0.052  52.823  1.00  0.00    -0.080 Cl
ENDBRANCH   2  18
TORSDOF 6
ENDMDL
