MODEL 1
REMARK VINA RESULT:      -7.6      0.000      0.000
REMARK  7 active torsions:
REMARK  status: ('A' for Active; 'I' for Inactive)
REMARK    1  A    between atoms: C2_2  and  O1_3 
REMARK    2  A    between atoms: O1_3  and  C3_4 
REMARK    3  A    between atoms: C3_4  and  C4_5 
REMARK    4  A    between atoms: C4_5  and  C5_6 
REMARK    5  A    between atoms: C6_7  and  C7_8 
REMARK    6  A    between atoms: C7_8  and  N1_9 
REMARK    7  A    between atoms: N4_18  and  C14_19 
ROOT
HETATM    1  C5  UNL     1      24.444   2.397  52.132  1.00  0.00     0.125 A 
HETATM    2  C6  UNL     1      22.955   2.375  52.395  1.00  0.00    -0.017 A 
HETATM    3  C10 UNL     1      22.508   1.235  52.951  1.00  0.00     0.014 A 
HETATM    4  C11 UNL     1      21.145   0.834  53.347  1.00  0.00     0.193 A 
HETATM    5  N2  UNL     1      21.223  -0.533  53.874  1.00  0.00    -0.278 NA
HETATM    6  C12 UNL     1      22.263  -1.215  53.996  1.00  0.00     0.229 A 
HETATM    7  N3  UNL     1      23.550  -0.799  53.643  1.00  0.00    -0.224 NA
HETATM    8  C13 UNL     1      23.719   0.398  53.131  1.00  0.00     0.140 A 
HETATM    9  N4  UNL     1      24.895   1.117  52.659  1.00  0.00    -0.322 N 
ENDROOT
BRANCH   9  10
HETATM   10  C14 UNL     1      26.125   0.418  52.849  1.00  0.00     0.038 A 
HETATM   11  C15 UNL     1      26.552  -0.865  52.596  1.00  0.00     0.033 A 
HETATM   12  C16 UNL     1      27.845  -1.256  52.937  1.00  0.00     0.046 A 
HETATM   13  C17 UNL     1      28.671  -0.326  53.530  1.00  0.00     0.138 A 
HETATM   14  F1  UNL     1      29.929  -0.777  53.834  1.00  0.00    -0.204 F 
HETATM   15  C18 UNL     1      28.296   0.970  53.808  1.00  0.00     0.074 A 
HETATM   16 CL1  UNL     1      29.465   2.049  54.577  1.00  0.00    -0.081 Cl
HETATM   17  C19 UNL     1      27.004   1.329  53.456  1.00  0.00     0.056 A 
ENDBRANCH   9  10
BRANCH   1  18
HETATM   18  C4  UNL     1      24.608   2.544  50.652  1.00  0.00     0.056 C 
BRANCH  18  19
HETATM   19  C3  UNL     1      25.848   3.316  50.218  1.00  0.00     0.170 C 
BRANCH  19  20
HETATM   20  O1  UNL     1      25.477   4.284  49.296  1.00  0.00    -0.391 OA
BRANCH  20  21
HETATM   21  C2  UNL     1      26.355   5.313  49.116  1.00  0.00     0.163 C 
HETATM   22  C1  UNL     1      27.716   4.949  48.592  1.00  0.00     0.033 C 
ENDBRANCH  20  21
ENDBRANCH  19  20
ENDBRANCH  18  19
ENDBRANCH   1  18
BRANCH   2  23
HETATM   23  C7  UNL     1      22.331   3.629  51.991  1.00  0.00     0.308 C 
BRANCH  23  24
HETATM   24  N1  UNL     1      21.293   3.511  50.977  1.00  0.00     0.083 N 
HETATM   25  C8  UNL     1      21.559   4.485  49.896  1.00  0.00     0.309 C 
HETATM   26  C9  UNL     1      19.988   3.888  51.567  1.00  0.00     0.309 C 
ENDBRANCH  23  24
ENDBRANCH   2  23
TORSDOF 7
ENDMDL
MODEL 2
REMARK VINA RESULT:      -7.6      2.566      5.001
REMARK  7 active torsions:
REMARK  status: ('A' for Active; 'I' for Inactive)
REMARK    1  A    between atoms: C2_2  and  O1_3 
REMARK    2  A    between atoms: O1_3  and  C3_4 
REMARK    3  A    between atoms: C3_4  and  C4_5 
REMARK    4  A    between atoms: C4_5  and  C5_6 
REMARK    5  A    between atoms: C6_7  and  C7_8 
REMARK    6  A    between atoms: C7_8  and  N1_9 
REMARK    7  A    between atoms: N4_18  and  C14_19 
ROOT
HETATM    1  C5  UNL     1      24.081   1.624  51.582  1.00  0.00     0.125 A 
HETATM    2  C6  UNL     1      23.607   2.603  50.532  1.00  0.00    -0.017 A 
HETATM    3  C10 UNL     1      24.578   3.387  50.030  1.00  0.00     0.014 A 
HETATM    4  C11 UNL     1      24.517   4.451  49.009  1.00  0.00     0.193 A 
HETATM    5  N2  UNL     1      25.868   5.004  48.868  1.00  0.00    -0.278 NA
HETATM    6  C12 UNL     1      26.888   4.616  49.475  1.00  0.00     0.229 A 
HETATM    7  N3  UNL     1      26.926   3.582  50.415  1.00  0.00    -0.224 NA
HETATM    8  C13 UNL     1      25.817   2.947  50.716  1.00  0.00     0.140 A 
HETATM    9  N4  UNL     1      25.516   1.858  51.636  1.00  0.00    -0.322 N 
ENDROOT
BRANCH   9  10
HETATM   10  C14 UNL     1      26.659   1.319  52.299  1.00  0.00     0.038 A 
HETATM   11  C15 UNL     1      27.749   1.866  52.938  1.00  0.00     0.033 A 
HETATM   12  C16 UNL     1      28.737   1.042  53.472  1.00  0.00     0.046 A 
HETATM   13  C17 UNL     1      28.588  -0.322  53.341  1.00  0.00     0.138 A 
HETATM   14  F1  UNL     1      29.594  -1.071  53.895  1.00  0.00    -0.204 F 
HETATM   15  C18 UNL     1      27.521  -0.922  52.712  1.00  0.00     0.074 A 
HETATM   16 CL1  UNL     1      27.469  -2.686  52.617  1.00  0.00    -0.081 Cl
HETATM   17  C19 UNL     1      26.554  -0.077  52.191  1.00  0.00     0.056 A 
ENDBRANCH   9  10
BRANCH   1  18
HETATM   18  C4  UNL     1      23.353   1.974  52.843  1.00  0.00     0.056 C 
BRANCH  18  19
HETATM   19  C3  UNL     1      22.512   0.847  53.431  1.00  0.00     0.170 C 
BRANCH  19  20
HETATM   20  O1  UNL     1      23.356  -0.165  53.866  1.00  0.00    -0.391 OA
BRANCH  20  21
HETATM   21  C2  UNL     1      22.799  -1.107  54.680  1.00  0.00     0.163 C 
HETATM   22  C1  UNL     1      21.323  -1.345  54.516  1.00  0.00     0.033 C 
ENDBRANCH  20  21
ENDBRANCH  19  20
ENDBRANCH  18  19
ENDBRANCH   1  18
BRANCH   2  23
HETATM   23  C7  UNL     1      22.177   2.461  50.287  1.00  0.00     0.308 C 
BRANCH  23  24
HETATM   24  N1  UNL     1      21.769   1.198  49.690  1.00  0.00     0.083 N 
HETATM   25  C8  UNL     1      21.753   1.339  48.218  1.00  0.00     0.309 C 
HETATM   26  C9  UNL     1      20.379   0.892  50.096  1.00  0.00     0.309 C 
ENDBRANCH  23  24
ENDBRANCH   2  23
TORSDOF 7
ENDMDL
MODEL 3
REMARK VINA RESULT:      -7.5      1.460      1.824
REMARK  7 active torsions:
REMARK  status: ('A' for Active; 'I' for Inactive)
REMARK    1  A    between atoms: C2_2  and  O1_3 
REMARK    2  A    between atoms: O1_3  and  C3_4 
REMARK    3  A    between atoms: C3_4  and  C4_5 
REMARK    4  A    between atoms: C4_5  and  C5_6 
REMARK    5  A    between atoms: C6_7  and  C7_8 
REMARK    6  A    between atoms: C7_8  and  N1_9 
REMARK    7  A    between atoms: N4_18  and  C14_19 
ROOT
HETATM    1  C5  UNL     1      25.306   3.184  51.131  1.00  0.00     0.125 A 
HETATM    2  C6  UNL     1      23.829   3.504  51.176  1.00  0.00    -0.017 A 
HETATM    3  C10 UNL     1      23.083   2.583  51.812  1.00  0.00     0.014 A 
HETATM    4  C11 UNL     1      21.630   2.533  52.057  1.00  0.00     0.193 A 
HETATM    5  N2  UNL     1      21.346   1.283  52.771  1.00  0.00    -0.278 NA
HETATM    6  C12 UNL     1      22.190   0.437  53.134  1.00  0.00     0.229 A 
HETATM    7  N3  UNL     1      23.568   0.524  52.918  1.00  0.00    -0.224 NA
HETATM    8  C13 UNL     1      24.053   1.562  52.277  1.00  0.00     0.140 A 
HETATM    9  N4  UNL     1      25.404   1.944  51.887  1.00  0.00    -0.322 N 
ENDROOT
BRANCH   9  10
HETATM   10  C14 UNL     1      26.420   1.055  52.347  1.00  0.00     0.038 A 
HETATM   11  C15 UNL     1      26.631  -0.302  52.245  1.00  0.00     0.033 A 
HETATM   12  C16 UNL     1      27.740  -0.888  52.850  1.00  0.00     0.046 A 
HETATM   13  C17 UNL     1      28.609  -0.074  53.545  1.00  0.00     0.138 A 
HETATM   14  F1  UNL     1      29.681  -0.717  54.108  1.00  0.00    -0.204 F 
HETATM   15  C18 UNL     1      28.447   1.287  53.679  1.00  0.00     0.074 A 
HETATM   16 CL1  UNL     1      29.643   2.200  54.606  1.00  0.00    -0.081 Cl
HETATM   17  C19 UNL     1      27.334   1.841  53.066  1.00  0.00     0.056 A 
ENDBRANCH   9  10
BRANCH   1  18
HETATM   18  C4  UNL     1      25.664   3.052  49.683  1.00  0.00     0.056 C 
BRANCH  18  19
HETATM   19  C3  UNL     1      26.883   3.857  49.248  1.00  0.00     0.170 C 
BRANCH  19  20
HETATM   20  O1  UNL     1      26.509   5.182  49.078  1.00  0.00    -0.391 OA
BRANCH  20  21
HETATM   21  C2  UNL     1      27.427   5.996  48.481  1.00  0.00     0.163 C 
HETATM   22  C1  UNL     1      28.813   5.436  48.317  1.00  0.00     0.033 C 
ENDBRANCH  20  21
ENDBRANCH  19  20
ENDBRANCH  18  19
ENDBRANCH   1  18
BRANCH   2  23
HETATM   23  C7  UNL     1      23.546   4.774  50.519  1.00  0.00     0.308 C 
BRANCH  23  24
HETATM   24  N1  UNL     1      23.208   5.876  51.409  1.00  0.00     0.083 N 
HETATM   25  C8  UNL     1      21.810   6.289  51.160  1.00  0.00     0.309 C 
HETATM   26  C9  UNL     1      24.055   7.046  51.082  1.00  0.00     0.309 C 
ENDBRANCH  23  24
ENDBRANCH   2  23
TORSDOF 7
ENDMDL
MODEL 4
REMARK VINA RESULT:      -7.4      3.539      5.982
REMARK  7 active torsions:
REMARK  status: ('A' for Active; 'I' for Inactive)
REMARK    1  A    between atoms: C2_2  and  O1_3 
REMARK    2  A    between atoms: O1_3  and  C3_4 
REMARK    3  A    between atoms: C3_4  and  C4_5 
REMARK    4  A    between atoms: C4_5  and  C5_6 
REMARK    5  A    between atoms: C6_7  and  C7_8 
REMARK    6  A    between atoms: C7_8  and  N1_9 
REMARK    7  A    between atoms: N4_18  and  C14_19 
ROOT
HETATM    1  C5  UNL     1      25.052   0.780  52.363  1.00  0.00     0.125 A 
HETATM    2  C6  UNL     1      25.070  -0.174  53.536  1.00  0.00    -0.017 A 
HETATM    3  C10 UNL     1      23.852  -0.481  54.018  1.00  0.00     0.014 A 
HETATM    4  C11 UNL     1      23.460  -1.357  55.138  1.00  0.00     0.193 A 
HETATM    5  N2  UNL     1      21.998  -1.303  55.248  1.00  0.00    -0.278 NA
HETATM    6  C12 UNL     1      21.229  -0.660  54.504  1.00  0.00     0.229 A 
HETATM    7  N3  UNL     1      21.624   0.139  53.426  1.00  0.00    -0.224 NA
HETATM    8  C13 UNL     1      22.902   0.253  53.147  1.00  0.00     0.140 A 
HETATM    9  N4  UNL     1      23.631   0.994  52.127  1.00  0.00    -0.322 N 
ENDROOT
BRANCH   9  10
HETATM   10  C14 UNL     1      22.799   1.684  51.196  1.00  0.00     0.038 A 
HETATM   11  C15 UNL     1      22.170   1.333  50.023  1.00  0.00     0.033 A 
HETATM   12  C16 UNL     1      21.431   2.275  49.312  1.00  0.00     0.046 A 
HETATM   13  C17 UNL     1      21.352   3.556  49.817  1.00  0.00     0.138 A 
HETATM   14  F1  UNL     1      20.604   4.428  49.070  1.00  0.00    -0.204 F 
HETATM   15  C18 UNL     1      21.961   3.962  50.983  1.00  0.00     0.074 A 
HETATM   16 CL1  UNL     1      21.773   5.640  51.503  1.00  0.00    -0.081 Cl
HETATM   17  C19 UNL     1      22.688   3.001  51.668  1.00  0.00     0.056 A 
ENDBRANCH   9  10
BRANCH   1  18
HETATM   18  C4  UNL     1      25.793   2.004  52.804  1.00  0.00     0.056 C 
BRANCH  18  19
HETATM   19  C3  UNL     1      26.841   2.508  51.819  1.00  0.00     0.170 C 
BRANCH  19  20
HETATM   20  O1  UNL     1      28.101   2.330  52.373  1.00  0.00    -0.391 OA
BRANCH  20  21
HETATM   21  C2  UNL     1      28.196   2.502  53.723  1.00  0.00     0.163 C 
HETATM   22  C1  UNL     1      29.495   2.094  54.360  1.00  0.00     0.033 C 
ENDBRANCH  20  21
ENDBRANCH  19  20
ENDBRANCH  18  19
ENDBRANCH   1  18
BRANCH   2  23
HETATM   23  C7  UNL     1      26.433  -0.565  53.875  1.00  0.00     0.308 C 
BRANCH  23  24
HETATM   24  N1  UNL     1      27.243  -1.034  52.760  1.00  0.00     0.083 N 
HETATM   25  C8  UNL     1      26.767  -2.371  52.344  1.00  0.00     0.309 C 
HETATM   26  C9  UNL     1      28.642  -1.210  53.212  1.00  0.00     0.309 C 
ENDBRANCH  23  24
ENDBRANCH   2  23
TORSDOF 7
ENDMDL
MODEL 5
REMARK VINA RESULT:      -7.3      1.824      2.316
REMARK  7 active torsions:
REMARK  status: ('A' for Active; 'I' for Inactive)
REMARK    1  A    between atoms: C2_2  and  O1_3 
REMARK    2  A    between atoms: O1_3  and  C3_4 
REMARK    3  A    between atoms: C3_4  and  C4_5 
REMARK    4  A    between atoms: C4_5  and  C5_6 
REMARK    5  A    between atoms: C6_7  and  C7_8 
REMARK    6  A    between atoms: C7_8  and  N1_9 
REMARK    7  A    between atoms: N4_18  and  C14_19 
ROOT
HETATM    1  C5  UNL     1      22.794   1.877  52.086  1.00  0.00     0.125 A 
HETATM    2  C6  UNL     1      21.469   1.264  52.480  1.00  0.00    -0.017 A 
HETATM    3  C10 UNL     1      21.567   0.249  53.357  1.00  0.00     0.014 A 
HETATM    4  C11 UNL     1      20.521  -0.593  53.967  1.00  0.00     0.193 A 
HETATM    5  N2  UNL     1      21.191  -1.574  54.827  1.00  0.00    -0.278 NA
HETATM    6  C12 UNL     1      22.421  -1.654  55.031  1.00  0.00     0.229 A 
HETATM    7  N3  UNL     1      23.391  -0.821  54.464  1.00  0.00    -0.224 NA
HETATM    8  C13 UNL     1      23.019   0.130  53.640  1.00  0.00     0.140 A 
HETATM    9  N4  UNL     1      23.756   1.137  52.889  1.00  0.00    -0.322 N 
ENDROOT
BRANCH   9  10
HETATM   10  C14 UNL     1      25.160   1.147  53.145  1.00  0.00     0.038 A 
HETATM   11  C15 UNL     1      26.054   2.101  53.575  1.00  0.00     0.033 A 
HETATM   12  C16 UNL     1      27.406   1.793  53.699  1.00  0.00     0.046 A 
HETATM   13  C17 UNL     1      27.815   0.515  53.379  1.00  0.00     0.138 A 
HETATM   14  F1  UNL     1      29.157   0.281  53.530  1.00  0.00    -0.204 F 
HETATM   15  C18 UNL     1      26.965  -0.477  52.944  1.00  0.00     0.074 A 
HETATM   16 CL1  UNL     1      27.636  -2.068  52.567  1.00  0.00    -0.081 Cl
HETATM   17  C19 UNL     1      25.626  -0.140  52.832  1.00  0.00     0.056 A 
ENDBRANCH   9  10
BRANCH   1  18
HETATM   18  C4  UNL     1      22.933   1.666  50.611  1.00  0.00     0.056 C 
BRANCH  18  19
HETATM   19  C3  UNL     1      23.437   2.877  49.835  1.00  0.00     0.170 C 
BRANCH  19  20
HETATM   20  O1  UNL     1      24.199   3.669  50.682  1.00  0.00    -0.391 OA
BRANCH  20  21
HETATM   21  C2  UNL     1      25.370   4.146  50.170  1.00  0.00     0.163 C 
HETATM   22  C1  UNL     1      26.497   3.160  50.045  1.00  0.00     0.033 C 
ENDBRANCH  20  21
ENDBRANCH  19  20
ENDBRANCH  18  19
ENDBRANCH   1  18
BRANCH   2  23
HETATM   23  C7  UNL     1      20.359   1.939  51.817  1.00  0.00     0.308 C 
BRANCH  23  24
HETATM   24  N1  UNL     1      19.537   1.095  50.962  1.00  0.00     0.083 N 
HETATM   25  C8  UNL     1      19.345   1.767  49.658  1.00  0.00     0.309 C 
HETATM   26  C9  UNL     1      18.191   0.954  51.562  1.00  0.00     0.309 C 
ENDBRANCH  23  24
ENDBRANCH   2  23
TORSDOF 7
ENDMDL
MODEL 6
REMARK VINA RESULT:      -7.2      3.540      5.850
REMARK  7 active torsions:
REMARK  status: ('A' for Active; 'I' for Inactive)
REMARK    1  A    between atoms: C2_2  and  O1_3 
REMARK    2  A    between atoms: O1_3  and  C3_4 
REMARK    3  A    between atoms: C3_4  and  C4_5 
REMARK    4  A    between atoms: C4_5  and  C5_6 
REMARK    5  A    between atoms: C6_7  and  C7_8 
REMARK    6  A    between atoms: C7_8  and  N1_9 
REMARK    7  A    between atoms: N4_18  and  C14_19 
ROOT
HETATM    1  C5  UNL     1      24.358   0.865  52.198  1.00  0.00     0.125 A 
HETATM    2  C6  UNL     1      24.430  -0.019  53.422  1.00  0.00    -0.017 A 
HETATM    3  C10 UNL     1      23.240  -0.492  53.834  1.00  0.00     0.014 A 
HETATM    4  C11 UNL     1      22.900  -1.366  54.972  1.00  0.00     0.193 A 
HETATM    5  N2  UNL     1      21.443  -1.539  54.975  1.00  0.00    -0.278 NA
HETATM    6  C12 UNL     1      20.645  -1.061  54.142  1.00  0.00     0.229 A 
HETATM    7  N3  UNL     1      20.997  -0.261  53.051  1.00  0.00    -0.224 NA
HETATM    8  C13 UNL     1      22.259   0.042  52.857  1.00  0.00     0.140 A 
HETATM    9  N4  UNL     1      22.944   0.841  51.850  1.00  0.00    -0.322 N 
ENDROOT
BRANCH   9  10
HETATM   10  C14 UNL     1      22.092   1.346  50.824  1.00  0.00     0.038 A 
HETATM   11  C15 UNL     1      21.581   0.829  49.655  1.00  0.00     0.033 A 
HETATM   12  C16 UNL     1      20.777   1.613  48.831  1.00  0.00     0.046 A 
HETATM   13  C17 UNL     1      20.514   2.909  49.221  1.00  0.00     0.138 A 
HETATM   14  F1  UNL     1      19.712   3.621  48.367  1.00  0.00    -0.204 F 
HETATM   15  C18 UNL     1      20.999   3.478  50.378  1.00  0.00     0.074 A 
HETATM   16 CL1  UNL     1      20.579   5.155  50.744  1.00  0.00    -0.081 Cl
HETATM   17  C19 UNL     1      21.795   2.672  51.177  1.00  0.00     0.056 A 
ENDBRANCH   9  10
BRANCH   1  18
HETATM   18  C4  UNL     1      24.864   2.209  52.618  1.00  0.00     0.056 C 
BRANCH  18  19
HETATM   19  C3  UNL     1      25.733   2.918  51.586  1.00  0.00     0.170 C 
BRANCH  19  20
HETATM   20  O1  UNL     1      24.993   3.932  50.995  1.00  0.00    -0.391 OA
BRANCH  20  21
HETATM   21  C2  UNL     1      25.510   4.471  49.854  1.00  0.00     0.163 C 
HETATM   22  C1  UNL     1      26.798   3.874  49.356  1.00  0.00     0.033 C 
ENDBRANCH  20  21
ENDBRANCH  19  20
ENDBRANCH  18  19
ENDBRANCH   1  18
BRANCH   2  23
HETATM   23  C7  UNL     1      25.806  -0.173  53.879  1.00  0.00     0.308 C 
BRANCH  23  24
HETATM   24  N1  UNL     1      26.782  -0.454  52.836  1.00  0.00     0.083 N 
HETATM   25  C8  UNL     1      26.892  -1.918  52.657  1.00  0.00     0.309 C 
HETATM   26  C9  UNL     1      28.116   0.015  53.275  1.00  0.00     0.309 C 
ENDBRANCH  23  24
ENDBRANCH   2  23
TORSDOF 7
ENDMDL
MODEL 7
REMARK VINA RESULT:      -7.0      3.724      6.123
REMARK  7 active torsions:
REMARK  status: ('A' for Active; 'I' for Inactive)
REMARK    1  A    between atoms: C2_2  and  O1_3 
REMARK    2  A    between atoms: O1_3  and  C3_4 
REMARK    3  A    between atoms: C3_4  and  C4_5 
REMARK    4  A    between atoms: C4_5  and  C5_6 
REMARK    5  A    between atoms: C6_7  and  C7_8 
REMARK    6  A    between atoms: C7_8  and  N1_9 
REMARK    7  A    between atoms: N4_18  and  C14_19 
ROOT
HETATM    1  C5  UNL     1      24.077   1.395  52.420  1.00  0.00     0.125 A 
HETATM    2  C6  UNL     1      24.453   0.500  53.579  1.00  0.00    -0.017 A 
HETATM    3  C10 UNL     1      23.463  -0.310  53.997  1.00  0.00     0.014 A 
HETATM    4  C11 UNL     1      23.437  -1.307  55.083  1.00  0.00     0.193 A 
HETATM    5  N2  UNL     1      22.088  -1.880  55.124  1.00  0.00    -0.278 NA
HETATM    6  C12 UNL     1      21.147  -1.598  54.352  1.00  0.00     0.229 A 
HETATM    7  N3  UNL     1      21.207  -0.671  53.307  1.00  0.00    -0.224 NA
HETATM    8  C13 UNL     1      22.325  -0.018  53.092  1.00  0.00     0.140 A 
HETATM    9  N4  UNL     1      22.710   0.996  52.119  1.00  0.00    -0.322 N 
ENDROOT
BRANCH   9  10
HETATM   10  C14 UNL     1      21.699   1.300  51.158  1.00  0.00     0.038 A 
HETATM   11  C15 UNL     1      20.324   1.332  51.186  1.00  0.00     0.033 A 
HETATM   12  C16 UNL     1      19.605   1.648  50.035  1.00  0.00     0.046 A 
HETATM   13  C17 UNL     1      20.309   1.922  48.882  1.00  0.00     0.138 A 
HETATM   14  F1  UNL     1      19.539   2.230  47.791  1.00  0.00    -0.204 F 
HETATM   15  C18 UNL     1      21.683   1.903  48.798  1.00  0.00     0.074 A 
HETATM   16 CL1  UNL     1      22.447   2.273  47.248  1.00  0.00    -0.081 Cl
HETATM   17  C19 UNL     1      22.371   1.586  49.959  1.00  0.00     0.056 A 
ENDBRANCH   9  10
BRANCH   1  18
HETATM   18  C4  UNL     1      24.212   2.802  52.914  1.00  0.00     0.056 C 
BRANCH  18  19
HETATM   19  C3  UNL     1      24.279   3.861  51.820  1.00  0.00     0.170 C 
BRANCH  19  20
HETATM   20  O1  UNL     1      23.669   5.020  52.279  1.00  0.00    -0.391 OA
BRANCH  20  21
HETATM   21  C2  UNL     1      22.783   5.613  51.428  1.00  0.00     0.163 C 
HETATM   22  C1  UNL     1      21.437   4.955  51.298  1.00  0.00     0.033 C 
ENDBRANCH  20  21
ENDBRANCH  19  20
ENDBRANCH  18  19
ENDBRANCH   1  18
BRANCH   2  23
HETATM   23  C7  UNL     1      25.840   0.711  53.978  1.00  0.00     0.308 C 
BRANCH  23  24
HETATM   24  N1  UNL     1      26.699  -0.461  53.891  1.00  0.00     0.083 N 
HETATM   25  C8  UNL     1      28.044  -0.114  54.398  1.00  0.00     0.309 C 
HETATM   26  C9  UNL     1      26.872  -0.836  52.469  1.00  0.00     0.309 C 
ENDBRANCH  23  24
ENDBRANCH   2  23
TORSDOF 7
ENDMDL
MODEL 8
REMARK VINA RESULT:      -7.0      2.101      4.525
REMARK  7 active torsions:
REMARK  status: ('A' for Active; 'I' for Inactive)
REMARK    1  A    between atoms: C2_2  and  O1_3 
REMARK    2  A    between atoms: O1_3  and  C3_4 
REMARK    3  A    between atoms: C3_4  and  C4_5 
REMARK    4  A    between atoms: C4_5  and  C5_6 
REMARK    5  A    between atoms: C6_7  and  C7_8 
REMARK    6  A    between atoms: C7_8  and  N1_9 
REMARK    7  A    between atoms: N4_18  and  C14_19 
ROOT
HETATM    1  C5  UNL     1      23.695   1.185  51.640  1.00  0.00     0.125 A 
HETATM    2  C6  UNL     1      23.300   2.314  50.716  1.00  0.00    -0.017 A 
HETATM    3  C10 UNL     1      24.335   3.042  50.258  1.00  0.00     0.014 A 
HETATM    4  C11 UNL     1      24.359   4.209  49.356  1.00  0.00     0.193 A 
HETATM    5  N2  UNL     1      25.757   4.630  49.217  1.00  0.00    -0.278 NA
HETATM    6  C12 UNL     1      26.746   4.076  49.741  1.00  0.00     0.229 A 
HETATM    7  N3  UNL     1      26.700   2.949  50.567  1.00  0.00    -0.224 NA
HETATM    8  C13 UNL     1      25.539   2.405  50.845  1.00  0.00     0.140 A 
HETATM    9  N4  UNL     1      25.149   1.261  51.659  1.00  0.00    -0.322 N 
ENDROOT
BRANCH   9  10
HETATM   10  C14 UNL     1      26.246   0.538  52.217  1.00  0.00     0.038 A 
HETATM   11  C15 UNL     1      26.593  -0.792  52.272  1.00  0.00     0.033 A 
HETATM   12  C16 UNL     1      27.750  -1.190  52.938  1.00  0.00     0.046 A 
HETATM   13  C17 UNL     1      28.526  -0.217  53.533  1.00  0.00     0.138 A 
HETATM   14  F1  UNL     1      29.651  -0.679  54.165  1.00  0.00    -0.204 F 
HETATM   15  C18 UNL     1      28.225   1.127  53.510  1.00  0.00     0.074 A 
HETATM   16 CL1  UNL     1      29.314   2.257  54.322  1.00  0.00    -0.081 Cl
HETATM   17  C19 UNL     1      27.068   1.491  52.839  1.00  0.00     0.056 A 
ENDBRANCH   9  10
BRANCH   1  18
HETATM   18  C4  UNL     1      23.047   1.472  52.958  1.00  0.00     0.056 C 
BRANCH  18  19
HETATM   19  C3  UNL     1      22.699   0.239  53.783  1.00  0.00     0.170 C 
BRANCH  19  20
HETATM   20  O1  UNL     1      21.581  -0.371  53.231  1.00  0.00    -0.391 OA
BRANCH  20  21
HETATM   21  C2  UNL     1      20.410   0.323  53.317  1.00  0.00     0.163 C 
HETATM   22  C1  UNL     1      19.403   0.077  52.229  1.00  0.00     0.033 C 
ENDBRANCH  20  21
ENDBRANCH  19  20
ENDBRANCH  18  19
ENDBRANCH   1  18
BRANCH   2  23
HETATM   23  C7  UNL     1      21.857   2.349  50.515  1.00  0.00     0.308 C 
BRANCH  23  24
HETATM   24  N1  UNL     1      21.246   3.668  50.600  1.00  0.00     0.083 N 
HETATM   25  C8  UNL     1      20.342   3.708  51.770  1.00  0.00     0.309 C 
HETATM   26  C9  UNL     1      20.398   3.893  49.408  1.00  0.00     0.309 C 
ENDBRANCH  23  24
ENDBRANCH   2  23
TORSDOF 7
ENDMDL
MODEL 9
REMARK VINA RESULT:      -6.9      3.001      5.123
REMARK  7 active torsions:
REMARK  status: ('A' for Active; 'I' for Inactive)
REMARK    1  A    between atoms: C2_2  and  O1_3 
REMARK    2  A    between atoms: O1_3  and  C3_4 
REMARK    3  A    between atoms: C3_4  and  C4_5 
REMARK    4  A    between atoms: C4_5  and  C5_6 
REMARK    5  A    between atoms: C6_7  and  C7_8 
REMARK    6  A    between atoms: C7_8  and  N1_9 
REMARK    7  A    between atoms: N4_18  and  C14_19 
ROOT
HETATM    1  C5  UNL     1      23.239   2.243  51.863  1.00  0.00     0.125 A 
HETATM    2  C6  UNL     1      23.321   1.060  52.801  1.00  0.00    -0.017 A 
HETATM    3  C10 UNL     1      24.535   0.484  52.860  1.00  0.00     0.014 A 
HETATM    4  C11 UNL     1      25.007  -0.675  53.641  1.00  0.00     0.193 A 
HETATM    5  N2  UNL     1      26.416  -0.894  53.298  1.00  0.00    -0.278 NA
HETATM    6  C12 UNL     1      27.097  -0.199  52.515  1.00  0.00     0.229 A 
HETATM    7  N3  UNL     1      26.635   0.917  51.811  1.00  0.00    -0.224 NA
HETATM    8  C13 UNL     1      25.385   1.292  51.952  1.00  0.00     0.140 A 
HETATM    9  N4  UNL     1      24.603   2.375  51.371  1.00  0.00    -0.322 N 
ENDROOT
BRANCH   9  10
HETATM   10  C14 UNL     1      25.351   3.252  50.530  1.00  0.00     0.038 A 
HETATM   11  C15 UNL     1      26.419   3.090  49.678  1.00  0.00     0.033 A 
HETATM   12  C16 UNL     1      26.954   4.186  49.004  1.00  0.00     0.046 A 
HETATM   13  C17 UNL     1      26.384   5.423  49.218  1.00  0.00     0.138 A 
HETATM   14  F1  UNL     1      26.957   6.453  48.519  1.00  0.00    -0.204 F 
HETATM   15  C18 UNL     1      25.317   5.643  50.060  1.00  0.00     0.074 A 
HETATM   16 CL1  UNL     1      24.697   7.288  50.237  1.00  0.00    -0.081 Cl
HETATM   17  C19 UNL     1      24.807   4.533  50.715  1.00  0.00     0.056 A 
ENDBRANCH   9  10
BRANCH   1  18
HETATM   18  C4  UNL     1      22.239   1.878  50.811  1.00  0.00     0.056 C 
BRANCH  18  19
HETATM   19  C3  UNL     1      21.116   2.889  50.615  1.00  0.00     0.170 C 
BRANCH  19  20
HETATM   20  O1  UNL     1      20.949   3.119  49.257  1.00  0.00    -0.391 OA
BRANCH  20  21
HETATM   21  C2  UNL     1      22.081   3.399  48.549  1.00  0.00     0.163 C 
HETATM   22  C1  UNL     1      22.166   2.816  47.166  1.00  0.00     0.033 C 
ENDBRANCH  20  21
ENDBRANCH  19  20
ENDBRANCH  18  19
ENDBRANCH   1  18
BRANCH   2  23
HETATM   23  C7  UNL     1      22.041   0.818  53.455  1.00  0.00     0.308 C 
BRANCH  23  24
HETATM   24  N1  UNL     1      21.424  -0.468  53.161  1.00  0.00     0.083 N 
HETATM   25  C8  UNL     1      19.991  -0.259  52.860  1.00  0.00     0.309 C 
HETATM   26  C9  UNL     1      21.477  -1.323  54.368  1.00  0.00     0.309 C 
ENDBRANCH  23  24
ENDBRANCH   2  23
TORSDOF 7
ENDMDL
