MODEL 1
REMARK VINA RESULT:      -8.0      0.000      0.000
REMARK  0 active torsions:
REMARK  status: ('A' for Active; 'I' for Inactive)
ROOT
HETATM    1  C1  UNL     1      27.188   4.654  48.958  1.00  0.00     0.052 C 
HETATM    2  C2  UNL     1      26.398   3.808  49.855  1.00  0.00    -0.009 C 
HETATM    3  C3  UNL     1      26.792   2.854  50.697  1.00  0.00     0.176 C 
HETATM    4  O1  UNL     1      25.743   2.267  51.385  1.00  0.00    -0.247 OA
HETATM    5  N1  UNL     1      26.005   1.171  52.214  1.00  0.00    -0.230 N 
HETATM    6  C4  UNL     1      24.812   0.705  52.830  1.00  0.00     0.241 C 
HETATM    7  O2  UNL     1      24.482   1.677  52.115  1.00  0.00    -0.271 OA
HETATM    8  C5  UNL     1      24.526  -0.403  53.777  1.00  0.00     0.105 C 
HETATM    9  C6  UNL     1      23.017  -0.373  54.015  1.00  0.00     0.009 C 
HETATM   10  C7  UNL     1      22.279  -0.576  52.707  1.00  0.00     0.001 C 
HETATM   11  C8  UNL     1      20.823  -0.587  52.846  1.00  0.00     0.002 C 
HETATM   12  C9  UNL     1      20.084   0.554  53.372  1.00  0.00     0.027 C 
HETATM   13  C10 UNL     1      20.125   1.865  52.709  1.00  0.00     0.174 C 
HETATM   14  O3  UNL     1      21.445   2.343  52.665  1.00  0.00    -0.361 OA
HETATM   15  C11 UNL     1      21.842   3.567  52.157  1.00  0.00     0.159 C 
HETATM   16  C12 UNL     1      22.359   3.987  50.999  1.00  0.00     0.035 C 
HETATM   17  C13 UNL     1      22.660   3.113  49.847  1.00  0.00     0.088 C 
HETATM   18  C14 UNL     1      24.068   3.319  49.352  1.00  0.00     0.012 C 
HETATM   19  C15 UNL     1      25.012   4.236  49.637  1.00  0.00     0.062 C 
HETATM   20  N2  UNL     1      24.698   5.642  49.736  1.00  0.00    -0.244 NA
HETATM   21  C16 UNL     1      23.649   6.081  50.390  1.00  0.00     0.208 C 
HETATM   22  N3  UNL     1      22.567   5.411  51.085  1.00  0.00    -0.352 N 
HETATM   23  H5  UNL     1      26.797   0.555  52.550  1.00  0.00     0.198 HD
HETATM   24  H23 UNL     1      21.913   5.948  51.670  1.00  0.00     0.166 HD
ENDROOT
TORSDOF 0
ENDMDL
MODEL 2
REMARK VINA RESULT:      -8.0      2.117      5.513
REMARK  0 active torsions:
REMARK  status: ('A' for Active; 'I' for Inactive)
ROOT
HETATM    1  C1  UNL     1      26.296  -0.279  52.940  1.00  0.00     0.052 C 
HETATM    2  C2  UNL     1      26.047   0.979  52.232  1.00  0.00    -0.009 C 
HETATM    3  C3  UNL     1      26.785   1.605  51.316  1.00  0.00     0.176 C 
HETATM    4  O1  UNL     1      26.213   2.786  50.871  1.00  0.00    -0.247 OA
HETATM    5  N1  UNL     1      26.939   3.601  49.997  1.00  0.00    -0.230 N 
HETATM    6  C4  UNL     1      26.196   4.765  49.654  1.00  0.00     0.241 C 
HETATM    7  O2  UNL     1      25.474   4.101  50.432  1.00  0.00    -0.271 OA
HETATM    8  C5  UNL     1      26.485   5.933  48.785  1.00  0.00     0.105 C 
HETATM    9  C6  UNL     1      25.263   6.844  48.884  1.00  0.00     0.009 C 
HETATM   10  C7  UNL     1      25.052   7.278  50.322  1.00  0.00     0.001 C 
HETATM   11  C8  UNL     1      23.912   8.177  50.506  1.00  0.00     0.002 C 
HETATM   12  C9  UNL     1      22.551   7.785  50.164  1.00  0.00     0.027 C 
HETATM   13  C10 UNL     1      21.898   6.639  50.813  1.00  0.00     0.174 C 
HETATM   14  O3  UNL     1      22.629   5.465  50.568  1.00  0.00    -0.361 OA
HETATM   15  C11 UNL     1      22.275   4.194  50.986  1.00  0.00     0.159 C 
HETATM   16  C12 UNL     1      22.623   3.404  52.006  1.00  0.00     0.035 C 
HETATM   17  C13 UNL     1      23.595   3.766  53.056  1.00  0.00     0.088 C 
HETATM   18  C14 UNL     1      24.642   2.696  53.231  1.00  0.00     0.012 C 
HETATM   19  C15 UNL     1      24.756   1.443  52.752  1.00  0.00     0.062 C 
HETATM   20  N2  UNL     1      23.635   0.532  52.736  1.00  0.00    -0.244 NA
HETATM   21  C16 UNL     1      22.443   0.898  52.332  1.00  0.00     0.208 C 
HETATM   22  N3  UNL     1      21.895   2.165  51.887  1.00  0.00    -0.352 N 
HETATM   23  H5  UNL     1      27.865   3.658  49.490  1.00  0.00     0.198 HD
HETATM   24  H23 UNL     1      20.958   2.207  51.465  1.00  0.00     0.166 HD
ENDROOT
TORSDOF 0
ENDMDL
MODEL 3
REMARK VINA RESULT:      -7.9      1.729      4.075
REMARK  0 active torsions:
REMARK  status: ('A' for Active; 'I' for Inactive)
ROOT
HETATM    1  C1  UNL     1      22.497   7.360  50.433  1.00  0.00     0.052 C 
HETATM    2  C2  UNL     1      22.115   6.012  50.860  1.00  0.00    -0.009 C 
HETATM    3  C3  UNL     1      20.926   5.411  50.830  1.00  0.00     0.176 C 
HETATM    4  O1  UNL     1      20.958   4.118  51.326  1.00  0.00    -0.247 OA
HETATM    5  N1  UNL     1      19.756   3.416  51.460  1.00  0.00    -0.230 N 
HETATM    6  C4  UNL     1      19.985   2.114  51.985  1.00  0.00     0.241 C 
HETATM    7  O2  UNL     1      21.107   2.662  51.900  1.00  0.00    -0.271 OA
HETATM    8  C5  UNL     1      19.085   0.983  52.320  1.00  0.00     0.105 C 
HETATM    9  C6  UNL     1      19.983  -0.120  52.878  1.00  0.00     0.009 C 
HETATM   10  C7  UNL     1      20.710   0.376  54.112  1.00  0.00     0.001 C 
HETATM   11  C8  UNL     1      21.578  -0.627  54.730  1.00  0.00     0.002 C 
HETATM   12  C9  UNL     1      22.692  -1.236  54.014  1.00  0.00     0.027 C 
HETATM   13  C10 UNL     1      23.805  -0.427  53.498  1.00  0.00     0.174 C 
HETATM   14  O3  UNL     1      23.326   0.520  52.577  1.00  0.00    -0.361 OA
HETATM   15  C11 UNL     1      24.104   1.412  51.860  1.00  0.00     0.159 C 
HETATM   16  C12 UNL     1      24.435   2.699  51.998  1.00  0.00     0.035 C 
HETATM   17  C13 UNL     1      23.981   3.571  53.099  1.00  0.00     0.088 C 
HETATM   18  C14 UNL     1      23.393   4.857  52.578  1.00  0.00     0.012 C 
HETATM   19  C15 UNL     1      23.361   5.417  51.354  1.00  0.00     0.062 C 
HETATM   20  N2  UNL     1      24.529   5.450  50.504  1.00  0.00    -0.244 NA
HETATM   21  C16 UNL     1      25.300   4.403  50.334  1.00  0.00     0.208 C 
HETATM   22  N3  UNL     1      25.290   3.066  50.897  1.00  0.00    -0.352 N 
HETATM   23  H5  UNL     1      18.714   3.515  51.306  1.00  0.00     0.198 HD
HETATM   24  H23 UNL     1      25.904   2.336  50.512  1.00  0.00     0.166 HD
ENDROOT
TORSDOF 0
ENDMDL
MODEL 4
REMARK VINA RESULT:      -7.8      2.010      3.827
REMARK  0 active torsions:
REMARK  status: ('A' for Active; 'I' for Inactive)
ROOT
HETATM    1  C1  UNL     1      26.426   4.485  49.398  1.00  0.00     0.052 C 
HETATM    2  C2  UNL     1      25.312   3.637  49.828  1.00  0.00    -0.009 C 
HETATM    3  C3  UNL     1      24.152   3.378  49.225  1.00  0.00     0.176 C 
HETATM    4  O1  UNL     1      23.342   2.518  49.948  1.00  0.00    -0.247 OA
HETATM    5  N1  UNL     1      22.049   2.257  49.485  1.00  0.00    -0.230 N 
HETATM    6  C4  UNL     1      21.370   1.360  50.355  1.00  0.00     0.241 C 
HETATM    7  O2  UNL     1      22.508   1.533  50.845  1.00  0.00    -0.271 OA
HETATM    8  C5  UNL     1      20.009   0.767  50.339  1.00  0.00     0.105 C 
HETATM    9  C6  UNL     1      19.911  -0.094  51.596  1.00  0.00     0.009 C 
HETATM   10  C7  UNL     1      20.112   0.763  52.831  1.00  0.00     0.001 C 
HETATM   11  C8  UNL     1      20.008   0.021  54.088  1.00  0.00     0.002 C 
HETATM   12  C9  UNL     1      20.896  -1.088  54.410  1.00  0.00     0.027 C 
HETATM   13  C10 UNL     1      22.350  -0.902  54.508  1.00  0.00     0.174 C 
HETATM   14  O3  UNL     1      22.862  -0.443  53.283  1.00  0.00    -0.361 OA
HETATM   15  C11 UNL     1      24.197  -0.209  53.004  1.00  0.00     0.159 C 
HETATM   16  C12 UNL     1      24.981   0.873  52.975  1.00  0.00     0.035 C 
HETATM   17  C13 UNL     1      24.531   2.245  53.279  1.00  0.00     0.088 C 
HETATM   18  C14 UNL     1      24.931   3.210  52.194  1.00  0.00     0.012 C 
HETATM   19  C15 UNL     1      25.740   3.097  51.123  1.00  0.00     0.062 C 
HETATM   20  N2  UNL     1      27.030   2.453  51.212  1.00  0.00    -0.244 NA
HETATM   21  C16 UNL     1      27.202   1.313  51.838  1.00  0.00     0.208 C 
HETATM   22  N3  UNL     1      26.309   0.458  52.597  1.00  0.00    -0.352 N 
HETATM   23  H5  UNL     1      21.384   2.498  48.697  1.00  0.00     0.198 HD
HETATM   24  H23 UNL     1      26.610  -0.483  52.885  1.00  0.00     0.166 HD
ENDROOT
TORSDOF 0
ENDMDL
MODEL 5
REMARK VINA RESULT:      -7.5      2.258      4.495
REMARK  0 active torsions:
REMARK  status: ('A' for Active; 'I' for Inactive)
ROOT
HETATM    1  C1  UNL     1      20.143   3.742  47.953  1.00  0.00     0.052 C 
HETATM    2  C2  UNL     1      21.279   3.338  48.785  1.00  0.00    -0.009 C 
HETATM    3  C3  UNL     1      22.536   3.778  48.787  1.00  0.00     0.176 C 
HETATM    4  O1  UNL     1      23.333   3.148  49.729  1.00  0.00    -0.247 OA
HETATM    5  N1  UNL     1      24.701   3.432  49.757  1.00  0.00    -0.230 N 
HETATM    6  C4  UNL     1      25.352   2.692  50.783  1.00  0.00     0.241 C 
HETATM    7  O2  UNL     1      24.142   2.376  50.834  1.00  0.00    -0.271 OA
HETATM    8  C5  UNL     1      26.763   2.614  51.238  1.00  0.00     0.105 C 
HETATM    9  C6  UNL     1      26.783   1.593  52.374  1.00  0.00     0.009 C 
HETATM   10  C7  UNL     1      26.302   0.246  51.872  1.00  0.00     0.001 C 
HETATM   11  C8  UNL     1      26.312  -0.802  52.892  1.00  0.00     0.002 C 
HETATM   12  C9  UNL     1      25.530  -0.701  54.117  1.00  0.00     0.027 C 
HETATM   13  C10 UNL     1      24.065  -0.590  54.084  1.00  0.00     0.174 C 
HETATM   14  O3  UNL     1      23.684   0.563  53.378  1.00  0.00    -0.361 OA
HETATM   15  C11 UNL     1      22.385   1.003  53.194  1.00  0.00     0.159 C 
HETATM   16  C12 UNL     1      21.486   0.912  52.209  1.00  0.00     0.035 C 
HETATM   17  C13 UNL     1      21.716   0.225  50.923  1.00  0.00     0.088 C 
HETATM   18  C14 UNL     1      21.362   1.108  49.755  1.00  0.00     0.012 C 
HETATM   19  C15 UNL     1      20.737   2.297  49.665  1.00  0.00     0.062 C 
HETATM   20  N2  UNL     1      19.536   2.582  50.416  1.00  0.00    -0.244 NA
HETATM   21  C16 UNL     1      19.417   2.278  51.686  1.00  0.00     0.208 C 
HETATM   22  N3  UNL     1      20.288   1.597  52.626  1.00  0.00    -0.352 N 
HETATM   23  H5  UNL     1      25.439   4.017  49.273  1.00  0.00     0.198 HD
HETATM   24  H23 UNL     1      20.067   1.592  53.630  1.00  0.00     0.166 HD
ENDROOT
TORSDOF 0
ENDMDL
MODEL 6
REMARK VINA RESULT:      -7.4      3.346      4.716
REMARK  0 active torsions:
REMARK  status: ('A' for Active; 'I' for Inactive)
ROOT
HETATM    1  C1  UNL     1      29.747   6.990  47.628  1.00  0.00     0.052 C 
HETATM    2  C2  UNL     1      28.553   6.370  48.207  1.00  0.00    -0.009 C 
HETATM    3  C3  UNL     1      28.324   5.100  48.540  1.00  0.00     0.176 C 
HETATM    4  O1  UNL     1      27.059   4.895  49.066  1.00  0.00    -0.247 OA
HETATM    5  N1  UNL     1      26.648   3.588  49.347  1.00  0.00    -0.230 N 
HETATM    6  C4  UNL     1      25.327   3.575  49.874  1.00  0.00     0.241 C 
HETATM    7  O2  UNL     1      25.608   4.774  49.656  1.00  0.00    -0.271 OA
HETATM    8  C5  UNL     1      24.428   2.485  50.329  1.00  0.00     0.105 C 
HETATM    9  C6  UNL     1      23.126   3.162  50.752  1.00  0.00     0.009 C 
HETATM   10  C7  UNL     1      22.522   3.908  49.579  1.00  0.00     0.001 C 
HETATM   11  C8  UNL     1      21.254   4.569  49.889  1.00  0.00     0.002 C 
HETATM   12  C9  UNL     1      21.145   5.595  50.917  1.00  0.00     0.027 C 
HETATM   13  C10 UNL     1      21.908   6.849  50.833  1.00  0.00     0.174 C 
HETATM   14  O3  UNL     1      23.286   6.574  50.814  1.00  0.00    -0.361 OA
HETATM   15  C11 UNL     1      24.296   7.520  50.790  1.00  0.00     0.159 C 
HETATM   16  C12 UNL     1      25.067   8.055  49.838  1.00  0.00     0.035 C 
HETATM   17  C13 UNL     1      24.998   7.705  48.406  1.00  0.00     0.088 C 
HETATM   18  C14 UNL     1      26.359   7.363  47.856  1.00  0.00     0.012 C 
HETATM   19  C15 UNL     1      27.602   7.477  48.359  1.00  0.00     0.062 C 
HETATM   20  N2  UNL     1      28.034   8.670  49.051  1.00  0.00    -0.244 NA
HETATM   21  C16 UNL     1      27.291   9.262  49.954  1.00  0.00     0.208 C 
HETATM   22  N3  UNL     1      25.955   9.006  50.458  1.00  0.00    -0.352 N 
HETATM   23  H5  UNL     1      26.982   2.585  49.304  1.00  0.00     0.198 HD
HETATM   24  H23 UNL     1      25.608   9.506  51.288  1.00  0.00     0.166 HD
ENDROOT
TORSDOF 0
ENDMDL
MODEL 7
REMARK VINA RESULT:      -6.9      2.470      4.098
REMARK  0 active torsions:
REMARK  status: ('A' for Active; 'I' for Inactive)
ROOT
HETATM    1  C1  UNL     1      23.468   7.493  46.755  1.00  0.00     0.052 C 
HETATM    2  C2  UNL     1      23.170   6.248  47.467  1.00  0.00    -0.009 C 
HETATM    3  C3  UNL     1      22.306   5.279  47.169  1.00  0.00     0.176 C 
HETATM    4  O1  UNL     1      22.307   4.246  48.093  1.00  0.00    -0.247 OA
HETATM    5  N1  UNL     1      21.364   3.222  47.964  1.00  0.00    -0.230 N 
HETATM    6  C4  UNL     1      21.516   2.259  49.000  1.00  0.00     0.241 C 
HETATM    7  O2  UNL     1      22.395   3.129  49.195  1.00  0.00    -0.271 OA
HETATM    8  C5  UNL     1      20.797   1.004  49.330  1.00  0.00     0.105 C 
HETATM    9  C6  UNL     1      21.451   0.465  50.600  1.00  0.00     0.009 C 
HETATM   10  C7  UNL     1      21.319   1.476  51.723  1.00  0.00     0.001 C 
HETATM   11  C8  UNL     1      21.899   1.031  52.990  1.00  0.00     0.002 C 
HETATM   12  C9  UNL     1      23.312   0.697  53.122  1.00  0.00     0.027 C 
HETATM   13  C10 UNL     1      24.362   1.692  52.861  1.00  0.00     0.174 C 
HETATM   14  O3  UNL     1      24.274   2.148  51.535  1.00  0.00    -0.361 OA
HETATM   15  C11 UNL     1      25.135   3.050  50.935  1.00  0.00     0.159 C 
HETATM   16  C12 UNL     1      25.105   4.362  50.685  1.00  0.00     0.035 C 
HETATM   17  C13 UNL     1      23.992   5.261  51.046  1.00  0.00     0.088 C 
HETATM   18  C14 UNL     1      23.542   6.084  49.866  1.00  0.00     0.012 C 
HETATM   19  C15 UNL     1      24.056   6.274  48.637  1.00  0.00     0.062 C 
HETATM   20  N2  UNL     1      25.467   6.506  48.431  1.00  0.00    -0.244 NA
HETATM   21  C16 UNL     1      26.388   5.791  49.032  1.00  0.00     0.208 C 
HETATM   22  N3  UNL     1      26.327   4.722  50.010  1.00  0.00    -0.352 N 
HETATM   23  H5  UNL     1      20.561   2.905  47.353  1.00  0.00     0.198 HD
HETATM   24  H23 UNL     1      27.172   4.184  50.245  1.00  0.00     0.166 HD
ENDROOT
TORSDOF 0
ENDMDL
MODEL 8
REMARK VINA RESULT:      -6.9      2.974      6.119
REMARK  0 active torsions:
REMARK  status: ('A' for Active; 'I' for Inactive)
ROOT
HETATM    1  C1  UNL     1      16.701   2.829  50.034  1.00  0.00     0.052 C 
HETATM    2  C2  UNL     1      18.042   2.901  50.619  1.00  0.00    -0.009 C 
HETATM    3  C3  UNL     1      18.789   3.964  50.918  1.00  0.00     0.176 C 
HETATM    4  O1  UNL     1      20.017   3.630  51.463  1.00  0.00    -0.247 OA
HETATM    5  N1  UNL     1      20.945   4.646  51.713  1.00  0.00    -0.230 N 
HETATM    6  C4  UNL     1      22.142   4.114  52.268  1.00  0.00     0.241 C 
HETATM    7  O2  UNL     1      21.378   3.141  52.080  1.00  0.00    -0.271 OA
HETATM    8  C5  UNL     1      23.418   4.733  52.707  1.00  0.00     0.105 C 
HETATM    9  C6  UNL     1      24.304   3.581  53.178  1.00  0.00     0.009 C 
HETATM   10  C7  UNL     1      24.539   2.607  52.041  1.00  0.00     0.001 C 
HETATM   11  C8  UNL     1      25.402   1.480  52.397  1.00  0.00     0.002 C 
HETATM   12  C9  UNL     1      25.056   0.543  53.458  1.00  0.00     0.027 C 
HETATM   13  C10 UNL     1      23.832  -0.268  53.395  1.00  0.00     0.174 C 
HETATM   14  O3  UNL     1      22.703   0.567  53.340  1.00  0.00    -0.361 OA
HETATM   15  C11 UNL     1      21.387   0.141  53.323  1.00  0.00     0.159 C 
HETATM   16  C12 UNL     1      20.467  -0.049  52.373  1.00  0.00     0.035 C 
HETATM   17  C13 UNL     1      20.686   0.187  50.932  1.00  0.00     0.088 C 
HETATM   18  C14 UNL     1      19.605   1.056  50.345  1.00  0.00     0.012 C 
HETATM   19  C15 UNL     1      18.429   1.501  50.824  1.00  0.00     0.062 C 
HETATM   20  N2  UNL     1      17.525   0.632  51.543  1.00  0.00    -0.244 NA
HETATM   21  C16 UNL     1      17.939  -0.187  52.479  1.00  0.00     0.208 C 
HETATM   22  N3  UNL     1      19.254  -0.507  53.003  1.00  0.00    -0.352 N 
HETATM   23  H5  UNL     1      21.072   5.693  51.633  1.00  0.00     0.198 HD
HETATM   24  H23 UNL     1      19.350  -1.076  53.854  1.00  0.00     0.166 HD
ENDROOT
TORSDOF 0
ENDMDL
MODEL 9
REMARK VINA RESULT:      -6.8      2.554      3.735
REMARK  0 active torsions:
REMARK  status: ('A' for Active; 'I' for Inactive)
ROOT
HETATM    1  C1  UNL     1      21.864   4.600  46.363  1.00  0.00     0.052 C 
HETATM    2  C2  UNL     1      22.291   4.058  47.655  1.00  0.00    -0.009 C 
HETATM    3  C3  UNL     1      23.298   4.426  48.446  1.00  0.00     0.176 C 
HETATM    4  O1  UNL     1      23.388   3.667  49.602  1.00  0.00    -0.247 OA
HETATM    5  N1  UNL     1      24.472   3.871  50.462  1.00  0.00    -0.230 N 
HETATM    6  C4  UNL     1      24.396   3.004  51.587  1.00  0.00     0.241 C 
HETATM    7  O2  UNL     1      23.394   2.753  50.880  1.00  0.00    -0.271 OA
HETATM    8  C5  UNL     1      25.264   2.806  52.775  1.00  0.00     0.105 C 
HETATM    9  C6  UNL     1      24.618   1.685  53.586  1.00  0.00     0.009 C 
HETATM   10  C7  UNL     1      24.541   0.419  52.755  1.00  0.00     0.001 C 
HETATM   11  C8  UNL     1      23.956  -0.719  53.465  1.00  0.00     0.002 C 
HETATM   12  C9  UNL     1      22.599  -0.688  53.996  1.00  0.00     0.027 C 
HETATM   13  C10 UNL     1      21.437  -0.494  53.117  1.00  0.00     0.174 C 
HETATM   14  O3  UNL     1      21.537   0.739  52.451  1.00  0.00    -0.361 OA
HETATM   15  C11 UNL     1      20.595   1.267  51.586  1.00  0.00     0.159 C 
HETATM   16  C12 UNL     1      20.455   1.317  50.258  1.00  0.00     0.035 C 
HETATM   17  C13 UNL     1      21.408   0.740  49.289  1.00  0.00     0.088 C 
HETATM   18  C14 UNL     1      21.806   1.747  48.241  1.00  0.00     0.012 C 
HETATM   19  C15 UNL     1      21.343   2.972  47.928  1.00  0.00     0.062 C 
HETATM   20  N2  UNL     1      19.928   3.252  47.852  1.00  0.00    -0.244 NA
HETATM   21  C16 UNL     1      19.083   2.838  48.765  1.00  0.00     0.208 C 
HETATM   22  N3  UNL     1      19.236   2.027  49.958  1.00  0.00    -0.352 N 
HETATM   23  H5  UNL     1      25.346   4.456  50.572  1.00  0.00     0.198 HD
HETATM   24  H23 UNL     1      18.462   1.941  50.631  1.00  0.00     0.166 HD
ENDROOT
TORSDOF 0
ENDMDL
