MODEL 1
REMARK VINA RESULT:      -7.3      0.000      0.000
REMARK  10 active torsions:
REMARK  status: ('A' for Active; 'I' for Inactive)
REMARK    1  A    between atoms: C2_2  and  C3_3 
REMARK    2  A    between atoms: C2_2  and  O3_23 
REMARK    3  A    between atoms: C3_3  and  C4_4 
REMARK    4  A    between atoms: C5_5  and  C6_6 
REMARK    5  A    between atoms: C8_8  and  C9_9 
REMARK    6  A    between atoms: C9_9  and  C10_10 
REMARK    7  A    between atoms: C11_11  and  C12_13 
REMARK    8  A    between atoms: C12_13  and  N1_14 
REMARK    9  A    between atoms: C15_17  and  C16_18 
REMARK   10  A    between atoms: C16_18  and  O2_20 
ROOT
HETATM    1  C6  UNL     1      24.286   0.079  53.064  1.00  0.00     0.057 A 
HETATM    2  C7  UNL     1      24.237   1.042  52.096  1.00  0.00     0.045 A 
HETATM    3  C8  UNL     1      23.104   1.785  51.736  1.00  0.00    -0.006 A 
HETATM    4  C15 UNL     1      22.039   1.411  52.504  1.00  0.00     0.066 A 
HETATM    5  C17 UNL     1      22.046   0.447  53.485  1.00  0.00     0.136 A 
HETATM    6  N2  UNL     1      23.175  -0.209  53.752  1.00  0.00    -0.260 NA
ENDROOT
BRANCH   3   7
HETATM    7  C9  UNL     1      23.191   2.806  50.727  1.00  0.00    -0.028 C 
HETATM    8  C13 UNL     1      22.692   2.365  49.548  1.00  0.00    -0.019 C 
HETATM    9  C14 UNL     1      22.511   2.928  48.192  1.00  0.00     0.037 C 
BRANCH   7  10
HETATM   10  C10 UNL     1      23.598   4.174  50.721  1.00  0.00     0.033 C 
HETATM   11  C11 UNL     1      24.499   5.097  50.331  1.00  0.00     0.040 C 
HETATM   12 CL1  UNL     1      26.009   5.042  49.397  1.00  0.00    -0.087 Cl
BRANCH  11  13
HETATM   13  C12 UNL     1      24.493   6.557  50.588  1.00  0.00     0.317 C 
BRANCH  13  14
HETATM   14  N1  UNL     1      24.377   6.911  51.977  1.00  0.00     0.083 N 
HETATM   15  H11 UNL     1      24.423   7.940  52.129  1.00  0.00     0.313 HD
HETATM   16  H12 UNL     1      25.172   6.470  52.487  1.00  0.00     0.313 HD
ENDBRANCH  13  14
ENDBRANCH  11  13
ENDBRANCH   7  10
ENDBRANCH   3   7
BRANCH   4  17
HETATM   17  C16 UNL     1      20.813   2.212  52.446  1.00  0.00     0.178 C 
HETATM   18  O1  UNL     1      20.308   3.300  52.746  1.00  0.00    -0.646 OA
BRANCH  17  19
HETATM   19  O2  UNL     1      19.583   1.899  51.908  1.00  0.00    -0.773 OA
HETATM   20  H17 UNL     1      19.347   1.127  51.285  1.00  0.00     0.167 HD
ENDBRANCH  17  19
ENDBRANCH   4  17
BRANCH   1  21
HETATM   21  C5  UNL     1      25.482  -0.666  53.405  1.00  0.00     0.027 C 
HETATM   22  C4  UNL     1      26.627  -0.718  52.767  1.00  0.00    -0.021 C 
BRANCH  22  23
HETATM   23  C3  UNL     1      27.880  -1.465  53.075  1.00  0.00     0.068 C 
BRANCH  23  24
HETATM   24  C2  UNL     1      28.819  -0.542  53.743  1.00  0.00     0.095 C 
HETATM   25  C1  UNL     1      30.084  -0.925  53.692  1.00  0.00     0.044 C 
BRANCH  24  26
HETATM   26  O3  UNL     1      28.498   0.625  54.382  1.00  0.00    -0.382 OA
HETATM   27  C18 UNL     1      28.908   1.876  53.889  1.00  0.00     0.202 C 
ENDBRANCH  24  26
ENDBRANCH  23  24
ENDBRANCH  22  23
ENDBRANCH   1  21
TORSDOF 10
ENDMDL
MODEL 2
REMARK VINA RESULT:      -6.8      2.359      6.060
REMARK  10 active torsions:
REMARK  status: ('A' for Active; 'I' for Inactive)
REMARK    1  A    between atoms: C2_2  and  C3_3 
REMARK    2  A    between atoms: C2_2  and  O3_23 
REMARK    3  A    between atoms: C3_3  and  C4_4 
REMARK    4  A    between atoms: C5_5  and  C6_6 
REMARK    5  A    between atoms: C8_8  and  C9_9 
REMARK    6  A    between atoms: C9_9  and  C10_10 
REMARK    7  A    between atoms: C11_11  and  C12_13 
REMARK    8  A    between atoms: C12_13  and  N1_14 
REMARK    9  A    between atoms: C15_17  and  C16_18 
REMARK   10  A    between atoms: C16_18  and  O2_20 
ROOT
HETATM    1  C6  UNL     1      22.835   0.090  53.198  1.00  0.00     0.057 A 
HETATM    2  C7  UNL     1      22.840   1.105  52.284  1.00  0.00     0.045 A 
HETATM    3  C8  UNL     1      23.950   1.884  51.928  1.00  0.00    -0.006 A 
HETATM    4  C15 UNL     1      25.047   1.476  52.630  1.00  0.00     0.066 A 
HETATM    5  C17 UNL     1      25.085   0.463  53.560  1.00  0.00     0.136 A 
HETATM    6  N2  UNL     1      23.973  -0.219  53.832  1.00  0.00    -0.260 NA
ENDROOT
BRANCH   3   7
HETATM    7  C9  UNL     1      23.836   2.897  50.914  1.00  0.00    -0.028 C 
HETATM    8  C13 UNL     1      23.160   2.429  49.838  1.00  0.00    -0.019 C 
HETATM    9  C14 UNL     1      22.738   2.974  48.528  1.00  0.00     0.037 C 
BRANCH   7  10
HETATM   10  C10 UNL     1      24.193   4.276  50.834  1.00  0.00     0.033 C 
HETATM   11  C11 UNL     1      24.977   5.223  50.282  1.00  0.00     0.040 C 
HETATM   12 CL1  UNL     1      26.286   5.208  49.080  1.00  0.00    -0.087 Cl
BRANCH  11  13
HETATM   13  C12 UNL     1      24.977   6.684  50.538  1.00  0.00     0.317 C 
BRANCH  13  14
HETATM   14  N1  UNL     1      24.475   7.056  51.833  1.00  0.00     0.083 N 
HETATM   15  H11 UNL     1      23.608   6.537  52.085  1.00  0.00     0.313 HD
HETATM   16  H12 UNL     1      24.250   8.074  51.808  1.00  0.00     0.313 HD
ENDBRANCH  13  14
ENDBRANCH  11  13
ENDBRANCH   7  10
ENDBRANCH   3   7
BRANCH   4  17
HETATM   17  C16 UNL     1      26.361   2.007  52.255  1.00  0.00     0.178 C 
HETATM   18  O1  UNL     1      27.127   2.213  51.307  1.00  0.00    -0.646 OA
BRANCH  17  19
HETATM   19  O2  UNL     1      27.344   2.561  53.046  1.00  0.00    -0.773 OA
HETATM   20  H17 UNL     1      27.297   2.795  54.036  1.00  0.00     0.167 HD
ENDBRANCH  17  19
ENDBRANCH   4  17
BRANCH   1  21
HETATM   21  C5  UNL     1      21.662  -0.691  53.536  1.00  0.00     0.027 C 
HETATM   22  C4  UNL     1      20.406  -0.461  53.232  1.00  0.00    -0.021 C 
BRANCH  22  23
HETATM   23  C3  UNL     1      19.170  -1.229  53.553  1.00  0.00     0.068 C 
BRANCH  23  24
HETATM   24  C2  UNL     1      18.077  -0.729  52.697  1.00  0.00     0.095 C 
HETATM   25  C1  UNL     1      18.484  -0.177  51.565  1.00  0.00     0.044 C 
BRANCH  24  26
HETATM   26  O3  UNL     1      16.737  -0.787  52.969  1.00  0.00    -0.382 OA
HETATM   27  C18 UNL     1      15.885  -1.685  52.303  1.00  0.00     0.202 C 
ENDBRANCH  24  26
ENDBRANCH  23  24
ENDBRANCH  22  23
ENDBRANCH   1  21
TORSDOF 10
ENDMDL
MODEL 3
REMARK VINA RESULT:      -6.8      3.203      6.584
REMARK  10 active torsions:
REMARK  status: ('A' for Active; 'I' for Inactive)
REMARK    1  A    between atoms: C2_2  and  C3_3 
REMARK    2  A    between atoms: C2_2  and  O3_23 
REMARK    3  A    between atoms: C3_3  and  C4_4 
REMARK    4  A    between atoms: C5_5  and  C6_6 
REMARK    5  A    between atoms: C8_8  and  C9_9 
REMARK    6  A    between atoms: C9_9  and  C10_10 
REMARK    7  A    between atoms: C11_11  and  C12_13 
REMARK    8  A    between atoms: C12_13  and  N1_14 
REMARK    9  A    between atoms: C15_17  and  C16_18 
REMARK   10  A    between atoms: C16_18  and  O2_20 
ROOT
HETATM    1  C6  UNL     1      22.048   0.802  52.000  1.00  0.00     0.057 A 
HETATM    2  C7  UNL     1      23.404   0.661  52.075  1.00  0.00     0.045 A 
HETATM    3  C8  UNL     1      24.112   0.091  53.143  1.00  0.00    -0.006 A 
HETATM    4  C15 UNL     1      23.240  -0.317  54.112  1.00  0.00     0.066 A 
HETATM    5  C17 UNL     1      21.871  -0.192  54.077  1.00  0.00     0.136 A 
HETATM    6  N2  UNL     1      21.291   0.369  53.016  1.00  0.00    -0.260 NA
ENDROOT
BRANCH   3   7
HETATM    7  C9  UNL     1      25.542  -0.042  53.083  1.00  0.00    -0.028 C 
HETATM    8  C13 UNL     1      25.895  -1.286  52.682  1.00  0.00    -0.019 C 
HETATM    9  C14 UNL     1      27.166  -2.004  52.436  1.00  0.00     0.037 C 
BRANCH   7  10
HETATM   10  C10 UNL     1      26.638   0.854  53.265  1.00  0.00     0.033 C 
HETATM   11  C11 UNL     1      27.857   1.075  53.795  1.00  0.00     0.040 C 
HETATM   12 CL1  UNL     1      28.978   0.110  54.780  1.00  0.00    -0.087 Cl
BRANCH  11  13
HETATM   13  C12 UNL     1      28.696   2.294  53.701  1.00  0.00     0.317 C 
BRANCH  13  14
HETATM   14  N1  UNL     1      29.802   2.321  54.618  1.00  0.00     0.083 N 
HETATM   15  H11 UNL     1      29.959   1.399  55.077  1.00  0.00     0.313 HD
HETATM   16  H12 UNL     1      29.586   3.021  55.360  1.00  0.00     0.313 HD
ENDBRANCH  13  14
ENDBRANCH  11  13
ENDBRANCH   7  10
ENDBRANCH   3   7
BRANCH   4  17
HETATM   17  C16 UNL     1      23.749  -1.137  55.216  1.00  0.00     0.178 C 
HETATM   18  O1  UNL     1      24.748  -1.399  55.895  1.00  0.00    -0.646 OA
BRANCH  17  19
HETATM   19  O2  UNL     1      23.094  -2.068  55.994  1.00  0.00    -0.773 OA
HETATM   20  H17 UNL     1      22.834  -3.021  55.748  1.00  0.00     0.167 HD
ENDBRANCH  17  19
ENDBRANCH   4  17
BRANCH   1  21
HETATM   21  C5  UNL     1      21.357   1.399  50.874  1.00  0.00     0.027 C 
HETATM   22  C4  UNL     1      21.565   1.217  49.592  1.00  0.00    -0.021 C 
BRANCH  22  23
HETATM   23  C3  UNL     1      20.886   1.803  48.402  1.00  0.00     0.068 C 
BRANCH  23  24
HETATM   24  C2  UNL     1      21.350   3.195  48.241  1.00  0.00     0.095 C 
HETATM   25  C1  UNL     1      20.413   4.107  48.447  1.00  0.00     0.044 C 
BRANCH  24  26
HETATM   26  O3  UNL     1      22.616   3.599  47.911  1.00  0.00    -0.382 OA
HETATM   27  C18 UNL     1      23.401   4.365  48.789  1.00  0.00     0.202 C 
ENDBRANCH  24  26
ENDBRANCH  23  24
ENDBRANCH  22  23
ENDBRANCH   1  21
TORSDOF 10
ENDMDL
MODEL 4
REMARK VINA RESULT:      -6.7      3.358      7.034
REMARK  10 active torsions:
REMARK  status: ('A' for Active; 'I' for Inactive)
REMARK    1  A    between atoms: C2_2  and  C3_3 
REMARK    2  A    between atoms: C2_2  and  O3_23 
REMARK    3  A    between atoms: C3_3  and  C4_4 
REMARK    4  A    between atoms: C5_5  and  C6_6 
REMARK    5  A    between atoms: C8_8  and  C9_9 
REMARK    6  A    between atoms: C9_9  and  C10_10 
REMARK    7  A    between atoms: C11_11  and  C12_13 
REMARK    8  A    between atoms: C12_13  and  N1_14 
REMARK    9  A    between atoms: C15_17  and  C16_18 
REMARK   10  A    between atoms: C16_18  and  O2_20 
ROOT
HETATM    1  C6  UNL     1      22.266   0.691  51.957  1.00  0.00     0.057 A 
HETATM    2  C7  UNL     1      23.621   0.766  52.108  1.00  0.00     0.045 A 
HETATM    3  C8  UNL     1      24.355   0.260  53.190  1.00  0.00    -0.006 A 
HETATM    4  C15 UNL     1      23.513  -0.333  54.086  1.00  0.00     0.066 A 
HETATM    5  C17 UNL     1      22.145  -0.427  53.974  1.00  0.00     0.136 A 
HETATM    6  N2  UNL     1      21.538   0.089  52.906  1.00  0.00    -0.260 NA
ENDROOT
BRANCH   3   7
HETATM    7  C9  UNL     1      25.789   0.362  53.211  1.00  0.00    -0.028 C 
HETATM    8  C13 UNL     1      26.179   1.638  53.445  1.00  0.00    -0.019 C 
HETATM    9  C14 UNL     1      27.471   2.348  53.578  1.00  0.00     0.037 C 
BRANCH   7  10
HETATM   10  C10 UNL     1      26.860  -0.577  53.127  1.00  0.00     0.033 C 
HETATM   11  C11 UNL     1      28.181  -0.817  53.241  1.00  0.00     0.040 C 
HETATM   12 CL1  UNL     1      29.594   0.178  53.654  1.00  0.00    -0.087 Cl
BRANCH  11  13
HETATM   13  C12 UNL     1      28.907  -2.094  53.039  1.00  0.00     0.317 C 
BRANCH  13  14
HETATM   14  N1  UNL     1      28.062  -3.257  53.030  1.00  0.00     0.083 N 
HETATM   15  H11 UNL     1      28.063  -3.756  53.944  1.00  0.00     0.313 HD
HETATM   16  H12 UNL     1      28.424  -3.911  52.302  1.00  0.00     0.313 HD
ENDBRANCH  13  14
ENDBRANCH  11  13
ENDBRANCH   7  10
ENDBRANCH   3   7
BRANCH   4  17
HETATM   17  C16 UNL     1      24.090  -1.118  55.182  1.00  0.00     0.178 C 
HETATM   18  O1  UNL     1      25.139  -1.399  55.772  1.00  0.00    -0.646 OA
BRANCH  17  19
HETATM   19  O2  UNL     1      23.472  -1.964  56.077  1.00  0.00    -0.773 OA
HETATM   20  H17 UNL     1      23.905  -2.636  56.709  1.00  0.00     0.167 HD
ENDBRANCH  17  19
ENDBRANCH   4  17
BRANCH   1  21
HETATM   21  C5  UNL     1      21.546   1.228  50.819  1.00  0.00     0.027 C 
HETATM   22  C4  UNL     1      21.905   1.252  49.557  1.00  0.00    -0.021 C 
BRANCH  22  23
HETATM   23  C3  UNL     1      21.205   1.789  48.356  1.00  0.00     0.068 C 
BRANCH  23  24
HETATM   24  C2  UNL     1      22.114   2.729  47.671  1.00  0.00     0.095 C 
HETATM   25  C1  UNL     1      22.882   3.433  48.487  1.00  0.00     0.044 C 
BRANCH  24  26
HETATM   26  O3  UNL     1      22.220   2.922  46.320  1.00  0.00    -0.382 OA
HETATM   27  C18 UNL     1      21.810   4.119  45.709  1.00  0.00     0.202 C 
ENDBRANCH  24  26
ENDBRANCH  23  24
ENDBRANCH  22  23
ENDBRANCH   1  21
TORSDOF 10
ENDMDL
MODEL 5
REMARK VINA RESULT:      -6.7      4.046      7.403
REMARK  10 active torsions:
REMARK  status: ('A' for Active; 'I' for Inactive)
REMARK    1  A    between atoms: C2_2  and  C3_3 
REMARK    2  A    between atoms: C2_2  and  O3_23 
REMARK    3  A    between atoms: C3_3  and  C4_4 
REMARK    4  A    between atoms: C5_5  and  C6_6 
REMARK    5  A    between atoms: C8_8  and  C9_9 
REMARK    6  A    between atoms: C9_9  and  C10_10 
REMARK    7  A    between atoms: C11_11  and  C12_13 
REMARK    8  A    between atoms: C12_13  and  N1_14 
REMARK    9  A    between atoms: C15_17  and  C16_18 
REMARK   10  A    between atoms: C16_18  and  O2_20 
ROOT
HETATM    1  C6  UNL     1      26.260   4.213  49.562  1.00  0.00     0.057 A 
HETATM    2  C7  UNL     1      26.866   3.352  50.432  1.00  0.00     0.045 A 
HETATM    3  C8  UNL     1      26.211   2.495  51.328  1.00  0.00    -0.006 A 
HETATM    4  C15 UNL     1      24.858   2.639  51.203  1.00  0.00     0.066 A 
HETATM    5  C17 UNL     1      24.210   3.494  50.343  1.00  0.00     0.136 A 
HETATM    6  N2  UNL     1      24.923   4.273  49.531  1.00  0.00    -0.260 NA
ENDROOT
BRANCH   3   7
HETATM    7  C9  UNL     1      26.963   1.600  52.165  1.00  0.00    -0.028 C 
HETATM    8  C13 UNL     1      27.759   2.290  53.016  1.00  0.00    -0.019 C 
HETATM    9  C14 UNL     1      28.729   1.946  54.080  1.00  0.00     0.037 C 
BRANCH   7  10
HETATM   10  C10 UNL     1      26.987   0.185  52.348  1.00  0.00     0.033 C 
HETATM   11  C11 UNL     1      27.689  -0.909  52.703  1.00  0.00     0.040 C 
HETATM   12 CL1  UNL     1      29.354  -1.193  53.255  1.00  0.00    -0.087 Cl
BRANCH  11  13
HETATM   13  C12 UNL     1      27.237  -2.321  52.743  1.00  0.00     0.317 C 
BRANCH  13  14
HETATM   14  N1  UNL     1      28.273  -3.262  53.071  1.00  0.00     0.083 N 
HETATM   15  H11 UNL     1      29.218  -2.825  53.077  1.00  0.00     0.313 HD
HETATM   16  H12 UNL     1      28.265  -4.012  52.345  1.00  0.00     0.313 HD
ENDBRANCH  13  14
ENDBRANCH  11  13
ENDBRANCH   7  10
ENDBRANCH   3   7
BRANCH   4  17
HETATM   17  C16 UNL     1      23.983   1.683  51.887  1.00  0.00     0.178 C 
HETATM   18  O1  UNL     1      23.208   0.734  51.722  1.00  0.00    -0.646 OA
BRANCH  17  19
HETATM   19  O2  UNL     1      23.717   1.541  53.232  1.00  0.00    -0.773 OA
HETATM   20  H17 UNL     1      23.382   0.714  53.723  1.00  0.00     0.167 HD
ENDBRANCH  17  19
ENDBRANCH   4  17
BRANCH   1  21
HETATM   21  C5  UNL     1      26.978   5.083  48.651  1.00  0.00     0.027 C 
HETATM   22  C4  UNL     1      27.019   6.394  48.628  1.00  0.00    -0.021 C 
BRANCH  22  23
HETATM   23  C3  UNL     1      27.737   7.330  47.717  1.00  0.00     0.068 C 
BRANCH  23  24
HETATM   24  C2  UNL     1      28.091   8.542  48.482  1.00  0.00     0.095 C 
HETATM   25  C1  UNL     1      27.219   9.530  48.366  1.00  0.00     0.044 C 
BRANCH  24  26
HETATM   26  O3  UNL     1      29.200   8.716  49.266  1.00  0.00    -0.382 OA
HETATM   27  C18 UNL     1      30.450   8.184  48.908  1.00  0.00     0.202 C 
ENDBRANCH  24  26
ENDBRANCH  23  24
ENDBRANCH  22  23
ENDBRANCH   1  21
TORSDOF 10
ENDMDL
MODEL 6
REMARK VINA RESULT:      -6.7      3.544      6.841
REMARK  10 active torsions:
REMARK  status: ('A' for Active; 'I' for Inactive)
REMARK    1  A    between atoms: C2_2  and  C3_3 
REMARK    2  A    between atoms: C2_2  and  O3_23 
REMARK    3  A    between atoms: C3_3  and  C4_4 
REMARK    4  A    between atoms: C5_5  and  C6_6 
REMARK    5  A    between atoms: C8_8  and  C9_9 
REMARK    6  A    between atoms: C9_9  and  C10_10 
REMARK    7  A    between atoms: C11_11  and  C12_13 
REMARK    8  A    between atoms: C12_13  and  N1_14 
REMARK    9  A    between atoms: C15_17  and  C16_18 
REMARK   10  A    between atoms: C16_18  and  O2_20 
ROOT
HETATM    1  C6  UNL     1      26.018   3.172  50.779  1.00  0.00     0.057 A 
HETATM    2  C7  UNL     1      24.876   2.488  51.082  1.00  0.00     0.045 A 
HETATM    3  C8  UNL     1      24.791   1.356  51.905  1.00  0.00    -0.006 A 
HETATM    4  C15 UNL     1      26.031   1.031  52.375  1.00  0.00     0.066 A 
HETATM    5  C17 UNL     1      27.204   1.689  52.093  1.00  0.00     0.136 A 
HETATM    6  N2  UNL     1      27.181   2.756  51.294  1.00  0.00    -0.260 NA
ENDROOT
BRANCH   3   7
HETATM    7  C9  UNL     1      23.517   0.751  52.185  1.00  0.00    -0.028 C 
HETATM    8  C13 UNL     1      22.614   1.059  51.224  1.00  0.00    -0.019 C 
HETATM    9  C14 UNL     1      21.192   0.747  50.961  1.00  0.00     0.037 C 
BRANCH   7  10
HETATM   10  C10 UNL     1      23.035  -0.151  53.181  1.00  0.00     0.033 C 
HETATM   11  C11 UNL     1      22.101  -0.434  54.110  1.00  0.00     0.040 C 
HETATM   12 CL1  UNL     1      20.643   0.393  54.699  1.00  0.00    -0.087 Cl
BRANCH  11  13
HETATM   13  C12 UNL     1      22.007  -1.624  54.989  1.00  0.00     0.317 C 
BRANCH  13  14
HETATM   14  N1  UNL     1      23.180  -1.864  55.785  1.00  0.00     0.083 N 
HETATM   15  H11 UNL     1      23.217  -1.256  56.630  1.00  0.00     0.313 HD
HETATM   16  H12 UNL     1      24.015  -1.653  55.196  1.00  0.00     0.313 HD
ENDBRANCH  13  14
ENDBRANCH  11  13
ENDBRANCH   7  10
ENDBRANCH   3   7
BRANCH   4  17
HETATM   17  C16 UNL     1      26.140   0.014  53.426  1.00  0.00     0.178 C 
HETATM   18  O1  UNL     1      26.296  -1.192  53.644  1.00  0.00    -0.646 OA
BRANCH  17  19
HETATM   19  O2  UNL     1      26.091   0.158  54.796  1.00  0.00    -0.773 OA
HETATM   20  H17 UNL     1      25.817   0.979  55.333  1.00  0.00     0.167 HD
ENDBRANCH  17  19
ENDBRANCH   4  17
BRANCH   1  21
HETATM   21  C5  UNL     1      26.060   4.340  49.922  1.00  0.00     0.027 C 
HETATM   22  C4  UNL     1      27.040   4.767  49.162  1.00  0.00    -0.021 C 
BRANCH  22  23
HETATM   23  C3  UNL     1      27.133   5.955  48.267  1.00  0.00     0.068 C 
BRANCH  23  24
HETATM   24  C2  UNL     1      26.119   6.939  48.696  1.00  0.00     0.095 C 
HETATM   25  C1  UNL     1      25.072   7.026  47.890  1.00  0.00     0.044 C 
BRANCH  24  26
HETATM   26  O3  UNL     1      26.173   7.733  49.809  1.00  0.00    -0.382 OA
HETATM   27  C18 UNL     1      27.170   8.710  49.973  1.00  0.00     0.202 C 
ENDBRANCH  24  26
ENDBRANCH  23  24
ENDBRANCH  22  23
ENDBRANCH   1  21
TORSDOF 10
ENDMDL
MODEL 7
REMARK VINA RESULT:      -6.7      4.944      7.384
REMARK  10 active torsions:
REMARK  status: ('A' for Active; 'I' for Inactive)
REMARK    1  A    between atoms: C2_2  and  C3_3 
REMARK    2  A    between atoms: C2_2  and  O3_23 
REMARK    3  A    between atoms: C3_3  and  C4_4 
REMARK    4  A    between atoms: C5_5  and  C6_6 
REMARK    5  A    between atoms: C8_8  and  C9_9 
REMARK    6  A    between atoms: C9_9  and  C10_10 
REMARK    7  A    between atoms: C11_11  and  C12_13 
REMARK    8  A    between atoms: C12_13  and  N1_14 
REMARK    9  A    between atoms: C15_17  and  C16_18 
REMARK   10  A    between atoms: C16_18  and  O2_20 
ROOT
HETATM    1  C6  UNL     1      25.308   5.234  49.680  1.00  0.00     0.057 A 
HETATM    2  C7  UNL     1      26.394   5.588  48.932  1.00  0.00     0.045 A 
HETATM    3  C8  UNL     1      26.998   6.853  48.911  1.00  0.00    -0.006 A 
HETATM    4  C15 UNL     1      26.343   7.695  49.763  1.00  0.00     0.066 A 
HETATM    5  C17 UNL     1      25.246   7.380  50.530  1.00  0.00     0.136 A 
HETATM    6  N2  UNL     1      24.741   6.148  50.478  1.00  0.00    -0.260 NA
ENDROOT
BRANCH   3   7
HETATM    7  C9  UNL     1      28.170   7.089  48.112  1.00  0.00    -0.028 C 
HETATM    8  C13 UNL     1      27.857   7.779  46.989  1.00  0.00    -0.019 C 
HETATM    9  C14 UNL     1      28.599   8.303  45.821  1.00  0.00     0.037 C 
BRANCH   7  10
HETATM   10  C10 UNL     1      29.564   6.838  48.281  1.00  0.00     0.033 C 
HETATM   11  C11 UNL     1      30.757   7.272  48.733  1.00  0.00     0.040 C 
HETATM   12 CL1  UNL     1      31.315   8.752  49.543  1.00  0.00    -0.087 Cl
BRANCH  11  13
HETATM   13  C12 UNL     1      32.068   6.582  48.685  1.00  0.00     0.317 C 
BRANCH  13  14
HETATM   14  N1  UNL     1      32.262   5.611  49.727  1.00  0.00     0.083 N 
HETATM   15  H11 UNL     1      31.362   5.228  50.085  1.00  0.00     0.313 HD
HETATM   16  H12 UNL     1      32.753   6.083  50.517  1.00  0.00     0.313 HD
ENDBRANCH  13  14
ENDBRANCH  11  13
ENDBRANCH   7  10
ENDBRANCH   3   7
BRANCH   4  17
HETATM   17  C16 UNL     1      26.940   9.001  50.060  1.00  0.00     0.178 C 
HETATM   18  O1  UNL     1      27.097  10.152  49.640  1.00  0.00    -0.646 OA
BRANCH  17  19
HETATM   19  O2  UNL     1      27.666   9.405  51.160  1.00  0.00    -0.773 OA
HETATM   20  H17 UNL     1      27.736   8.951  52.069  1.00  0.00     0.167 HD
ENDBRANCH  17  19
ENDBRANCH   4  17
BRANCH   1  21
HETATM   21  C5  UNL     1      24.714   3.911  49.672  1.00  0.00     0.027 C 
HETATM   22  C4  UNL     1      23.817   3.408  50.487  1.00  0.00    -0.021 C 
BRANCH  22  23
HETATM   23  C3  UNL     1      23.179   2.062  50.520  1.00  0.00     0.068 C 
BRANCH  23  24
HETATM   24  C2  UNL     1      23.595   1.381  51.762  1.00  0.00     0.095 C 
HETATM   25  C1  UNL     1      22.656   0.624  52.306  1.00  0.00     0.044 C 
BRANCH  24  26
HETATM   26  O3  UNL     1      24.820   1.467  52.367  1.00  0.00    -0.382 OA
HETATM   27  C18 UNL     1      25.715   0.384  52.382  1.00  0.00     0.202 C 
ENDBRANCH  24  26
ENDBRANCH  23  24
ENDBRANCH  22  23
ENDBRANCH   1  21
TORSDOF 10
ENDMDL
MODEL 8
REMARK VINA RESULT:      -6.7      3.858      6.058
REMARK  10 active torsions:
REMARK  status: ('A' for Active; 'I' for Inactive)
REMARK    1  A    between atoms: C2_2  and  C3_3 
REMARK    2  A    between atoms: C2_2  and  O3_23 
REMARK    3  A    between atoms: C3_3  and  C4_4 
REMARK    4  A    between atoms: C5_5  and  C6_6 
REMARK    5  A    between atoms: C8_8  and  C9_9 
REMARK    6  A    between atoms: C9_9  and  C10_10 
REMARK    7  A    between atoms: C11_11  and  C12_13 
REMARK    8  A    between atoms: C12_13  and  N1_14 
REMARK    9  A    between atoms: C15_17  and  C16_18 
REMARK   10  A    between atoms: C16_18  and  O2_20 
ROOT
HETATM    1  C6  UNL     1      24.901   1.383  52.271  1.00  0.00     0.057 A 
HETATM    2  C7  UNL     1      23.546   1.540  52.223  1.00  0.00     0.045 A 
HETATM    3  C8  UNL     1      22.600   0.698  52.826  1.00  0.00    -0.006 A 
HETATM    4  C15 UNL     1      23.235  -0.315  53.485  1.00  0.00     0.066 A 
HETATM    5  C17 UNL     1      24.595  -0.511  53.555  1.00  0.00     0.136 A 
HETATM    6  N2  UNL     1      25.413   0.345  52.944  1.00  0.00    -0.260 NA
ENDROOT
BRANCH   3   7
HETATM    7  C9  UNL     1      21.197   0.997  52.741  1.00  0.00    -0.028 C 
HETATM    8  C13 UNL     1      20.999   2.277  52.346  1.00  0.00    -0.019 C 
HETATM    9  C14 UNL     1      19.825   3.140  52.084  1.00  0.00     0.037 C 
BRANCH   7  10
HETATM   10  C10 UNL     1      20.000   0.234  52.894  1.00  0.00     0.033 C 
HETATM   11  C11 UNL     1      18.872  -0.247  52.335  1.00  0.00     0.040 C 
HETATM   12 CL1  UNL     1      18.138  -0.131  50.722  1.00  0.00    -0.087 Cl
BRANCH  11  13
HETATM   13  C12 UNL     1      17.822  -1.089  52.957  1.00  0.00     0.317 C 
BRANCH  13  14
HETATM   14  N1  UNL     1      18.326  -2.093  53.854  1.00  0.00     0.083 N 
HETATM   15  H11 UNL     1      19.196  -1.790  54.340  1.00  0.00     0.313 HD
HETATM   16  H12 UNL     1      18.547  -2.943  53.291  1.00  0.00     0.313 HD
ENDBRANCH  13  14
ENDBRANCH  11  13
ENDBRANCH   7  10
ENDBRANCH   3   7
BRANCH   4  17
HETATM   17  C16 UNL     1      22.449  -1.184  54.366  1.00  0.00     0.178 C 
HETATM   18  O1  UNL     1      21.472  -1.940  54.420  1.00  0.00    -0.646 OA
BRANCH  17  19
HETATM   19  O2  UNL     1      22.623  -1.469  55.703  1.00  0.00    -0.773 OA
HETATM   20  H17 UNL     1      23.361  -2.021  56.138  1.00  0.00     0.167 HD
ENDBRANCH  17  19
ENDBRANCH   4  17
BRANCH   1  21
HETATM   21  C5  UNL     1      25.844   2.280  51.631  1.00  0.00     0.027 C 
HETATM   22  C4  UNL     1      25.848   2.724  50.396  1.00  0.00    -0.021 C 
BRANCH  22  23
HETATM   23  C3  UNL     1      26.789   3.642  49.695  1.00  0.00     0.068 C 
BRANCH  23  24
HETATM   24  C2  UNL     1      26.064   4.885  49.363  1.00  0.00     0.095 C 
HETATM   25  C1  UNL     1      26.756   5.735  48.623  1.00  0.00     0.044 C 
BRANCH  24  26
HETATM   26  O3  UNL     1      24.791   5.212  49.744  1.00  0.00    -0.382 OA
HETATM   27  C18 UNL     1      24.541   6.134  50.775  1.00  0.00     0.202 C 
ENDBRANCH  24  26
ENDBRANCH  23  24
ENDBRANCH  22  23
ENDBRANCH   1  21
TORSDOF 10
ENDMDL
MODEL 9
REMARK VINA RESULT:      -6.7      2.636      4.318
REMARK  10 active torsions:
REMARK  status: ('A' for Active; 'I' for Inactive)
REMARK    1  A    between atoms: C2_2  and  C3_3 
REMARK    2  A    between atoms: C2_2  and  O3_23 
REMARK    3  A    between atoms: C3_3  and  C4_4 
REMARK    4  A    between atoms: C5_5  and  C6_6 
REMARK    5  A    between atoms: C8_8  and  C9_9 
REMARK    6  A    between atoms: C9_9  and  C10_10 
REMARK    7  A    between atoms: C11_11  and  C12_13 
REMARK    8  A    between atoms: C12_13  and  N1_14 
REMARK    9  A    between atoms: C15_17  and  C16_18 
REMARK   10  A    between atoms: C16_18  and  O2_20 
ROOT
HETATM    1  C6  UNL     1      25.063   1.124  52.373  1.00  0.00     0.057 A 
HETATM    2  C7  UNL     1      23.874   0.472  52.531  1.00  0.00     0.045 A 
HETATM    3  C8  UNL     1      22.607   1.072  52.554  1.00  0.00    -0.006 A 
HETATM    4  C15 UNL     1      22.729   2.422  52.389  1.00  0.00     0.066 A 
HETATM    5  C17 UNL     1      23.905   3.116  52.230  1.00  0.00     0.136 A 
HETATM    6  N2  UNL     1      25.062   2.454  52.225  1.00  0.00    -0.260 NA
ENDROOT
BRANCH   3   7
HETATM    7  C9  UNL     1      21.421   0.269  52.682  1.00  0.00    -0.028 C 
HETATM    8  C13 UNL     1      21.523  -0.580  53.732  1.00  0.00    -0.019 C 
HETATM    9  C14 UNL     1      20.666  -1.615  54.351  1.00  0.00     0.037 C 
BRANCH   7  10
HETATM   10  C10 UNL     1      20.159   0.234  52.015  1.00  0.00     0.033 C 
HETATM   11  C11 UNL     1      19.440   0.529  50.915  1.00  0.00     0.040 C 
HETATM   12 CL1  UNL     1      19.808   1.310  49.362  1.00  0.00    -0.087 Cl
BRANCH  11  13
HETATM   13  C12 UNL     1      18.005   0.265  50.654  1.00  0.00     0.317 C 
BRANCH  13  14
HETATM   14  N1  UNL     1      17.523   0.799  49.409  1.00  0.00     0.083 N 
HETATM   15  H11 UNL     1      18.298   1.068  48.767  1.00  0.00     0.313 HD
HETATM   16  H12 UNL     1      16.965   1.654  49.622  1.00  0.00     0.313 HD
ENDBRANCH  13  14
ENDBRANCH  11  13
ENDBRANCH   7  10
ENDBRANCH   3   7
BRANCH   4  17
HETATM   17  C16 UNL     1      21.518   3.216  52.163  1.00  0.00     0.178 C 
HETATM   18  O1  UNL     1      20.475   3.629  52.684  1.00  0.00    -0.646 OA
BRANCH  17  19
HETATM   19  O2  UNL     1      21.105   3.889  51.033  1.00  0.00    -0.773 OA
HETATM   20  H17 UNL     1      21.010   4.894  50.899  1.00  0.00     0.167 HD
ENDBRANCH  17  19
ENDBRANCH   4  17
BRANCH   1  21
HETATM   21  C5  UNL     1      26.353   0.462  52.354  1.00  0.00     0.027 C 
HETATM   22  C4  UNL     1      26.757  -0.572  53.055  1.00  0.00    -0.021 C 
BRANCH  22  23
HETATM   23  C3  UNL     1      28.065  -1.285  53.072  1.00  0.00     0.068 C 
BRANCH  23  24
HETATM   24  C2  UNL     1      29.029  -0.469  53.836  1.00  0.00     0.095 C 
HETATM   25  C1  UNL     1      30.297  -0.775  53.611  1.00  0.00     0.044 C 
BRANCH  24  26
HETATM   26  O3  UNL     1      28.729   0.534  54.718  1.00  0.00    -0.382 OA
HETATM   27  C18 UNL     1      29.201   1.845  54.537  1.00  0.00     0.202 C 
ENDBRANCH  24  26
ENDBRANCH  23  24
ENDBRANCH  22  23
ENDBRANCH   1  21
TORSDOF 10
ENDMDL
