MODEL 1
REMARK VINA RESULT:      -9.0      0.000      0.000
REMARK  3 active torsions:
REMARK  status: ('A' for Active; 'I' for Inactive)
REMARK    1  A    between atoms: C5_5  and  C6_6 
REMARK    2  A    between atoms: C8_8  and  C9_9 
REMARK    3  A    between atoms: N2_17  and  C15_18 
ROOT
HETATM    1  C6  UNL     1      25.169   1.674  52.939  1.00  0.00     0.151 C 
HETATM    2  C7  UNL     1      24.099   0.606  53.021  1.00  0.00     0.089 C 
HETATM    3  C8  UNL     1      23.134   0.966  51.942  1.00  0.00     0.046 C 
HETATM    4  N1  UNL     1      23.646   1.845  51.187  1.00  0.00    -0.178 NA
HETATM    5  N2  UNL     1      24.954   2.182  51.623  1.00  0.00    -0.237 N 
ENDROOT
BRANCH   1   6
HETATM    6  C5  UNL     1      26.477   1.045  53.180  1.00  0.00    -0.033 A 
HETATM    7  C4  UNL     1      26.638  -0.310  52.868  1.00  0.00     0.010 A 
HETATM    8  C3  UNL     1      27.817  -1.023  53.042  1.00  0.00     0.007 A 
HETATM    9  C2  UNL     1      28.919  -0.376  53.556  1.00  0.00    -0.062 A 
HETATM   10  C1  UNL     1      30.192  -1.091  53.759  1.00  0.00     0.048 C 
HETATM   11  C19 UNL     1      28.800   0.958  53.875  1.00  0.00     0.007 A 
HETATM   12  C18 UNL     1      27.618   1.648  53.694  1.00  0.00     0.010 A 
ENDBRANCH   1   6
BRANCH   5  13
HETATM   13  C15 UNL     1      25.774   2.956  50.677  1.00  0.00     0.189 A 
HETATM   14  N3  UNL     1      26.725   3.154  50.050  1.00  0.00    -0.235 NA
HETATM   15  C16 UNL     1      26.958   4.176  49.253  1.00  0.00     0.127 A 
HETATM   16  C17 UNL     1      25.887   5.165  49.159  1.00  0.00     0.072 A 
HETATM   17  S1  UNL     1      24.643   4.430  50.295  1.00  0.00    -0.061 SA
ENDBRANCH   5  13
BRANCH   3  18
HETATM   18  C9  UNL     1      21.822   0.290  51.919  1.00  0.00     0.082 C 
HETATM   19  C10 UNL     1      21.243   0.222  53.294  1.00  0.00    -0.014 C 
HETATM   20  C11 UNL     1      20.055  -0.167  53.731  1.00  0.00    -0.004 C 
HETATM   21  C12 UNL     1      18.925  -0.666  52.938  1.00  0.00     0.201 C 
HETATM   22  O1  UNL     1      18.857  -0.200  51.624  1.00  0.00    -0.360 OA
HETATM   23  C13 UNL     1      19.558   0.735  50.882  1.00  0.00     0.132 C 
HETATM   24  C14 UNL     1      20.856   0.942  51.018  1.00  0.00     0.012 C 
ENDBRANCH   3  18
TORSDOF 3
ENDMDL
MODEL 2
REMARK VINA RESULT:      -8.9      2.003      4.692
REMARK  3 active torsions:
REMARK  status: ('A' for Active; 'I' for Inactive)
REMARK    1  A    between atoms: C5_5  and  C6_6 
REMARK    2  A    between atoms: C8_8  and  C9_9 
REMARK    3  A    between atoms: N2_17  and  C15_18 
ROOT
HETATM    1  C6  UNL     1      25.224   1.845  51.039  1.00  0.00     0.151 C 
HETATM    2  C7  UNL     1      23.746   1.811  51.366  1.00  0.00     0.089 C 
HETATM    3  C8  UNL     1      23.673   1.094  52.672  1.00  0.00     0.046 C 
HETATM    4  N1  UNL     1      24.833   0.996  53.171  1.00  0.00    -0.178 NA
HETATM    5  N2  UNL     1      25.798   1.599  52.322  1.00  0.00    -0.237 N 
ENDROOT
BRANCH   1   6
HETATM    6  C5  UNL     1      25.539   3.148  50.433  1.00  0.00    -0.033 A 
HETATM    7  C4  UNL     1      26.652   3.247  49.591  1.00  0.00     0.010 A 
HETATM    8  C3  UNL     1      27.056   4.411  48.953  1.00  0.00     0.007 A 
HETATM    9  C2  UNL     1      26.330   5.566  49.148  1.00  0.00    -0.062 A 
HETATM   10  C1  UNL     1      26.722   6.827  48.493  1.00  0.00     0.048 C 
HETATM   11  C19 UNL     1      25.227   5.509  49.971  1.00  0.00     0.007 A 
HETATM   12  C18 UNL     1      24.843   4.340  50.594  1.00  0.00     0.010 A 
ENDBRANCH   1   6
BRANCH   5  13
HETATM   13  C15 UNL     1      27.128   1.825  52.910  1.00  0.00     0.189 A 
HETATM   14  N3  UNL     1      28.114   2.413  53.049  1.00  0.00    -0.235 NA
HETATM   15  C16 UNL     1      29.127   2.101  53.830  1.00  0.00     0.127 A 
HETATM   16  C17 UNL     1      28.977   0.871  54.604  1.00  0.00     0.072 A 
HETATM   17  S1  UNL     1      27.309   0.325  54.057  1.00  0.00    -0.061 SA
ENDBRANCH   5  13
BRANCH   3  18
HETATM   18  C9  UNL     1      22.352   0.641  53.152  1.00  0.00     0.082 C 
HETATM   19  C10 UNL     1      21.358   0.650  52.036  1.00  0.00    -0.014 C 
HETATM   20  C11 UNL     1      20.111   0.210  51.965  1.00  0.00    -0.004 C 
HETATM   21  C12 UNL     1      19.325  -0.439  53.021  1.00  0.00     0.201 C 
HETATM   22  O1  UNL     1      20.062  -1.146  53.973  1.00  0.00    -0.360 OA
HETATM   23  C13 UNL     1      21.395  -1.490  54.119  1.00  0.00     0.132 C 
HETATM   24  C14 UNL     1      22.389  -0.700  53.757  1.00  0.00     0.012 C 
ENDBRANCH   3  18
TORSDOF 3
ENDMDL
MODEL 3
REMARK VINA RESULT:      -8.6      2.783      6.802
REMARK  3 active torsions:
REMARK  status: ('A' for Active; 'I' for Inactive)
REMARK    1  A    between atoms: C5_5  and  C6_6 
REMARK    2  A    between atoms: C8_8  and  C9_9 
REMARK    3  A    between atoms: N2_17  and  C15_18 
ROOT
HETATM    1  C6  UNL     1      23.213   0.990  51.829  1.00  0.00     0.151 C 
HETATM    2  C7  UNL     1      24.243   0.364  52.746  1.00  0.00     0.089 C 
HETATM    3  C8  UNL     1      25.219   1.461  53.008  1.00  0.00     0.046 C 
HETATM    4  N1  UNL     1      24.739   2.564  52.611  1.00  0.00    -0.178 NA
HETATM    5  N2  UNL     1      23.445   2.379  52.058  1.00  0.00    -0.237 N 
ENDROOT
BRANCH   1   6
HETATM    6  C5  UNL     1      21.883   0.489  52.209  1.00  0.00    -0.033 A 
HETATM    7  C4  UNL     1      20.843   0.571  51.277  1.00  0.00     0.010 A 
HETATM    8  C3  UNL     1      19.545   0.132  51.504  1.00  0.00     0.007 A 
HETATM    9  C2  UNL     1      19.234  -0.425  52.724  1.00  0.00    -0.062 A 
HETATM   10  C1  UNL     1      17.869  -0.904  53.013  1.00  0.00     0.048 C 
HETATM   11  C19 UNL     1      20.231  -0.524  53.668  1.00  0.00     0.007 A 
HETATM   12  C18 UNL     1      21.514  -0.082  53.420  1.00  0.00     0.010 A 
ENDBRANCH   1   6
BRANCH   5  13
HETATM   13  C15 UNL     1      22.653   3.600  51.837  1.00  0.00     0.189 A 
HETATM   14  N3  UNL     1      21.686   4.232  51.887  1.00  0.00    -0.235 NA
HETATM   15  C16 UNL     1      21.518   5.469  51.468  1.00  0.00     0.127 A 
HETATM   16  C17 UNL     1      22.693   6.105  50.878  1.00  0.00     0.072 A 
HETATM   17  S1  UNL     1      23.925   4.748  51.024  1.00  0.00    -0.061 SA
ENDBRANCH   5  13
BRANCH   3  18
HETATM   18  C9  UNL     1      26.505   1.119  53.647  1.00  0.00     0.082 C 
HETATM   19  C10 UNL     1      27.050  -0.152  53.081  1.00  0.00    -0.014 C 
HETATM   20  C11 UNL     1      28.212  -0.764  53.250  1.00  0.00    -0.004 C 
HETATM   21  C12 UNL     1      29.340  -0.336  54.085  1.00  0.00     0.201 C 
HETATM   22  O1  UNL     1      29.455   1.040  54.285  1.00  0.00    -0.360 OA
HETATM   23  C13 UNL     1      28.807   2.158  53.787  1.00  0.00     0.132 C 
HETATM   24  C14 UNL     1      27.515   2.182  53.511  1.00  0.00     0.012 C 
ENDBRANCH   3  18
TORSDOF 3
ENDMDL
MODEL 4
REMARK VINA RESULT:      -8.4      2.958      6.581
REMARK  3 active torsions:
REMARK  status: ('A' for Active; 'I' for Inactive)
REMARK    1  A    between atoms: C5_5  and  C6_6 
REMARK    2  A    between atoms: C8_8  and  C9_9 
REMARK    3  A    between atoms: N2_17  and  C15_18 
ROOT
HETATM    1  C6  UNL     1      25.279   2.130  52.831  1.00  0.00     0.151 C 
HETATM    2  C7  UNL     1      24.797   2.973  51.669  1.00  0.00     0.089 C 
HETATM    3  C8  UNL     1      26.005   3.144  50.812  1.00  0.00     0.046 C 
HETATM    4  N1  UNL     1      26.914   2.345  51.189  1.00  0.00    -0.178 NA
HETATM    5  N2  UNL     1      26.473   1.566  52.290  1.00  0.00    -0.237 N 
ENDROOT
BRANCH   1   6
HETATM    6  C5  UNL     1      24.219   1.173  53.185  1.00  0.00    -0.033 A 
HETATM    7  C4  UNL     1      22.910   1.433  52.764  1.00  0.00     0.010 A 
HETATM    8  C3  UNL     1      21.821   0.613  53.025  1.00  0.00     0.007 A 
HETATM    9  C2  UNL     1      22.014  -0.543  53.748  1.00  0.00    -0.062 A 
HETATM   10  C1  UNL     1      20.888  -1.445  54.051  1.00  0.00     0.048 C 
HETATM   11  C19 UNL     1      23.288  -0.834  54.181  1.00  0.00     0.007 A 
HETATM   12  C18 UNL     1      24.357  -0.005  53.909  1.00  0.00     0.010 A 
ENDBRANCH   1   6
BRANCH   5  13
HETATM   13  C15 UNL     1      27.303   0.401  52.634  1.00  0.00     0.189 A 
HETATM   14  N3  UNL     1      27.561  -0.727  52.629  1.00  0.00    -0.235 NA
HETATM   15  C16 UNL     1      28.597  -1.311  53.194  1.00  0.00     0.127 A 
HETATM   16  C17 UNL     1      29.517  -0.426  53.903  1.00  0.00     0.072 A 
HETATM   17  S1  UNL     1      28.704   1.200  53.632  1.00  0.00    -0.061 SA
ENDBRANCH   5  13
BRANCH   3  18
HETATM   18  C9  UNL     1      25.962   4.147  49.729  1.00  0.00     0.082 C 
HETATM   19  C10 UNL     1      25.226   5.368  50.175  1.00  0.00    -0.014 C 
HETATM   20  C11 UNL     1      25.053   6.549  49.602  1.00  0.00    -0.004 C 
HETATM   21  C12 UNL     1      25.563   7.002  48.303  1.00  0.00     0.201 C 
HETATM   22  O1  UNL     1      26.747   6.397  47.876  1.00  0.00    -0.360 OA
HETATM   23  C13 UNL     1      27.653   5.517  48.442  1.00  0.00     0.132 C 
HETATM   24  C14 UNL     1      27.299   4.535  49.251  1.00  0.00     0.012 C 
ENDBRANCH   3  18
TORSDOF 3
ENDMDL
MODEL 5
REMARK VINA RESULT:      -8.3      3.304      7.214
REMARK  3 active torsions:
REMARK  status: ('A' for Active; 'I' for Inactive)
REMARK    1  A    between atoms: C5_5  and  C6_6 
REMARK    2  A    between atoms: C8_8  and  C9_9 
REMARK    3  A    between atoms: N2_17  and  C15_18 
ROOT
HETATM    1  C6  UNL     1      24.322   2.366  52.692  1.00  0.00     0.151 C 
HETATM    2  C7  UNL     1      25.676   1.879  52.218  1.00  0.00     0.089 C 
HETATM    3  C8  UNL     1      25.763   0.480  52.726  1.00  0.00     0.046 C 
HETATM    4  N1  UNL     1      24.624   0.100  53.132  1.00  0.00    -0.178 NA
HETATM    5  N2  UNL     1      23.662   1.131  52.964  1.00  0.00    -0.237 N 
ENDROOT
BRANCH   1   6
HETATM    6  C5  UNL     1      23.726   3.193  51.631  1.00  0.00    -0.033 A 
HETATM    7  C4  UNL     1      23.997   2.872  50.296  1.00  0.00     0.010 A 
HETATM    8  C3  UNL     1      23.497   3.565  49.203  1.00  0.00     0.007 A 
HETATM    9  C2  UNL     1      22.675   4.649  49.418  1.00  0.00    -0.062 A 
HETATM   10  C1  UNL     1      22.120   5.417  48.288  1.00  0.00     0.048 C 
HETATM   11  C19 UNL     1      22.384   4.997  50.718  1.00  0.00     0.007 A 
HETATM   12  C18 UNL     1      22.892   4.293  51.791  1.00  0.00     0.010 A 
ENDBRANCH   1   6
BRANCH   5  13
HETATM   13  C15 UNL     1      22.253   0.732  53.108  1.00  0.00     0.189 A 
HETATM   14  N3  UNL     1      21.113   0.890  52.992  1.00  0.00    -0.235 NA
HETATM   15  C16 UNL     1      20.151   0.070  53.363  1.00  0.00     0.127 A 
HETATM   16  C17 UNL     1      20.585  -1.175  53.991  1.00  0.00     0.072 A 
HETATM   17  S1  UNL     1      22.410  -0.962  53.947  1.00  0.00    -0.061 SA
ENDBRANCH   5  13
BRANCH   3  18
HETATM   18  C9  UNL     1      27.071  -0.204  52.680  1.00  0.00     0.082 C 
HETATM   19  C10 UNL     1      27.938   0.249  53.809  1.00  0.00    -0.014 C 
HETATM   20  C11 UNL     1      29.117  -0.176  54.238  1.00  0.00    -0.004 C 
HETATM   21  C12 UNL     1      29.935  -1.264  53.690  1.00  0.00     0.201 C 
HETATM   22  O1  UNL     1      29.230  -2.282  53.045  1.00  0.00    -0.360 OA
HETATM   23  C13 UNL     1      27.891  -2.588  52.877  1.00  0.00     0.132 C 
HETATM   24  C14 UNL     1      26.953  -1.672  52.718  1.00  0.00     0.012 C 
ENDBRANCH   3  18
TORSDOF 3
ENDMDL
MODEL 6
REMARK VINA RESULT:      -8.1      2.885      5.165
REMARK  3 active torsions:
REMARK  status: ('A' for Active; 'I' for Inactive)
REMARK    1  A    between atoms: C5_5  and  C6_6 
REMARK    2  A    between atoms: C8_8  and  C9_9 
REMARK    3  A    between atoms: N2_17  and  C15_18 
ROOT
HETATM    1  C6  UNL     1      24.054   4.178  50.744  1.00  0.00     0.151 C 
HETATM    2  C7  UNL     1      24.510   3.282  51.876  1.00  0.00     0.089 C 
HETATM    3  C8  UNL     1      23.491   2.193  51.917  1.00  0.00     0.046 C 
HETATM    4  N1  UNL     1      22.774   2.238  50.873  1.00  0.00    -0.178 NA
HETATM    5  N2  UNL     1      23.184   3.302  50.028  1.00  0.00    -0.237 N 
ENDROOT
BRANCH   1   6
HETATM    6  C5  UNL     1      25.241   4.646  50.011  1.00  0.00    -0.033 A 
HETATM    7  C4  UNL     1      25.354   6.008  49.715  1.00  0.00     0.010 A 
HETATM    8  C3  UNL     1      26.421   6.580  49.035  1.00  0.00     0.007 A 
HETATM    9  C2  UNL     1      27.453   5.772  48.611  1.00  0.00    -0.062 A 
HETATM   10  C1  UNL     1      28.606   6.334  47.884  1.00  0.00     0.048 C 
HETATM   11  C19 UNL     1      27.377   4.425  48.883  1.00  0.00     0.007 A 
HETATM   12  C18 UNL     1      26.307   3.878  49.561  1.00  0.00     0.010 A 
ENDBRANCH   1   6
BRANCH   5  13
HETATM   13  C15 UNL     1      22.646   3.286  48.658  1.00  0.00     0.189 A 
HETATM   14  N3  UNL     1      22.503   2.830  47.605  1.00  0.00    -0.235 NA
HETATM   15  C16 UNL     1      21.807   3.330  46.606  1.00  0.00     0.127 A 
HETATM   16  C17 UNL     1      21.144   4.605  46.869  1.00  0.00     0.072 A 
HETATM   17  S1  UNL     1      21.654   4.902  48.610  1.00  0.00    -0.061 SA
ENDBRANCH   5  13
BRANCH   3  18
HETATM   18  C9  UNL     1      23.476   1.290  53.086  1.00  0.00     0.082 C 
HETATM   19  C10 UNL     1      22.281   0.394  53.038  1.00  0.00    -0.014 C 
HETATM   20  C11 UNL     1      21.927  -0.641  53.785  1.00  0.00    -0.004 C 
HETATM   21  C12 UNL     1      22.652  -1.219  54.922  1.00  0.00     0.201 C 
HETATM   22  O1  UNL     1      24.038  -1.057  54.899  1.00  0.00    -0.360 OA
HETATM   23  C13 UNL     1      24.949  -0.560  53.982  1.00  0.00     0.132 C 
HETATM   24  C14 UNL     1      24.693   0.468  53.193  1.00  0.00     0.012 C 
ENDBRANCH   3  18
TORSDOF 3
ENDMDL
MODEL 7
REMARK VINA RESULT:      -7.8      3.047      5.339
REMARK  3 active torsions:
REMARK  status: ('A' for Active; 'I' for Inactive)
REMARK    1  A    between atoms: C5_5  and  C6_6 
REMARK    2  A    between atoms: C8_8  and  C9_9 
REMARK    3  A    between atoms: N2_17  and  C15_18 
ROOT
HETATM    1  C6  UNL     1      24.221   4.748  49.832  1.00  0.00     0.151 C 
HETATM    2  C7  UNL     1      24.494   3.443  50.550  1.00  0.00     0.089 C 
HETATM    3  C8  UNL     1      23.313   2.590  50.226  1.00  0.00     0.046 C 
HETATM    4  N1  UNL     1      22.644   3.123  49.291  1.00  0.00    -0.178 NA
HETATM    5  N2  UNL     1      23.244   4.340  48.875  1.00  0.00    -0.237 N 
ENDROOT
BRANCH   1   6
HETATM    6  C5  UNL     1      25.489   5.252  49.282  1.00  0.00    -0.033 A 
HETATM    7  C4  UNL     1      26.579   4.379  49.197  1.00  0.00     0.010 A 
HETATM    8  C3  UNL     1      27.827   4.724  48.696  1.00  0.00     0.007 A 
HETATM    9  C2  UNL     1      28.033   6.009  48.245  1.00  0.00    -0.062 A 
HETATM   10  C1  UNL     1      29.342   6.422  47.706  1.00  0.00     0.048 C 
HETATM   11  C19 UNL     1      26.984   6.898  48.311  1.00  0.00     0.007 A 
HETATM   12  C18 UNL     1      25.752   6.533  48.813  1.00  0.00     0.010 A 
ENDBRANCH   1   6
BRANCH   5  13
HETATM   13  C15 UNL     1      22.752   4.906  47.608  1.00  0.00     0.189 A 
HETATM   14  N3  UNL     1      22.588   5.764  46.850  1.00  0.00    -0.235 NA
HETATM   15  C16 UNL     1      21.977   5.693  45.685  1.00  0.00     0.127 A 
HETATM   16  C17 UNL     1      21.453   4.380  45.321  1.00  0.00     0.072 A 
HETATM   17  S1  UNL     1      21.947   3.395  46.792  1.00  0.00    -0.061 SA
ENDBRANCH   5  13
BRANCH   3  18
HETATM   18  C9  UNL     1      23.118   1.341  50.989  1.00  0.00     0.082 C 
HETATM   19  C10 UNL     1      23.957   1.347  52.225  1.00  0.00    -0.014 C 
HETATM   20  C11 UNL     1      24.010   0.517  53.256  1.00  0.00    -0.004 C 
HETATM   21  C12 UNL     1      23.217  -0.698  53.474  1.00  0.00     0.201 C 
HETATM   22  O1  UNL     1      21.958  -0.713  52.873  1.00  0.00    -0.360 OA
HETATM   23  C13 UNL     1      21.195   0.212  52.181  1.00  0.00     0.132 C 
HETATM   24  C14 UNL     1      21.712   1.107  51.358  1.00  0.00     0.012 C 
ENDBRANCH   3  18
TORSDOF 3
ENDMDL
MODEL 8
REMARK VINA RESULT:      -7.7      6.688     10.451
REMARK  3 active torsions:
REMARK  status: ('A' for Active; 'I' for Inactive)
REMARK    1  A    between atoms: C5_5  and  C6_6 
REMARK    2  A    between atoms: C8_8  and  C9_9 
REMARK    3  A    between atoms: N2_17  and  C15_18 
ROOT
HETATM    1  C6  UNL     1      28.786   6.324  47.779  1.00  0.00     0.151 C 
HETATM    2  C7  UNL     1      29.796   5.264  48.167  1.00  0.00     0.089 C 
HETATM    3  C8  UNL     1      31.024   6.035  48.514  1.00  0.00     0.046 C 
HETATM    4  N1  UNL     1      30.741   7.266  48.620  1.00  0.00    -0.178 NA
HETATM    5  N2  UNL     1      29.361   7.487  48.373  1.00  0.00    -0.237 N 
ENDROOT
BRANCH   1   6
HETATM    6  C5  UNL     1      27.468   5.923  48.296  1.00  0.00    -0.033 A 
HETATM    7  C4  UNL     1      27.332   4.662  48.886  1.00  0.00     0.010 A 
HETATM    8  C3  UNL     1      26.150   4.163  49.416  1.00  0.00     0.007 A 
HETATM    9  C2  UNL     1      25.016   4.944  49.369  1.00  0.00    -0.062 A 
HETATM   10  C1  UNL     1      23.737   4.456  49.917  1.00  0.00     0.048 C 
HETATM   11  C19 UNL     1      25.109   6.192  48.795  1.00  0.00     0.007 A 
HETATM   12  C18 UNL     1      26.295   6.668  48.275  1.00  0.00     0.010 A 
ENDBRANCH   1   6
BRANCH   5  13
HETATM   13  C15 UNL     1      28.837   8.809  48.753  1.00  0.00     0.189 A 
HETATM   14  N3  UNL     1      28.426   9.584  49.506  1.00  0.00    -0.235 NA
HETATM   15  C16 UNL     1      28.048  10.820  49.254  1.00  0.00     0.127 A 
HETATM   16  C17 UNL     1      28.167  11.249  47.863  1.00  0.00     0.072 A 
HETATM   17  S1  UNL     1      28.842   9.723  47.091  1.00  0.00    -0.061 SA
ENDBRANCH   5  13
BRANCH   3  18
HETATM   18  C9  UNL     1      32.295   5.300  48.675  1.00  0.00     0.082 C 
HETATM   19  C10 UNL     1      32.412   4.227  47.641  1.00  0.00    -0.014 C 
HETATM   20  C11 UNL     1      33.411   3.420  47.321  1.00  0.00    -0.004 C 
HETATM   21  C12 UNL     1      34.746   3.356  47.928  1.00  0.00     0.201 C 
HETATM   22  O1  UNL     1      35.212   4.547  48.486  1.00  0.00    -0.360 OA
HETATM   23  C13 UNL     1      34.757   5.854  48.519  1.00  0.00     0.132 C 
HETATM   24  C14 UNL     1      33.478   6.173  48.603  1.00  0.00     0.012 C 
ENDBRANCH   3  18
TORSDOF 3
ENDMDL
MODEL 9
REMARK VINA RESULT:      -7.7      3.120      7.510
REMARK  3 active torsions:
REMARK  status: ('A' for Active; 'I' for Inactive)
REMARK    1  A    between atoms: C5_5  and  C6_6 
REMARK    2  A    between atoms: C8_8  and  C9_9 
REMARK    3  A    between atoms: N2_17  and  C15_18 
ROOT
HETATM    1  C6  UNL     1      24.141   3.183  51.546  1.00  0.00     0.151 C 
HETATM    2  C7  UNL     1      24.291   4.045  50.311  1.00  0.00     0.089 C 
HETATM    3  C8  UNL     1      25.754   4.024  50.021  1.00  0.00     0.046 C 
HETATM    4  N1  UNL     1      26.314   3.122  50.713  1.00  0.00    -0.178 NA
HETATM    5  N2  UNL     1      25.362   2.445  51.521  1.00  0.00    -0.237 N 
ENDROOT
BRANCH   1   6
HETATM    6  C5  UNL     1      22.908   2.390  51.416  1.00  0.00    -0.033 A 
HETATM    7  C4  UNL     1      21.927   2.505  52.407  1.00  0.00     0.010 A 
HETATM    8  C3  UNL     1      20.721   1.819  52.404  1.00  0.00     0.007 A 
HETATM    9  C2  UNL     1      20.444   0.959  51.364  1.00  0.00    -0.062 A 
HETATM   10  C1  UNL     1      19.176   0.208  51.318  1.00  0.00     0.048 C 
HETATM   11  C19 UNL     1      21.385   0.819  50.369  1.00  0.00     0.007 A 
HETATM   12  C18 UNL     1      22.579   1.511  50.392  1.00  0.00     0.010 A 
ENDBRANCH   1   6
BRANCH   5  13
HETATM   13  C15 UNL     1      25.814   1.190  52.141  1.00  0.00     0.189 A 
HETATM   14  N3  UNL     1      25.933   0.040  52.188  1.00  0.00    -0.235 NA
HETATM   15  C16 UNL     1      26.517  -0.663  53.135  1.00  0.00     0.127 A 
HETATM   16  C17 UNL     1      27.075   0.105  54.246  1.00  0.00     0.072 A 
HETATM   17  S1  UNL     1      26.649   1.815  53.725  1.00  0.00    -0.061 SA
ENDBRANCH   5  13
BRANCH   3  18
HETATM   18  C9  UNL     1      26.290   4.987  49.039  1.00  0.00     0.082 C 
HETATM   19  C10 UNL     1      25.992   6.388  49.464  1.00  0.00    -0.014 C 
HETATM   20  C11 UNL     1      26.382   7.557  48.978  1.00  0.00    -0.004 C 
HETATM   21  C12 UNL     1      27.257   7.805  47.827  1.00  0.00     0.201 C 
HETATM   22  O1  UNL     1      28.188   6.802  47.549  1.00  0.00    -0.360 OA
HETATM   23  C13 UNL     1      28.578   5.631  48.176  1.00  0.00     0.132 C 
HETATM   24  C14 UNL     1      27.739   4.844  48.825  1.00  0.00     0.012 C 
ENDBRANCH   3  18
TORSDOF 3
ENDMDL
