MODEL 1
REMARK VINA RESULT:      -6.8      0.000      0.000
REMARK  4 active torsions:
REMARK  status: ('A' for Active; 'I' for Inactive)
REMARK    1  A    between atoms: C2_2  and  C3_3 
REMARK    2  A    between atoms: C2_2  and  C5_5 
REMARK    3  A    between atoms: C6_6  and  C7_7 
REMARK    4  A    between atoms: C12_13  and  C13_15 
ROOT
HETATM    1  C7  UNL     1      23.473   2.130  52.345  1.00  0.00     0.104 C 
HETATM    2  C8  UNL     1      24.174   3.080  53.260  1.00  0.00     0.285 C 
HETATM    3  N1  UNL     1      24.264   4.430  52.862  1.00  0.00     0.084 N 
HETATM    4  C9  UNL     1      23.234   4.960  52.042  1.00  0.00     0.273 C 
HETATM    5  C10 UNL     1      22.018   4.070  52.180  1.00  0.00     0.066 C 
HETATM    6  C11 UNL     1      22.404   2.781  51.543  1.00  0.00    -0.046 C 
HETATM    7  C12 UNL     1      21.757   2.471  50.432  1.00  0.00     0.043 C 
HETATM    8 CL1  UNL     1      20.497   3.492  49.709  1.00  0.00    -0.086 Cl
HETATM    9  H11 UNL     1      24.454   5.030  53.667  1.00  0.00     0.315 HD
ENDROOT
BRANCH   1  10
HETATM   10  C6  UNL     1      22.853   0.988  53.061  1.00  0.00     0.089 C 
HETATM   11  C5  UNL     1      23.629  -0.019  53.418  1.00  0.00     0.101 C 
HETATM   12  O2  UNL     1      22.978  -1.042  54.080  1.00  0.00    -0.346 OA
HETATM   13  C15 UNL     1      21.841  -0.768  54.902  1.00  0.00     0.202 C 
HETATM   14  C14 UNL     1      20.878   0.195  54.277  1.00  0.00     0.202 C 
HETATM   15  O1  UNL     1      21.491   1.032  53.318  1.00  0.00    -0.350 OA
BRANCH  11  16
HETATM   16  C2  UNL     1      25.047  -0.184  53.211  1.00  0.00    -0.044 C 
HETATM   17  C1  UNL     1      25.927  -0.214  54.193  1.00  0.00     0.041 C 
BRANCH  16  18
HETATM   18  C3  UNL     1      26.204  -0.364  52.319  1.00  0.00     0.033 C 
HETATM   19  C4  UNL     1      26.912  -1.687  52.575  1.00  0.00     0.010 C 
ENDBRANCH  16  18
ENDBRANCH  11  16
ENDBRANCH   1  10
BRANCH   7  20
HETATM   20  C13 UNL     1      21.897   1.276  49.557  1.00  0.00     0.273 C 
HETATM   21  F1  UNL     1      21.426   0.132  50.213  1.00  0.00    -0.250 F 
ENDBRANCH   7  20
TORSDOF 4
ENDMDL
MODEL 2
REMARK VINA RESULT:      -6.5      3.834      5.897
REMARK  4 active torsions:
REMARK  status: ('A' for Active; 'I' for Inactive)
REMARK    1  A    between atoms: C2_2  and  C3_3 
REMARK    2  A    between atoms: C2_2  and  C5_5 
REMARK    3  A    between atoms: C6_6  and  C7_7 
REMARK    4  A    between atoms: C12_13  and  C13_15 
ROOT
HETATM    1  C7  UNL     1      23.480   3.455  49.310  1.00  0.00     0.104 C 
HETATM    2  C8  UNL     1      22.583   3.393  48.116  1.00  0.00     0.285 C 
HETATM    3  N1  UNL     1      22.065   2.134  47.749  1.00  0.00     0.084 N 
HETATM    4  C9  UNL     1      21.855   1.169  48.768  1.00  0.00     0.273 C 
HETATM    5  C10 UNL     1      21.792   1.893  50.095  1.00  0.00     0.066 C 
HETATM    6  C11 UNL     1      23.168   2.412  50.322  1.00  0.00    -0.046 C 
HETATM    7  C12 UNL     1      23.828   1.873  51.333  1.00  0.00     0.043 C 
HETATM    8 CL1  UNL     1      23.156   0.609  52.385  1.00  0.00    -0.086 Cl
HETATM    9  H11 UNL     1      21.240   2.245  47.155  1.00  0.00     0.315 HD
ENDROOT
BRANCH   1  10
HETATM   10  C6  UNL     1      23.435   4.767  50.000  1.00  0.00     0.089 C 
HETATM   11  C5  UNL     1      24.533   5.500  50.018  1.00  0.00     0.101 C 
HETATM   12  O2  UNL     1      24.411   6.707  50.679  1.00  0.00    -0.346 OA
HETATM   13  C15 UNL     1      23.161   7.401  50.700  1.00  0.00     0.202 C 
HETATM   14  C14 UNL     1      21.990   6.501  50.956  1.00  0.00     0.202 C 
HETATM   15  O1  UNL     1      22.244   5.159  50.593  1.00  0.00    -0.350 OA
BRANCH  11  16
HETATM   16  C2  UNL     1      25.824   5.207  49.445  1.00  0.00    -0.044 C 
HETATM   17  C1  UNL     1      26.522   6.079  48.742  1.00  0.00     0.041 C 
BRANCH  16  18
HETATM   18  C3  UNL     1      26.943   4.283  49.199  1.00  0.00     0.033 C 
HETATM   19  C4  UNL     1      28.100   4.975  48.493  1.00  0.00     0.010 C 
ENDBRANCH  16  18
ENDBRANCH  11  16
ENDBRANCH   1  10
BRANCH   7  20
HETATM   20  C13 UNL     1      25.203   2.157  51.827  1.00  0.00     0.273 C 
HETATM   21  F1  UNL     1      26.133   1.334  51.182  1.00  0.00    -0.250 F 
ENDBRANCH   7  20
TORSDOF 4
ENDMDL
MODEL 3
REMARK VINA RESULT:      -6.5      2.376      4.132
REMARK  4 active torsions:
REMARK  status: ('A' for Active; 'I' for Inactive)
REMARK    1  A    between atoms: C2_2  and  C3_3 
REMARK    2  A    between atoms: C2_2  and  C5_5 
REMARK    3  A    between atoms: C6_6  and  C7_7 
REMARK    4  A    between atoms: C12_13  and  C13_15 
ROOT
HETATM    1  C7  UNL     1      22.429   1.570  51.491  1.00  0.00     0.104 C 
HETATM    2  C8  UNL     1      21.793   0.600  50.550  1.00  0.00     0.285 C 
HETATM    3  N1  UNL     1      21.147   1.119  49.408  1.00  0.00     0.084 N 
HETATM    4  C9  UNL     1      21.628   2.336  48.858  1.00  0.00     0.273 C 
HETATM    5  C10 UNL     1      23.043   2.549  49.352  1.00  0.00     0.066 C 
HETATM    6  C11 UNL     1      22.911   2.802  50.813  1.00  0.00    -0.046 C 
HETATM    7  C12 UNL     1      23.229   4.020  51.218  1.00  0.00     0.043 C 
HETATM    8 CL1  UNL     1      23.787   5.305  50.126  1.00  0.00    -0.086 Cl
HETATM    9  H11 UNL     1      21.043   0.395  48.694  1.00  0.00     0.315 HD
ENDROOT
BRANCH   1  10
HETATM   10  C6  UNL     1      23.581   0.992  52.226  1.00  0.00     0.089 C 
HETATM   11  C5  UNL     1      23.334   0.283  53.313  1.00  0.00     0.101 C 
HETATM   12  O2  UNL     1      24.457  -0.221  53.940  1.00  0.00    -0.346 OA
HETATM   13  C15 UNL     1      25.619  -0.567  53.182  1.00  0.00     0.202 C 
HETATM   14  C14 UNL     1      25.970   0.451  52.140  1.00  0.00     0.202 C 
HETATM   15  O1  UNL     1      24.858   1.225  51.739  1.00  0.00    -0.350 OA
BRANCH  11  16
HETATM   16  C2  UNL     1      22.063  -0.029  53.918  1.00  0.00    -0.044 C 
HETATM   17  C1  UNL     1      21.817  -1.161  54.550  1.00  0.00     0.041 C 
BRANCH  16  18
HETATM   18  C3  UNL     1      20.672   0.325  54.244  1.00  0.00     0.033 C 
HETATM   19  C4  UNL     1      19.678  -0.495  53.433  1.00  0.00     0.010 C 
ENDBRANCH  16  18
ENDBRANCH  11  16
ENDBRANCH   1  10
BRANCH   7  20
HETATM   20  C13 UNL     1      23.210   4.598  52.589  1.00  0.00     0.273 C 
HETATM   21  F1  UNL     1      24.111   3.920  53.418  1.00  0.00    -0.250 F 
ENDBRANCH   7  20
TORSDOF 4
ENDMDL
MODEL 4
REMARK VINA RESULT:      -6.5      3.297      4.644
REMARK  4 active torsions:
REMARK  status: ('A' for Active; 'I' for Inactive)
REMARK    1  A    between atoms: C2_2  and  C3_3 
REMARK    2  A    between atoms: C2_2  and  C5_5 
REMARK    3  A    between atoms: C6_6  and  C7_7 
REMARK    4  A    between atoms: C12_13  and  C13_15 
ROOT
HETATM    1  C7  UNL     1      23.623   4.353  50.738  1.00  0.00     0.104 C 
HETATM    2  C8  UNL     1      22.737   5.451  51.231  1.00  0.00     0.285 C 
HETATM    3  N1  UNL     1      23.328   6.703  51.499  1.00  0.00     0.084 N 
HETATM    4  C9  UNL     1      24.473   7.081  50.750  1.00  0.00     0.273 C 
HETATM    5  C10 UNL     1      24.508   6.242  49.490  1.00  0.00     0.066 C 
HETATM    6  C11 UNL     1      24.782   4.854  49.954  1.00  0.00    -0.046 C 
HETATM    7  C12 UNL     1      25.952   4.349  49.600  1.00  0.00     0.043 C 
HETATM    8 CL1  UNL     1      27.152   5.230  48.632  1.00  0.00    -0.086 Cl
HETATM    9  H11 UNL     1      22.621   7.440  51.508  1.00  0.00     0.315 HD
ENDROOT
BRANCH   1  10
HETATM   10  C6  UNL     1      22.908   3.370  49.889  1.00  0.00     0.089 C 
HETATM   11  C5  UNL     1      22.837   2.119  50.308  1.00  0.00     0.101 C 
HETATM   12  O2  UNL     1      22.155   1.265  49.463  1.00  0.00    -0.346 OA
HETATM   13  C15 UNL     1      21.077   1.747  48.657  1.00  0.00     0.202 C 
HETATM   14  C14 UNL     1      21.370   3.064  48.005  1.00  0.00     0.202 C 
HETATM   15  O1  UNL     1      22.350   3.809  48.698  1.00  0.00    -0.350 OA
BRANCH  11  16
HETATM   16  C2  UNL     1      23.371   1.540  51.516  1.00  0.00    -0.044 C 
HETATM   17  C1  UNL     1      22.628   1.221  52.559  1.00  0.00     0.041 C 
BRANCH  16  18
HETATM   18  C3  UNL     1      24.505   1.045  52.313  1.00  0.00     0.033 C 
HETATM   19  C4  UNL     1      24.956   2.068  53.347  1.00  0.00     0.010 C 
ENDBRANCH  16  18
ENDBRANCH  11  16
ENDBRANCH   1  10
BRANCH   7  20
HETATM   20  C13 UNL     1      26.533   3.011  49.893  1.00  0.00     0.273 C 
HETATM   21  F1  UNL     1      27.133   3.005  51.159  1.00  0.00    -0.250 F 
ENDBRANCH   7  20
TORSDOF 4
ENDMDL
MODEL 5
REMARK VINA RESULT:      -6.0      2.551      3.895
REMARK  4 active torsions:
REMARK  status: ('A' for Active; 'I' for Inactive)
REMARK    1  A    between atoms: C2_2  and  C3_3 
REMARK    2  A    between atoms: C2_2  and  C5_5 
REMARK    3  A    between atoms: C6_6  and  C7_7 
REMARK    4  A    between atoms: C12_13  and  C13_15 
ROOT
HETATM    1  C7  UNL     1      22.494   3.064  52.090  1.00  0.00     0.104 C 
HETATM    2  C8  UNL     1      21.820   4.383  52.283  1.00  0.00     0.285 C 
HETATM    3  N1  UNL     1      22.636   5.514  52.488  1.00  0.00     0.084 N 
HETATM    4  C9  UNL     1      23.929   5.527  51.903  1.00  0.00     0.273 C 
HETATM    5  C10 UNL     1      23.948   4.509  50.783  1.00  0.00     0.066 C 
HETATM    6  C11 UNL     1      23.834   3.186  51.457  1.00  0.00    -0.046 C 
HETATM    7  C12 UNL     1      24.896   2.403  51.374  1.00  0.00     0.043 C 
HETATM    8 CL1  UNL     1      26.387   2.855  50.521  1.00  0.00    -0.086 Cl
HETATM    9  H11 UNL     1      22.119   6.372  52.284  1.00  0.00     0.315 HD
ENDROOT
BRANCH   1  10
HETATM   10  C6  UNL     1      21.700   2.124  51.262  1.00  0.00     0.089 C 
HETATM   11  C5  UNL     1      21.324   0.979  51.804  1.00  0.00     0.101 C 
HETATM   12  O2  UNL     1      20.588   0.160  50.970  1.00  0.00    -0.346 OA
HETATM   13  C15 UNL     1      19.736   0.719  49.968  1.00  0.00     0.202 C 
HETATM   14  C14 UNL     1      20.369   1.854  49.221  1.00  0.00     0.202 C 
HETATM   15  O1  UNL     1      21.391   2.490  49.960  1.00  0.00    -0.350 OA
BRANCH  11  16
HETATM   16  C2  UNL     1      21.580   0.484  53.134  1.00  0.00    -0.044 C 
HETATM   17  C1  UNL     1      20.718   0.590  54.128  1.00  0.00     0.041 C 
BRANCH  16  18
HETATM   18  C3  UNL     1      22.453  -0.186  54.112  1.00  0.00     0.033 C 
HETATM   19  C4  UNL     1      21.885  -1.531  54.544  1.00  0.00     0.010 C 
ENDBRANCH  16  18
ENDBRANCH  11  16
ENDBRANCH   1  10
BRANCH   7  20
HETATM   20  C13 UNL     1      25.114   1.039  51.927  1.00  0.00     0.273 C 
HETATM   21  F1  UNL     1      26.385   0.568  51.580  1.00  0.00    -0.250 F 
ENDBRANCH   7  20
TORSDOF 4
ENDMDL
MODEL 6
REMARK VINA RESULT:      -6.0      3.182      5.372
REMARK  4 active torsions:
REMARK  status: ('A' for Active; 'I' for Inactive)
REMARK    1  A    between atoms: C2_2  and  C3_3 
REMARK    2  A    between atoms: C2_2  and  C5_5 
REMARK    3  A    between atoms: C6_6  and  C7_7 
REMARK    4  A    between atoms: C12_13  and  C13_15 
ROOT
HETATM    1  C7  UNL     1      23.813   1.642  51.641  1.00  0.00     0.104 C 
HETATM    2  C8  UNL     1      22.989   0.723  52.484  1.00  0.00     0.285 C 
HETATM    3  N1  UNL     1      23.658  -0.298  53.190  1.00  0.00     0.084 N 
HETATM    4  C9  UNL     1      24.996  -0.066  53.602  1.00  0.00     0.273 C 
HETATM    5  C10 UNL     1      25.236   1.429  53.600  1.00  0.00     0.066 C 
HETATM    6  C11 UNL     1      25.191   1.828  52.167  1.00  0.00    -0.046 C 
HETATM    7  C12 UNL     1      26.332   2.253  51.651  1.00  0.00     0.043 C 
HETATM    8 CL1  UNL     1      27.848   2.362  52.570  1.00  0.00    -0.086 Cl
HETATM    9  H11 UNL     1      23.079  -0.642  53.959  1.00  0.00     0.315 HD
ENDROOT
BRANCH   1  10
HETATM   10  C6  UNL     1      23.210   2.989  51.495  1.00  0.00     0.089 C 
HETATM   11  C5  UNL     1      22.499   3.239  50.411  1.00  0.00     0.101 C 
HETATM   12  O2  UNL     1      21.971   4.515  50.349  1.00  0.00    -0.346 OA
HETATM   13  C15 UNL     1      21.609   5.210  51.544  1.00  0.00     0.202 C 
HETATM   14  C14 UNL     1      22.627   5.079  52.636  1.00  0.00     0.202 C 
HETATM   15  O1  UNL     1      23.423   3.919  52.501  1.00  0.00    -0.350 OA
BRANCH  11  16
HETATM   16  C2  UNL     1      22.206   2.366  49.301  1.00  0.00    -0.044 C 
HETATM   17  C1  UNL     1      22.809   2.450  48.131  1.00  0.00     0.041 C 
BRANCH  16  18
HETATM   18  C3  UNL     1      21.456   1.247  48.708  1.00  0.00     0.033 C 
HETATM   19  C4  UNL     1      20.409   0.699  49.668  1.00  0.00     0.010 C 
ENDBRANCH  16  18
ENDBRANCH  11  16
ENDBRANCH   1  10
BRANCH   7  20
HETATM   20  C13 UNL     1      26.631   2.721  50.270  1.00  0.00     0.273 C 
HETATM   21  F1  UNL     1      25.952   3.916  50.001  1.00  0.00    -0.250 F 
ENDBRANCH   7  20
TORSDOF 4
ENDMDL
MODEL 7
REMARK VINA RESULT:      -6.0      2.848      4.915
REMARK  4 active torsions:
REMARK  status: ('A' for Active; 'I' for Inactive)
REMARK    1  A    between atoms: C2_2  and  C3_3 
REMARK    2  A    between atoms: C2_2  and  C5_5 
REMARK    3  A    between atoms: C6_6  and  C7_7 
REMARK    4  A    between atoms: C12_13  and  C13_15 
ROOT
HETATM    1  C7  UNL     1      22.835   2.098  52.254  1.00  0.00     0.104 C 
HETATM    2  C8  UNL     1      23.205   3.540  52.386  1.00  0.00     0.285 C 
HETATM    3  N1  UNL     1      24.210   3.878  53.315  1.00  0.00     0.084 N 
HETATM    4  C9  UNL     1      25.222   2.921  53.591  1.00  0.00     0.273 C 
HETATM    5  C10 UNL     1      25.252   1.927  52.450  1.00  0.00     0.066 C 
HETATM    6  C11 UNL     1      23.968   1.181  52.550  1.00  0.00    -0.046 C 
HETATM    7  C12 UNL     1      24.067  -0.098  52.870  1.00  0.00     0.043 C 
HETATM    8 CL1  UNL     1      25.613  -0.920  53.168  1.00  0.00    -0.086 Cl
HETATM    9  H11 UNL     1      24.605   4.796  53.100  1.00  0.00     0.315 HD
ENDROOT
BRANCH   1  10
HETATM   10  C6  UNL     1      22.328   1.751  50.904  1.00  0.00     0.089 C 
HETATM   11  C5  UNL     1      21.160   1.142  50.815  1.00  0.00     0.101 C 
HETATM   12  O2  UNL     1      20.757   0.853  49.525  1.00  0.00    -0.346 OA
HETATM   13  C15 UNL     1      21.138   1.700  48.438  1.00  0.00     0.202 C 
HETATM   14  C14 UNL     1      22.574   2.123  48.494  1.00  0.00     0.202 C 
HETATM   15  O1  UNL     1      23.103   2.083  49.804  1.00  0.00    -0.350 OA
BRANCH  11  16
HETATM   16  C2  UNL     1      20.265   0.745  51.874  1.00  0.00    -0.044 C 
HETATM   17  C1  UNL     1      19.010   0.392  51.672  1.00  0.00     0.041 C 
BRANCH  16  18
HETATM   18  C3  UNL     1      19.989   0.493  53.298  1.00  0.00     0.033 C 
HETATM   19  C4  UNL     1      19.298  -0.848  53.508  1.00  0.00     0.010 C 
ENDBRANCH  16  18
ENDBRANCH  11  16
ENDBRANCH   1  10
BRANCH   7  20
HETATM   20  C13 UNL     1      22.997  -1.115  53.051  1.00  0.00     0.273 C 
HETATM   21  F1  UNL     1      22.605  -1.179  54.393  1.00  0.00    -0.250 F 
ENDBRANCH   7  20
TORSDOF 4
ENDMDL
MODEL 8
REMARK VINA RESULT:      -6.0     10.701     11.914
REMARK  4 active torsions:
REMARK  status: ('A' for Active; 'I' for Inactive)
REMARK    1  A    between atoms: C2_2  and  C3_3 
REMARK    2  A    between atoms: C2_2  and  C5_5 
REMARK    3  A    between atoms: C6_6  and  C7_7 
REMARK    4  A    between atoms: C12_13  and  C13_15 
ROOT
HETATM    1  C7  UNL     1      31.923   6.619  46.043  1.00  0.00     0.104 C 
HETATM    2  C8  UNL     1      32.361   7.362  44.823  1.00  0.00     0.285 C 
HETATM    3  N1  UNL     1      31.370   8.013  44.059  1.00  0.00     0.084 N 
HETATM    4  C9  UNL     1      30.210   8.487  44.725  1.00  0.00     0.273 C 
HETATM    5  C10 UNL     1      30.529   8.604  46.199  1.00  0.00     0.066 C 
HETATM    6  C11 UNL     1      30.709   7.204  46.672  1.00  0.00    -0.046 C 
HETATM    7  C12 UNL     1      29.798   6.760  47.521  1.00  0.00     0.043 C 
HETATM    8 CL1  UNL     1      28.429   7.736  48.094  1.00  0.00    -0.086 Cl
HETATM    9  H11 UNL     1      31.789   8.733  43.467  1.00  0.00     0.315 HD
ENDROOT
BRANCH   1  10
HETATM   10  C6  UNL     1      32.973   6.553  47.089  1.00  0.00     0.089 C 
HETATM   11  C5  UNL     1      33.451   5.366  47.418  1.00  0.00     0.101 C 
HETATM   12  O2  UNL     1      34.425   5.389  48.398  1.00  0.00    -0.346 OA
HETATM   13  C15 UNL     1      35.307   6.507  48.520  1.00  0.00     0.202 C 
HETATM   14  C14 UNL     1      34.609   7.827  48.395  1.00  0.00     0.202 C 
HETATM   15  O1  UNL     1      33.400   7.737  47.669  1.00  0.00    -0.350 OA
BRANCH  11  16
HETATM   16  C2  UNL     1      33.093   4.072  46.894  1.00  0.00    -0.044 C 
HETATM   17  C1  UNL     1      33.970   3.220  46.398  1.00  0.00     0.041 C 
BRANCH  16  18
HETATM   18  C3  UNL     1      32.086   3.047  46.574  1.00  0.00     0.033 C 
HETATM   19  C4  UNL     1      32.558   1.653  46.964  1.00  0.00     0.010 C 
ENDBRANCH  16  18
ENDBRANCH  11  16
ENDBRANCH   1  10
BRANCH   7  20
HETATM   20  C13 UNL     1      29.682   5.429  48.176  1.00  0.00     0.273 C 
HETATM   21  F1  UNL     1      28.356   4.982  48.143  1.00  0.00    -0.250 F 
ENDBRANCH   7  20
TORSDOF 4
ENDMDL
MODEL 9
REMARK VINA RESULT:      -5.9     11.727     12.699
REMARK  4 active torsions:
REMARK  status: ('A' for Active; 'I' for Inactive)
REMARK    1  A    between atoms: C2_2  and  C3_3 
REMARK    2  A    between atoms: C2_2  and  C5_5 
REMARK    3  A    between atoms: C6_6  and  C7_7 
REMARK    4  A    between atoms: C12_13  and  C13_15 
ROOT
HETATM    1  C7  UNL     1      33.452   6.610  46.480  1.00  0.00     0.104 C 
HETATM    2  C8  UNL     1      34.043   7.695  47.320  1.00  0.00     0.285 C 
HETATM    3  N1  UNL     1      34.979   8.559  46.714  1.00  0.00     0.084 N 
HETATM    4  C9  UNL     1      34.861   8.808  45.321  1.00  0.00     0.273 C 
HETATM    5  C10 UNL     1      33.452   8.455  44.898  1.00  0.00     0.066 C 
HETATM    6  C11 UNL     1      33.360   6.976  45.042  1.00  0.00    -0.046 C 
HETATM    7  C12 UNL     1      33.223   6.294  43.918  1.00  0.00     0.043 C 
HETATM    8 CL1  UNL     1      33.145   7.049  42.312  1.00  0.00    -0.086 Cl
HETATM    9  H11 UNL     1      35.066   9.426  47.247  1.00  0.00     0.315 HD
ENDROOT
BRANCH   1  10
HETATM   10  C6  UNL     1      32.092   6.213  46.921  1.00  0.00     0.089 C 
HETATM   11  C5  UNL     1      31.894   4.956  47.274  1.00  0.00     0.101 C 
HETATM   12  O2  UNL     1      30.603   4.665  47.673  1.00  0.00    -0.346 OA
HETATM   13  C15 UNL     1      29.799   5.659  48.313  1.00  0.00     0.202 C 
HETATM   14  C14 UNL     1      29.894   7.005  47.662  1.00  0.00     0.202 C 
HETATM   15  O1  UNL     1      31.097   7.179  46.942  1.00  0.00    -0.350 OA
BRANCH  11  16
HETATM   16  C2  UNL     1      32.836   3.865  47.296  1.00  0.00    -0.044 C 
HETATM   17  C1  UNL     1      32.584   2.675  46.784  1.00  0.00     0.041 C 
BRANCH  16  18
HETATM   18  C3  UNL     1      34.149   3.306  47.658  1.00  0.00     0.033 C 
HETATM   19  C4  UNL     1      35.105   3.303  46.473  1.00  0.00     0.010 C 
ENDBRANCH  16  18
ENDBRANCH  11  16
ENDBRANCH   1  10
BRANCH   7  20
HETATM   20  C13 UNL     1      33.105   4.826  43.709  1.00  0.00     0.273 C 
HETATM   21  F1  UNL     1      34.352   4.276  43.390  1.00  0.00    -0.250 F 
ENDBRANCH   7  20
TORSDOF 4
ENDMDL
