MODEL 1
REMARK VINA RESULT:      -7.4      0.000      0.000
REMARK  6 active torsions:
REMARK  status: ('A' for Active; 'I' for Inactive)
REMARK    1  A    between atoms: C2_2  and  C3_3 
REMARK    2  A    between atoms: C3_3  and  C4_4 
REMARK    3  A    between atoms: C4_4  and  C5_5 
REMARK    4  A    between atoms: C5_5  and  C6_6 
REMARK    5  A    between atoms: C6_6  and  C7_7 
REMARK    6  A    between atoms: C11_13  and  O1_14 
ROOT
HETATM    1  C7  UNL     1      25.358   3.536  50.770  1.00  0.00     0.207 C 
HETATM    2  N1  UNL     1      24.356   2.576  50.584  1.00  0.00    -0.257 NA
HETATM    3  C8  UNL     1      23.852   1.609  51.173  1.00  0.00     0.228 C 
HETATM    4  N2  UNL     1      23.794   0.776  52.257  1.00  0.00    -0.254 NA
HETATM    5  C9  UNL     1      22.978   0.077  52.787  1.00  0.00     0.120 C 
HETATM    6  C10 UNL     1      23.920  -0.383  53.867  1.00  0.00     0.056 C 
HETATM    7  C11 UNL     1      25.131  -0.413  54.510  1.00  0.00     0.079 C 
HETATM    8  C12 UNL     1      25.808   0.535  53.593  1.00  0.00     0.019 A 
HETATM    9  C13 UNL     1      25.545   1.782  54.092  1.00  0.00     0.018 A 
HETATM   10  C14 UNL     1      25.907   2.870  53.342  1.00  0.00     0.030 A 
HETATM   11  C15 UNL     1      26.450   2.251  52.262  1.00  0.00     0.031 A 
HETATM   12  C16 UNL     1      26.763   1.065  51.675  1.00  0.00     0.054 A 
HETATM   13  C17 UNL     1      26.377  -0.019  52.478  1.00  0.00     0.049 A 
HETATM   14 CL1  UNL     1      26.509  -1.748  52.274  1.00  0.00    -0.083 Cl
HETATM   15  N3  UNL     1      26.700   3.082  51.125  1.00  0.00    -0.367 N 
HETATM   16  H18 UNL     1      27.633   3.307  50.666  1.00  0.00     0.161 HD
ENDROOT
BRANCH   1  17
HETATM   17  C6  UNL     1      25.435   4.369  49.482  1.00  0.00     0.049 C 
BRANCH  17  18
HETATM   18  C5  UNL     1      25.717   5.813  49.739  1.00  0.00     0.005 C 
BRANCH  18  19
HETATM   19  C4  UNL     1      26.773   6.244  48.737  1.00  0.00     0.017 C 
BRANCH  19  20
HETATM   20  C3  UNL     1      27.779   5.193  48.504  1.00  0.00     0.066 C 
BRANCH  20  21
HETATM   21  C2  UNL     1      29.023   5.528  48.199  1.00  0.00    -0.176 C 
HETATM   22  C1  UNL     1      30.324   5.602  47.963  1.00  0.00     0.091 C 
ENDBRANCH  20  21
ENDBRANCH  19  20
ENDBRANCH  18  19
ENDBRANCH  17  18
ENDBRANCH   1  17
BRANCH   7  23
HETATM   23  O1  UNL     1      26.050  -0.810  55.494  1.00  0.00    -0.360 OA
HETATM   24  H14 UNL     1      26.637  -0.066  55.872  1.00  0.00     0.217 HD
ENDBRANCH   7  23
TORSDOF 6
ENDMDL
MODEL 2
REMARK VINA RESULT:      -7.1      3.333      6.061
REMARK  6 active torsions:
REMARK  status: ('A' for Active; 'I' for Inactive)
REMARK    1  A    between atoms: C2_2  and  C3_3 
REMARK    2  A    between atoms: C3_3  and  C4_4 
REMARK    3  A    between atoms: C4_4  and  C5_5 
REMARK    4  A    between atoms: C5_5  and  C6_6 
REMARK    5  A    between atoms: C6_6  and  C7_7 
REMARK    6  A    between atoms: C11_13  and  O1_14 
ROOT
HETATM    1  C7  UNL     1      25.751   1.326  52.024  1.00  0.00     0.207 C 
HETATM    2  N1  UNL     1      26.234   2.126  50.981  1.00  0.00    -0.257 NA
HETATM    3  C8  UNL     1      26.035   3.239  50.473  1.00  0.00     0.228 C 
HETATM    4  N2  UNL     1      25.353   4.426  50.440  1.00  0.00    -0.254 NA
HETATM    5  C9  UNL     1      25.552   5.543  50.056  1.00  0.00     0.120 C 
HETATM    6  C10 UNL     1      24.200   6.043  50.488  1.00  0.00     0.056 C 
HETATM    7  C11 UNL     1      22.958   5.896  51.051  1.00  0.00     0.079 C 
HETATM    8  C12 UNL     1      23.115   4.458  51.381  1.00  0.00     0.019 A 
HETATM    9  C13 UNL     1      23.706   4.427  52.615  1.00  0.00     0.018 A 
HETATM   10  C14 UNL     1      24.131   3.218  53.099  1.00  0.00     0.030 A 
HETATM   11  C15 UNL     1      23.776   2.405  52.070  1.00  0.00     0.031 A 
HETATM   12  C16 UNL     1      23.200   2.320  50.841  1.00  0.00     0.054 A 
HETATM   13  C17 UNL     1      22.778   3.579  50.388  1.00  0.00     0.049 A 
HETATM   14 CL1  UNL     1      21.987   4.104  48.922  1.00  0.00    -0.083 Cl
HETATM   15  N3  UNL     1      24.314   1.081  52.105  1.00  0.00    -0.367 N 
HETATM   16  H18 UNL     1      23.789   0.158  52.175  1.00  0.00     0.161 HD
ENDROOT
BRANCH   1  17
HETATM   17  C6  UNL     1      26.486  -0.020  51.941  1.00  0.00     0.049 C 
BRANCH  17  18
HETATM   18  C5  UNL     1      26.588  -0.710  53.262  1.00  0.00     0.005 C 
BRANCH  18  19
HETATM   19  C4  UNL     1      26.877   0.358  54.300  1.00  0.00     0.017 C 
BRANCH  19  20
HETATM   20  C3  UNL     1      28.191   0.169  54.940  1.00  0.00     0.066 C 
BRANCH  20  21
HETATM   21  C2  UNL     1      29.210  -0.284  54.228  1.00  0.00    -0.176 C 
HETATM   22  C1  UNL     1      30.103  -0.981  53.539  1.00  0.00     0.091 C 
ENDBRANCH  20  21
ENDBRANCH  19  20
ENDBRANCH  18  19
ENDBRANCH  17  18
ENDBRANCH   1  17
BRANCH   7  23
HETATM   23  O1  UNL     1      21.685   6.310  51.473  1.00  0.00    -0.360 OA
HETATM   24  H14 UNL     1      21.662   6.842  52.343  1.00  0.00     0.217 HD
ENDBRANCH   7  23
TORSDOF 6
ENDMDL
MODEL 3
REMARK VINA RESULT:      -6.9      3.659      5.946
REMARK  6 active torsions:
REMARK  status: ('A' for Active; 'I' for Inactive)
REMARK    1  A    between atoms: C2_2  and  C3_3 
REMARK    2  A    between atoms: C3_3  and  C4_4 
REMARK    3  A    between atoms: C4_4  and  C5_5 
REMARK    4  A    between atoms: C5_5  and  C6_6 
REMARK    5  A    between atoms: C6_6  and  C7_7 
REMARK    6  A    between atoms: C11_13  and  O1_14 
ROOT
HETATM    1  C7  UNL     1      24.404   1.001  52.376  1.00  0.00     0.207 C 
HETATM    2  N1  UNL     1      23.222   0.977  51.627  1.00  0.00    -0.257 NA
HETATM    3  C8  UNL     1      22.696   1.565  50.671  1.00  0.00     0.228 C 
HETATM    4  N2  UNL     1      22.739   2.528  49.699  1.00  0.00    -0.254 NA
HETATM    5  C9  UNL     1      22.239   2.717  48.626  1.00  0.00     0.120 C 
HETATM    6  C10 UNL     1      22.941   4.031  48.415  1.00  0.00     0.056 C 
HETATM    7  C11 UNL     1      23.791   5.043  48.783  1.00  0.00     0.079 C 
HETATM    8  C12 UNL     1      24.178   4.446  50.083  1.00  0.00     0.019 A 
HETATM    9  C13 UNL     1      25.236   3.622  49.810  1.00  0.00     0.018 A 
HETATM   10  C14 UNL     1      25.692   2.801  50.807  1.00  0.00     0.030 A 
HETATM   11  C15 UNL     1      24.838   3.136  51.808  1.00  0.00     0.031 A 
HETATM   12  C16 UNL     1      23.790   3.914  52.190  1.00  0.00     0.054 A 
HETATM   13  C17 UNL     1      23.359   4.739  51.141  1.00  0.00     0.049 A 
HETATM   14 CL1  UNL     1      22.088   5.930  51.018  1.00  0.00    -0.083 Cl
HETATM   15  N3  UNL     1      24.841   2.272  52.948  1.00  0.00    -0.367 N 
HETATM   16  H18 UNL     1      25.100   2.507  53.953  1.00  0.00     0.161 HD
ENDROOT
BRANCH   1  17
HETATM   17  C6  UNL     1      24.248  -0.029  53.505  1.00  0.00     0.049 C 
BRANCH  17  18
HETATM   18  C5  UNL     1      25.555  -0.455  54.089  1.00  0.00     0.005 C 
BRANCH  18  19
HETATM   19  C4  UNL     1      26.441  -0.884  52.933  1.00  0.00     0.017 C 
BRANCH  19  20
HETATM   20  C3  UNL     1      27.828  -0.413  53.093  1.00  0.00     0.066 C 
BRANCH  20  21
HETATM   21  C2  UNL     1      28.063   0.856  53.387  1.00  0.00    -0.176 C 
HETATM   22  C1  UNL     1      28.400   2.137  53.425  1.00  0.00     0.091 C 
ENDBRANCH  20  21
ENDBRANCH  19  20
ENDBRANCH  18  19
ENDBRANCH  17  18
ENDBRANCH   1  17
BRANCH   7  23
HETATM   23  O1  UNL     1      24.470   6.263  48.636  1.00  0.00    -0.360 OA
HETATM   24  H14 UNL     1      24.934   6.611  49.475  1.00  0.00     0.217 HD
ENDBRANCH   7  23
TORSDOF 6
ENDMDL
MODEL 4
REMARK VINA RESULT:      -6.9      4.553      6.239
REMARK  6 active torsions:
REMARK  status: ('A' for Active; 'I' for Inactive)
REMARK    1  A    between atoms: C2_2  and  C3_3 
REMARK    2  A    between atoms: C3_3  and  C4_4 
REMARK    3  A    between atoms: C4_4  and  C5_5 
REMARK    4  A    between atoms: C5_5  and  C6_6 
REMARK    5  A    between atoms: C6_6  and  C7_7 
REMARK    6  A    between atoms: C11_13  and  O1_14 
ROOT
HETATM    1  C7  UNL     1      23.939   0.061  53.744  1.00  0.00     0.207 C 
HETATM    2  N1  UNL     1      24.121   1.284  53.088  1.00  0.00    -0.257 NA
HETATM    3  C8  UNL     1      23.449   2.209  52.609  1.00  0.00     0.228 C 
HETATM    4  N2  UNL     1      22.234   2.776  52.332  1.00  0.00    -0.254 NA
HETATM    5  C9  UNL     1      21.799   3.877  52.145  1.00  0.00     0.120 C 
HETATM    6  C10 UNL     1      20.389   3.397  51.933  1.00  0.00     0.056 C 
HETATM    7  C11 UNL     1      19.419   2.430  51.851  1.00  0.00     0.079 C 
HETATM    8  C12 UNL     1      20.323   1.290  52.135  1.00  0.00     0.019 A 
HETATM    9  C13 UNL     1      20.356   1.177  53.499  1.00  0.00     0.018 A 
HETATM   10  C14 UNL     1      21.255   0.307  54.056  1.00  0.00     0.030 A 
HETATM   11  C15 UNL     1      21.852  -0.176  52.935  1.00  0.00     0.031 A 
HETATM   12  C16 UNL     1      21.901  -0.149  51.577  1.00  0.00     0.054 A 
HETATM   13  C17 UNL     1      20.962   0.752  51.051  1.00  0.00     0.049 A 
HETATM   14 CL1  UNL     1      20.555   1.216  49.418  1.00  0.00    -0.083 Cl
HETATM   15  N3  UNL     1      23.051  -0.928  53.141  1.00  0.00    -0.367 N 
HETATM   16  H18 UNL     1      23.236  -1.950  52.909  1.00  0.00     0.161 HD
ENDROOT
BRANCH   1  17
HETATM   17  C6  UNL     1      25.330  -0.563  53.934  1.00  0.00     0.049 C 
BRANCH  17  18
HETATM   18  C5  UNL     1      26.280  -0.212  52.836  1.00  0.00     0.005 C 
BRANCH  18  19
HETATM   19  C4  UNL     1      26.755  -1.516  52.224  1.00  0.00     0.017 C 
BRANCH  19  20
HETATM   20  C3  UNL     1      27.886  -2.100  52.970  1.00  0.00     0.066 C 
BRANCH  20  21
HETATM   21  C2  UNL     1      28.884  -1.325  53.362  1.00  0.00    -0.176 C 
HETATM   22  C1  UNL     1      29.912  -0.497  53.486  1.00  0.00     0.091 C 
ENDBRANCH  20  21
ENDBRANCH  19  20
ENDBRANCH  18  19
ENDBRANCH  17  18
ENDBRANCH   1  17
BRANCH   7  23
HETATM   23  O1  UNL     1      18.121   1.930  51.661  1.00  0.00    -0.360 OA
HETATM   24  H14 UNL     1      17.741   2.042  50.721  1.00  0.00     0.217 HD
ENDBRANCH   7  23
TORSDOF 6
ENDMDL
MODEL 5
REMARK VINA RESULT:      -6.8      3.108      6.940
REMARK  6 active torsions:
REMARK  status: ('A' for Active; 'I' for Inactive)
REMARK    1  A    between atoms: C2_2  and  C3_3 
REMARK    2  A    between atoms: C3_3  and  C4_4 
REMARK    3  A    between atoms: C4_4  and  C5_5 
REMARK    4  A    between atoms: C5_5  and  C6_6 
REMARK    5  A    between atoms: C6_6  and  C7_7 
REMARK    6  A    between atoms: C11_13  and  O1_14 
ROOT
HETATM    1  C7  UNL     1      25.247   1.754  53.222  1.00  0.00     0.207 C 
HETATM    2  N1  UNL     1      26.112   1.851  52.126  1.00  0.00    -0.257 NA
HETATM    3  C8  UNL     1      26.264   2.527  51.098  1.00  0.00     0.228 C 
HETATM    4  N2  UNL     1      25.858   3.538  50.270  1.00  0.00    -0.254 NA
HETATM    5  C9  UNL     1      26.359   4.267  49.461  1.00  0.00     0.120 C 
HETATM    6  C10 UNL     1      25.069   4.976  49.148  1.00  0.00     0.056 C 
HETATM    7  C11 UNL     1      23.725   5.205  49.298  1.00  0.00     0.079 C 
HETATM    8  C12 UNL     1      23.512   4.162  50.331  1.00  0.00     0.019 A 
HETATM    9  C13 UNL     1      23.774   4.772  51.527  1.00  0.00     0.018 A 
HETATM   10  C14 UNL     1      23.825   3.993  52.653  1.00  0.00     0.030 A 
HETATM   11  C15 UNL     1      23.571   2.771  52.116  1.00  0.00     0.031 A 
HETATM   12  C16 UNL     1      23.298   2.066  50.986  1.00  0.00     0.054 A 
HETATM   13  C17 UNL     1      23.254   2.903  49.861  1.00  0.00     0.049 A 
HETATM   14 CL1  UNL     1      22.954   2.594  48.169  1.00  0.00    -0.083 Cl
HETATM   15  N3  UNL     1      23.813   1.650  52.971  1.00  0.00    -0.367 N 
HETATM   16  H18 UNL     1      23.114   0.931  53.327  1.00  0.00     0.161 HD
ENDROOT
BRANCH   1  17
HETATM   17  C6  UNL     1      25.700   0.543  54.052  1.00  0.00     0.049 C 
BRANCH  17  18
HETATM   18  C5  UNL     1      24.771  -0.622  53.936  1.00  0.00     0.005 C 
BRANCH  18  19
HETATM   19  C4  UNL     1      24.483  -1.103  55.346  1.00  0.00     0.017 C 
BRANCH  19  20
HETATM   20  C3  UNL     1      23.072  -1.493  55.521  1.00  0.00     0.066 C 
BRANCH  20  21
HETATM   21  C2  UNL     1      22.121  -0.822  54.892  1.00  0.00    -0.176 C 
HETATM   22  C1  UNL     1      21.106  -0.058  54.514  1.00  0.00     0.091 C 
ENDBRANCH  20  21
ENDBRANCH  19  20
ENDBRANCH  18  19
ENDBRANCH  17  18
ENDBRANCH   1  17
BRANCH   7  23
HETATM   23  O1  UNL     1      22.495   5.833  49.043  1.00  0.00    -0.360 OA
HETATM   24  H14 UNL     1      22.235   6.571  49.697  1.00  0.00     0.217 HD
ENDBRANCH   7  23
TORSDOF 6
ENDMDL
MODEL 6
REMARK VINA RESULT:      -6.8      3.206      5.622
REMARK  6 active torsions:
REMARK  status: ('A' for Active; 'I' for Inactive)
REMARK    1  A    between atoms: C2_2  and  C3_3 
REMARK    2  A    between atoms: C3_3  and  C4_4 
REMARK    3  A    between atoms: C4_4  and  C5_5 
REMARK    4  A    between atoms: C5_5  and  C6_6 
REMARK    5  A    between atoms: C6_6  and  C7_7 
REMARK    6  A    between atoms: C11_13  and  O1_14 
ROOT
HETATM    1  C7  UNL     1      23.057   1.812  51.648  1.00  0.00     0.207 C 
HETATM    2  N1  UNL     1      22.903   0.573  52.282  1.00  0.00    -0.257 NA
HETATM    3  C8  UNL     1      23.453  -0.119  53.151  1.00  0.00     0.228 C 
HETATM    4  N2  UNL     1      24.452  -0.302  54.069  1.00  0.00    -0.254 NA
HETATM    5  C9  UNL     1      24.616  -0.928  55.077  1.00  0.00     0.120 C 
HETATM    6  C10 UNL     1      26.020  -0.430  55.282  1.00  0.00     0.056 C 
HETATM    7  C11 UNL     1      27.123   0.312  54.942  1.00  0.00     0.079 C 
HETATM    8  C12 UNL     1      26.530   0.904  53.718  1.00  0.00     0.019 A 
HETATM    9  C13 UNL     1      25.870   2.028  54.135  1.00  0.00     0.018 A 
HETATM   10  C14 UNL     1      25.078   2.686  53.232  1.00  0.00     0.030 A 
HETATM   11  C15 UNL     1      25.252   1.901  52.137  1.00  0.00     0.031 A 
HETATM   12  C16 UNL     1      25.864   0.805  51.616  1.00  0.00     0.054 A 
HETATM   13  C17 UNL     1      26.665   0.165  52.574  1.00  0.00     0.049 A 
HETATM   14 CL1  UNL     1      27.676  -1.258  52.510  1.00  0.00    -0.083 Cl
HETATM   15  N3  UNL     1      24.350   2.134  51.052  1.00  0.00    -0.367 N 
HETATM   16  H18 UNL     1      24.577   2.459  50.065  1.00  0.00     0.161 HD
ENDROOT
BRANCH   1  17
HETATM   17  C6  UNL     1      21.969   1.907  50.568  1.00  0.00     0.049 C 
BRANCH  17  18
HETATM   18  C5  UNL     1      21.329   0.591  50.269  1.00  0.00     0.005 C 
BRANCH  18  19
HETATM   19  C4  UNL     1      19.828   0.795  50.360  1.00  0.00     0.017 C 
BRANCH  19  20
HETATM   20  C3  UNL     1      19.357   0.834  51.756  1.00  0.00     0.066 C 
BRANCH  20  21
HETATM   21  C2  UNL     1      18.747  -0.220  52.274  1.00  0.00    -0.176 C 
HETATM   22  C1  UNL     1      17.916  -1.107  52.804  1.00  0.00     0.091 C 
ENDBRANCH  20  21
ENDBRANCH  19  20
ENDBRANCH  18  19
ENDBRANCH  17  18
ENDBRANCH   1  17
BRANCH   7  23
HETATM   23  O1  UNL     1      28.428   0.808  55.086  1.00  0.00    -0.360 OA
HETATM   24  H14 UNL     1      29.105   0.154  55.481  1.00  0.00     0.217 HD
ENDBRANCH   7  23
TORSDOF 6
ENDMDL
MODEL 7
REMARK VINA RESULT:      -6.8      4.146      8.180
REMARK  6 active torsions:
REMARK  status: ('A' for Active; 'I' for Inactive)
REMARK    1  A    between atoms: C2_2  and  C3_3 
REMARK    2  A    between atoms: C3_3  and  C4_4 
REMARK    3  A    between atoms: C4_4  and  C5_5 
REMARK    4  A    between atoms: C5_5  and  C6_6 
REMARK    5  A    between atoms: C6_6  and  C7_7 
REMARK    6  A    between atoms: C11_13  and  O1_14 
ROOT
HETATM    1  C7  UNL     1      20.093   1.008  50.958  1.00  0.00     0.207 C 
HETATM    2  N1  UNL     1      20.024   2.110  51.819  1.00  0.00    -0.257 NA
HETATM    3  C8  UNL     1      20.670   3.128  52.106  1.00  0.00     0.228 C 
HETATM    4  N2  UNL     1      21.761   3.934  51.922  1.00  0.00    -0.254 NA
HETATM    5  C9  UNL     1      22.037   5.090  52.080  1.00  0.00     0.120 C 
HETATM    6  C10 UNL     1      23.447   4.928  51.582  1.00  0.00     0.056 C 
HETATM    7  C11 UNL     1      24.498   4.204  51.079  1.00  0.00     0.079 C 
HETATM    8  C12 UNL     1      23.774   2.911  51.029  1.00  0.00     0.019 A 
HETATM    9  C13 UNL     1      23.144   2.888  49.815  1.00  0.00     0.018 A 
HETATM   10  C14 UNL     1      22.253   1.878  49.566  1.00  0.00     0.030 A 
HETATM   11  C15 UNL     1      22.326   1.195  50.738  1.00  0.00     0.031 A 
HETATM   12  C16 UNL     1      22.897   1.116  51.969  1.00  0.00     0.054 A 
HETATM   13  C17 UNL     1      23.802   2.168  52.179  1.00  0.00     0.049 A 
HETATM   14 CL1  UNL     1      24.822   2.598  53.529  1.00  0.00    -0.083 Cl
HETATM   15  N3  UNL     1      21.314   0.206  50.949  1.00  0.00    -0.367 N 
HETATM   16  H18 UNL     1      21.433  -0.844  51.067  1.00  0.00     0.161 HD
ENDROOT
BRANCH   1  17
HETATM   17  C6  UNL     1      18.899   0.099  51.286  1.00  0.00     0.049 C 
BRANCH  17  18
HETATM   18  C5  UNL     1      18.898  -0.371  52.704  1.00  0.00     0.005 C 
BRANCH  18  19
HETATM   19  C4  UNL     1      17.712  -1.303  52.863  1.00  0.00     0.017 C 
BRANCH  19  20
HETATM   20  C3  UNL     1      18.031  -2.468  53.709  1.00  0.00     0.066 C 
BRANCH  20  21
HETATM   21  C2  UNL     1      17.335  -3.586  53.578  1.00  0.00    -0.176 C 
HETATM   22  C1  UNL     1      16.496  -4.608  53.661  1.00  0.00     0.091 C 
ENDBRANCH  20  21
ENDBRANCH  19  20
ENDBRANCH  18  19
ENDBRANCH  17  18
ENDBRANCH   1  17
BRANCH   7  23
HETATM   23  O1  UNL     1      25.804   3.999  50.607  1.00  0.00    -0.360 OA
HETATM   24  H14 UNL     1      26.426   3.498  51.240  1.00  0.00     0.217 HD
ENDBRANCH   7  23
TORSDOF 6
ENDMDL
MODEL 8
REMARK VINA RESULT:      -6.8      2.636      3.435
REMARK  6 active torsions:
REMARK  status: ('A' for Active; 'I' for Inactive)
REMARK    1  A    between atoms: C2_2  and  C3_3 
REMARK    2  A    between atoms: C3_3  and  C4_4 
REMARK    3  A    between atoms: C4_4  and  C5_5 
REMARK    4  A    between atoms: C5_5  and  C6_6 
REMARK    5  A    between atoms: C6_6  and  C7_7 
REMARK    6  A    between atoms: C11_13  and  O1_14 
ROOT
HETATM    1  C7  UNL     1      23.376   5.667  50.508  1.00  0.00     0.207 C 
HETATM    2  N1  UNL     1      23.416   4.611  49.590  1.00  0.00    -0.257 NA
HETATM    3  C8  UNL     1      23.057   3.428  49.494  1.00  0.00     0.228 C 
HETATM    4  N2  UNL     1      22.452   2.322  50.028  1.00  0.00    -0.254 NA
HETATM    5  C9  UNL     1      21.901   1.339  49.622  1.00  0.00     0.120 C 
HETATM    6  C10 UNL     1      21.624   0.799  50.998  1.00  0.00     0.056 C 
HETATM    7  C11 UNL     1      21.669   0.845  52.368  1.00  0.00     0.079 C 
HETATM    8  C12 UNL     1      22.381   2.143  52.449  1.00  0.00     0.019 A 
HETATM    9  C13 UNL     1      21.403   3.101  52.423  1.00  0.00     0.018 A 
HETATM   10  C14 UNL     1      21.784   4.412  52.310  1.00  0.00     0.030 A 
HETATM   11  C15 UNL     1      23.133   4.270  52.257  1.00  0.00     0.031 A 
HETATM   12  C16 UNL     1      24.183   3.406  52.278  1.00  0.00     0.054 A 
HETATM   13  C17 UNL     1      23.747   2.078  52.398  1.00  0.00     0.049 A 
HETATM   14 CL1  UNL     1      24.600   0.556  52.479  1.00  0.00    -0.083 Cl
HETATM   15  N3  UNL     1      23.869   5.432  51.863  1.00  0.00    -0.367 N 
HETATM   16  H18 UNL     1      24.589   5.977  52.424  1.00  0.00     0.161 HD
ENDROOT
BRANCH   1  17
HETATM   17  C6  UNL     1      24.155   6.837  49.888  1.00  0.00     0.049 C 
BRANCH  17  18
HETATM   18  C5  UNL     1      25.634   6.704  50.053  1.00  0.00     0.005 C 
BRANCH  18  19
HETATM   19  C4  UNL     1      26.225   6.557  48.663  1.00  0.00     0.017 C 
BRANCH  19  20
HETATM   20  C3  UNL     1      27.303   5.551  48.622  1.00  0.00     0.066 C 
BRANCH  20  21
HETATM   21  C2  UNL     1      27.067   4.318  49.039  1.00  0.00    -0.176 C 
HETATM   22  C1  UNL     1      26.652   3.205  49.626  1.00  0.00     0.091 C 
ENDBRANCH  20  21
ENDBRANCH  19  20
ENDBRANCH  18  19
ENDBRANCH  17  18
ENDBRANCH   1  17
BRANCH   7  23
HETATM   23  O1  UNL     1      21.436   0.386  53.675  1.00  0.00    -0.360 OA
HETATM   24  H14 UNL     1      21.742  -0.569  53.866  1.00  0.00     0.217 HD
ENDBRANCH   7  23
TORSDOF 6
ENDMDL
MODEL 9
REMARK VINA RESULT:      -6.6      6.090      9.361
REMARK  6 active torsions:
REMARK  status: ('A' for Active; 'I' for Inactive)
REMARK    1  A    between atoms: C2_2  and  C3_3 
REMARK    2  A    between atoms: C3_3  and  C4_4 
REMARK    3  A    between atoms: C4_4  and  C5_5 
REMARK    4  A    between atoms: C5_5  and  C6_6 
REMARK    5  A    between atoms: C6_6  and  C7_7 
REMARK    6  A    between atoms: C11_13  and  O1_14 
ROOT
HETATM    1  C7  UNL     1      29.836   7.652  47.842  1.00  0.00     0.207 C 
HETATM    2  N1  UNL     1      30.590   7.606  46.663  1.00  0.00    -0.257 NA
HETATM    3  C8  UNL     1      31.633   7.097  46.228  1.00  0.00     0.228 C 
HETATM    4  N2  UNL     1      32.742   6.316  46.413  1.00  0.00    -0.254 NA
HETATM    5  C9  UNL     1      33.482   5.663  45.733  1.00  0.00     0.120 C 
HETATM    6  C10 UNL     1      34.335   5.230  46.893  1.00  0.00     0.056 C 
HETATM    7  C11 UNL     1      34.678   5.195  48.221  1.00  0.00     0.079 C 
HETATM    8  C12 UNL     1      33.572   6.069  48.682  1.00  0.00     0.019 A 
HETATM    9  C13 UNL     1      32.512   5.233  48.907  1.00  0.00     0.018 A 
HETATM   10  C14 UNL     1      31.292   5.794  49.178  1.00  0.00     0.030 A 
HETATM   11  C15 UNL     1      31.611   7.113  49.117  1.00  0.00     0.031 A 
HETATM   12  C16 UNL     1      32.592   8.032  48.916  1.00  0.00     0.054 A 
HETATM   13  C17 UNL     1      33.822   7.414  48.645  1.00  0.00     0.049 A 
HETATM   14 CL1  UNL     1      35.415   8.046  48.311  1.00  0.00    -0.083 Cl
HETATM   15  N3  UNL     1      30.507   8.022  49.085  1.00  0.00    -0.367 N 
HETATM   16  H18 UNL     1      30.251   8.772  49.794  1.00  0.00     0.161 HD
ENDROOT
BRANCH   1  17
HETATM   17  C6  UNL     1      28.668   8.619  47.596  1.00  0.00     0.049 C 
BRANCH  17  18
HETATM   18  C5  UNL     1      27.352   8.065  48.033  1.00  0.00     0.005 C 
BRANCH  18  19
HETATM   19  C4  UNL     1      27.529   6.566  48.189  1.00  0.00     0.017 C 
BRANCH  19  20
HETATM   20  C3  UNL     1      26.395   5.943  48.895  1.00  0.00     0.066 C 
BRANCH  20  21
HETATM   21  C2  UNL     1      26.411   4.645  49.148  1.00  0.00    -0.176 C 
HETATM   22  C1  UNL     1      26.639   3.408  49.568  1.00  0.00     0.091 C 
ENDBRANCH  20  21
ENDBRANCH  19  20
ENDBRANCH  18  19
ENDBRANCH  17  18
ENDBRANCH   1  17
BRANCH   7  23
HETATM   23  O1  UNL     1      35.441   4.820  49.338  1.00  0.00    -0.360 OA
HETATM   24  H14 UNL     1      35.470   5.500  50.098  1.00  0.00     0.217 HD
ENDBRANCH   7  23
TORSDOF 6
ENDMDL
