MODEL 1
REMARK VINA RESULT:      -7.8      0.000      0.000
REMARK  7 active torsions:
REMARK  status: ('A' for Active; 'I' for Inactive)
REMARK    1  A    between atoms: C5_6  and  C6_7 
REMARK    2  A    between atoms: C6_7  and  C7_8 
REMARK    3  A    between atoms: C10_13  and  C11_14 
REMARK    4  A    between atoms: C11_14  and  O1_15 
REMARK    5  A    between atoms: O1_15  and  C12_16 
REMARK    6  A    between atoms: C12_16  and  C13_17 
REMARK    7  A    between atoms: C13_17  and  C14_18 
ROOT
HETATM    1  C7  UNL     1      23.307   4.843  50.408  1.00  0.00     0.060 A 
HETATM    2  N1  UNL     1      23.781   5.265  51.531  1.00  0.00    -0.247 NA
HETATM    3  C8  UNL     1      23.799   4.456  52.684  1.00  0.00     0.233 A 
HETATM    4  N2  UNL     1      23.334   3.244  52.657  1.00  0.00    -0.243 NA
HETATM    5  C9  UNL     1      22.800   2.740  51.440  1.00  0.00     0.076 A 
HETATM    6  C10 UNL     1      22.353   1.498  51.528  1.00  0.00     0.030 C 
HETATM    7  C18 UNL     1      22.728   3.492  50.163  1.00  0.00     0.166 A 
HETATM    8  C19 UNL     1      21.263   3.681  49.833  1.00  0.00     0.218 C 
HETATM    9  O3  UNL     1      21.008   3.965  48.516  1.00  0.00    -0.385 OA
HETATM   10  C20 UNL     1      21.765   3.266  47.610  1.00  0.00     0.194 C 
HETATM   11  C21 UNL     1      22.652   2.232  48.222  1.00  0.00     0.196 C 
HETATM   12  O4  UNL     1      23.433   2.802  49.195  1.00  0.00    -0.363 OA
ENDROOT
BRANCH   6  13
HETATM   13  C11 UNL     1      22.413   0.724  52.791  1.00  0.00     0.197 C 
BRANCH  13  14
HETATM   14  O1  UNL     1      23.397  -0.241  52.762  1.00  0.00    -0.387 OA
BRANCH  14  15
HETATM   15  C12 UNL     1      24.510   0.033  53.527  1.00  0.00     0.169 C 
BRANCH  15  16
HETATM   16  C13 UNL     1      25.614  -0.970  53.357  1.00  0.00     0.041 C 
BRANCH  16  17
HETATM   17  C14 UNL     1      26.846  -0.232  52.873  1.00  0.00     0.053 C 
HETATM   18  C15 UNL     1      26.483   0.989  52.067  1.00  0.00     0.041 C 
HETATM   19  C16 UNL     1      26.992   2.199  52.823  1.00  0.00     0.169 C 
HETATM   20  O2  UNL     1      28.385   2.207  52.679  1.00  0.00    -0.381 OA
HETATM   21  C17 UNL     1      28.956   1.564  53.780  1.00  0.00     0.241 C 
HETATM   22  S1  UNL     1      27.739   0.334  54.358  1.00  0.00    -0.138 SA
ENDBRANCH  16  17
ENDBRANCH  15  16
ENDBRANCH  14  15
ENDBRANCH  13  14
ENDBRANCH   6  13
BRANCH   1  23
HETATM   23  C6  UNL     1      23.301   5.710  49.223  1.00  0.00     0.097 C 
BRANCH  23  24
HETATM   24  C5  UNL     1      24.685   6.080  48.879  1.00  0.00    -0.050 A 
HETATM   25  C4  UNL     1      25.040   7.375  48.501  1.00  0.00     0.007 A 
HETATM   26  C3  UNL     1      26.329   7.728  48.180  1.00  0.00     0.004 A 
HETATM   27  C2  UNL     1      27.313   6.745  48.237  1.00  0.00     0.042 A 
HETATM   28  C1  UNL     1      27.020   5.440  48.606  1.00  0.00     0.116 A 
HETATM   29  F1  UNL     1      27.991   4.504  48.654  1.00  0.00    -0.206 F 
HETATM   30  C22 UNL     1      25.709   5.144  48.918  1.00  0.00     0.049 A 
ENDBRANCH  23  24
ENDBRANCH   1  23
TORSDOF 7
ENDMDL
MODEL 2
REMARK VINA RESULT:      -7.7      3.543      6.697
REMARK  7 active torsions:
REMARK  status: ('A' for Active; 'I' for Inactive)
REMARK    1  A    between atoms: C5_6  and  C6_7 
REMARK    2  A    between atoms: C6_7  and  C7_8 
REMARK    3  A    between atoms: C10_13  and  C11_14 
REMARK    4  A    between atoms: C11_14  and  O1_15 
REMARK    5  A    between atoms: O1_15  and  C12_16 
REMARK    6  A    between atoms: C12_16  and  C13_17 
REMARK    7  A    between atoms: C13_17  and  C14_18 
ROOT
HETATM    1  C7  UNL     1      24.841   0.659  52.612  1.00  0.00     0.060 A 
HETATM    2  N1  UNL     1      24.932  -0.315  53.454  1.00  0.00    -0.247 NA
HETATM    3  C8  UNL     1      23.810  -0.811  54.145  1.00  0.00     0.233 A 
HETATM    4  N2  UNL     1      22.631  -0.299  53.958  1.00  0.00    -0.243 NA
HETATM    5  C9  UNL     1      22.486   0.776  53.040  1.00  0.00     0.076 A 
HETATM    6  C10 UNL     1      21.244   1.219  52.931  1.00  0.00     0.030 C 
HETATM    7  C18 UNL     1      23.588   1.382  52.254  1.00  0.00     0.166 A 
HETATM    8  C19 UNL     1      23.744   2.813  52.722  1.00  0.00     0.218 C 
HETATM    9  O3  UNL     1      24.399   3.632  51.839  1.00  0.00    -0.385 OA
HETATM   10  C20 UNL     1      24.085   3.440  50.517  1.00  0.00     0.194 C 
HETATM   11  C21 UNL     1      22.992   2.448  50.287  1.00  0.00     0.196 C 
HETATM   12  O4  UNL     1      23.297   1.264  50.908  1.00  0.00    -0.363 OA
ENDROOT
BRANCH   6  13
HETATM   13  C11 UNL     1      20.124   0.633  53.705  1.00  0.00     0.197 C 
BRANCH  13  14
HETATM   14  O1  UNL     1      19.449  -0.331  52.989  1.00  0.00    -0.387 OA
BRANCH  14  15
HETATM   15  C12 UNL     1      19.042   0.051  51.729  1.00  0.00     0.169 C 
BRANCH  15  16
HETATM   16  C13 UNL     1      17.684   0.690  51.708  1.00  0.00     0.041 C 
BRANCH  16  17
HETATM   17  C14 UNL     1      17.748   1.894  50.789  1.00  0.00     0.053 C 
HETATM   18  C15 UNL     1      17.913   3.177  51.562  1.00  0.00     0.041 C 
HETATM   19  C16 UNL     1      19.253   3.770  51.176  1.00  0.00     0.169 C 
HETATM   20  O2  UNL     1      19.111   4.274  49.877  1.00  0.00    -0.381 OA
HETATM   21  C17 UNL     1      19.536   3.304  48.967  1.00  0.00     0.241 C 
HETATM   22  S1  UNL     1      19.230   1.684  49.748  1.00  0.00    -0.138 SA
ENDBRANCH  16  17
ENDBRANCH  15  16
ENDBRANCH  14  15
ENDBRANCH  13  14
ENDBRANCH   6  13
BRANCH   1  23
HETATM   23  C6  UNL     1      26.030   1.155  51.906  1.00  0.00     0.097 C 
BRANCH  23  24
HETATM   24  C5  UNL     1      27.238   0.805  52.674  1.00  0.00    -0.050 A 
HETATM   25  C4  UNL     1      27.720  -0.502  52.753  1.00  0.00     0.007 A 
HETATM   26  C3  UNL     1      28.847  -0.835  53.467  1.00  0.00     0.004 A 
HETATM   27  C2  UNL     1      29.526   0.180  54.134  1.00  0.00     0.042 A 
HETATM   28  C1  UNL     1      29.093   1.498  54.093  1.00  0.00     0.116 A 
HETATM   29  F1  UNL     1      29.769   2.465  54.749  1.00  0.00    -0.206 F 
HETATM   30  C22 UNL     1      27.958   1.773  53.360  1.00  0.00     0.049 A 
ENDBRANCH  23  24
ENDBRANCH   1  23
TORSDOF 7
ENDMDL
MODEL 3
REMARK VINA RESULT:      -7.6      4.643      7.715
REMARK  7 active torsions:
REMARK  status: ('A' for Active; 'I' for Inactive)
REMARK    1  A    between atoms: C5_6  and  C6_7 
REMARK    2  A    between atoms: C6_7  and  C7_8 
REMARK    3  A    between atoms: C10_13  and  C11_14 
REMARK    4  A    between atoms: C11_14  and  O1_15 
REMARK    5  A    between atoms: O1_15  and  C12_16 
REMARK    6  A    between atoms: C12_16  and  C13_17 
REMARK    7  A    between atoms: C13_17  and  C14_18 
ROOT
HETATM    1  C7  UNL     1      23.037   0.394  52.956  1.00  0.00     0.060 A 
HETATM    2  N1  UNL     1      23.206  -0.367  53.985  1.00  0.00    -0.247 NA
HETATM    3  C8  UNL     1      22.144  -1.094  54.557  1.00  0.00     0.233 A 
HETATM    4  N2  UNL     1      20.945  -1.023  54.066  1.00  0.00    -0.243 NA
HETATM    5  C9  UNL     1      20.714  -0.196  52.933  1.00  0.00     0.076 A 
HETATM    6  C10 UNL     1      19.458  -0.198  52.519  1.00  0.00     0.030 C 
HETATM    7  C18 UNL     1      21.748   0.614  52.243  1.00  0.00     0.166 A 
HETATM    8  C19 UNL     1      21.376   2.070  52.422  1.00  0.00     0.218 C 
HETATM    9  O3  UNL     1      21.955   2.921  51.517  1.00  0.00    -0.385 OA
HETATM   10  C20 UNL     1      22.022   2.450  50.230  1.00  0.00     0.194 C 
HETATM   11  C21 UNL     1      21.343   1.136  50.024  1.00  0.00     0.196 C 
HETATM   12  O4  UNL     1      21.821   0.216  50.921  1.00  0.00    -0.363 OA
ENDROOT
BRANCH   6  13
HETATM   13  C11 UNL     1      18.405  -0.997  53.191  1.00  0.00     0.197 C 
BRANCH  13  14
HETATM   14  O1  UNL     1      17.142  -0.657  52.757  1.00  0.00    -0.387 OA
BRANCH  14  15
HETATM   15  C12 UNL     1      17.010  -0.509  51.394  1.00  0.00     0.169 C 
BRANCH  15  16
HETATM   16  C13 UNL     1      16.121   0.636  51.000  1.00  0.00     0.041 C 
BRANCH  16  17
HETATM   17  C14 UNL     1      16.303   1.742  52.021  1.00  0.00     0.053 C 
HETATM   18  C15 UNL     1      17.189   2.843  51.498  1.00  0.00     0.041 C 
HETATM   19  C16 UNL     1      16.348   4.101  51.417  1.00  0.00     0.169 C 
HETATM   20  O2  UNL     1      16.151   4.539  52.733  1.00  0.00    -0.381 OA
HETATM   21  C17 UNL     1      14.937   4.032  53.200  1.00  0.00     0.241 C 
HETATM   22  S1  UNL     1      14.654   2.458  52.322  1.00  0.00    -0.138 SA
ENDBRANCH  16  17
ENDBRANCH  15  16
ENDBRANCH  14  15
ENDBRANCH  13  14
ENDBRANCH   6  13
BRANCH   1  23
HETATM   23  C6  UNL     1      24.164   1.139  52.381  1.00  0.00     0.097 C 
BRANCH  23  24
HETATM   24  C5  UNL     1      25.431   0.564  52.865  1.00  0.00    -0.050 A 
HETATM   25  C4  UNL     1      26.279   1.251  53.735  1.00  0.00     0.007 A 
HETATM   26  C3  UNL     1      27.462   0.720  54.191  1.00  0.00     0.004 A 
HETATM   27  C2  UNL     1      27.819  -0.555  53.761  1.00  0.00     0.042 A 
HETATM   28  C1  UNL     1      27.017  -1.286  52.897  1.00  0.00     0.116 A 
HETATM   29  F1  UNL     1      27.385  -2.520  52.494  1.00  0.00    -0.206 F 
HETATM   30  C22 UNL     1      25.841  -0.703  52.473  1.00  0.00     0.049 A 
ENDBRANCH  23  24
ENDBRANCH   1  23
TORSDOF 7
ENDMDL
MODEL 4
REMARK VINA RESULT:      -7.5      4.074      7.294
REMARK  7 active torsions:
REMARK  status: ('A' for Active; 'I' for Inactive)
REMARK    1  A    between atoms: C5_6  and  C6_7 
REMARK    2  A    between atoms: C6_7  and  C7_8 
REMARK    3  A    between atoms: C10_13  and  C11_14 
REMARK    4  A    between atoms: C11_14  and  O1_15 
REMARK    5  A    between atoms: O1_15  and  C12_16 
REMARK    6  A    between atoms: C12_16  and  C13_17 
REMARK    7  A    between atoms: C13_17  and  C14_18 
ROOT
HETATM    1  C7  UNL     1      26.138   4.735  49.204  1.00  0.00     0.060 A 
HETATM    2  N1  UNL     1      27.303   4.333  48.823  1.00  0.00    -0.247 NA
HETATM    3  C8  UNL     1      28.327   5.234  48.473  1.00  0.00     0.233 A 
HETATM    4  N2  UNL     1      28.132   6.517  48.522  1.00  0.00    -0.243 NA
HETATM    5  C9  UNL     1      26.863   7.004  48.936  1.00  0.00     0.076 A 
HETATM    6  C10 UNL     1      26.777   8.324  48.947  1.00  0.00     0.030 C 
HETATM    7  C18 UNL     1      25.710   6.157  49.330  1.00  0.00     0.166 A 
HETATM    8  C19 UNL     1      24.612   6.389  48.315  1.00  0.00     0.218 C 
HETATM    9  O3  UNL     1      23.358   6.035  48.742  1.00  0.00    -0.385 OA
HETATM   10  C20 UNL     1      23.075   6.347  50.048  1.00  0.00     0.194 C 
HETATM   11  C21 UNL     1      24.148   7.125  50.738  1.00  0.00     0.196 C 
HETATM   12  O4  UNL     1      25.346   6.469  50.627  1.00  0.00    -0.363 OA
ENDROOT
BRANCH   6  13
HETATM   13  C11 UNL     1      27.913   9.194  48.558  1.00  0.00     0.197 C 
BRANCH  13  14
HETATM   14  O1  UNL     1      28.638   9.618  49.650  1.00  0.00    -0.387 OA
BRANCH  14  15
HETATM   15  C12 UNL     1      30.007   9.569  49.500  1.00  0.00     0.169 C 
BRANCH  15  16
HETATM   16  C13 UNL     1      30.443   9.239  48.101  1.00  0.00     0.041 C 
BRANCH  16  17
HETATM   17  C14 UNL     1      31.690   8.382  48.190  1.00  0.00     0.053 C 
HETATM   18  C15 UNL     1      31.867   7.796  49.568  1.00  0.00     0.041 C 
HETATM   19  C16 UNL     1      31.767   6.291  49.436  1.00  0.00     0.169 C 
HETATM   20  O2  UNL     1      32.952   5.860  48.825  1.00  0.00    -0.381 OA
HETATM   21  C17 UNL     1      32.741   5.765  47.448  1.00  0.00     0.241 C 
HETATM   22  S1  UNL     1      31.461   6.996  47.028  1.00  0.00    -0.138 SA
ENDBRANCH  16  17
ENDBRANCH  15  16
ENDBRANCH  14  15
ENDBRANCH  13  14
ENDBRANCH   6  13
BRANCH   1  23
HETATM   23  C6  UNL     1      25.090   3.771  49.563  1.00  0.00     0.097 C 
BRANCH  23  24
HETATM   24  C5  UNL     1      25.370   3.217  50.899  1.00  0.00    -0.050 A 
HETATM   25  C4  UNL     1      24.467   3.325  51.956  1.00  0.00     0.007 A 
HETATM   26  C3  UNL     1      24.721   2.810  53.205  1.00  0.00     0.004 A 
HETATM   27  C2  UNL     1      25.932   2.155  53.412  1.00  0.00     0.042 A 
HETATM   28  C1  UNL     1      26.869   2.017  52.399  1.00  0.00     0.116 A 
HETATM   29  F1  UNL     1      28.037   1.378  52.624  1.00  0.00    -0.206 F 
HETATM   30  C22 UNL     1      26.559   2.553  51.167  1.00  0.00     0.049 A 
ENDBRANCH  23  24
ENDBRANCH   1  23
TORSDOF 7
ENDMDL
MODEL 5
REMARK VINA RESULT:      -7.5      3.324      6.754
REMARK  7 active torsions:
REMARK  status: ('A' for Active; 'I' for Inactive)
REMARK    1  A    between atoms: C5_6  and  C6_7 
REMARK    2  A    between atoms: C6_7  and  C7_8 
REMARK    3  A    between atoms: C10_13  and  C11_14 
REMARK    4  A    between atoms: C11_14  and  O1_15 
REMARK    5  A    between atoms: O1_15  and  C12_16 
REMARK    6  A    between atoms: C12_16  and  C13_17 
REMARK    7  A    between atoms: C13_17  and  C14_18 
ROOT
HETATM    1  C7  UNL     1      25.569   2.420  51.115  1.00  0.00     0.060 A 
HETATM    2  N1  UNL     1      26.690   2.629  50.511  1.00  0.00    -0.247 NA
HETATM    3  C8  UNL     1      26.833   3.624  49.526  1.00  0.00     0.233 A 
HETATM    4  N2  UNL     1      25.830   4.375  49.184  1.00  0.00    -0.243 NA
HETATM    5  C9  UNL     1      24.575   4.178  49.823  1.00  0.00     0.076 A 
HETATM    6  C10 UNL     1      23.626   4.995  49.397  1.00  0.00     0.030 C 
HETATM    7  C18 UNL     1      24.302   3.166  50.873  1.00  0.00     0.166 A 
HETATM    8  C19 UNL     1      23.301   2.185  50.305  1.00  0.00     0.218 C 
HETATM    9  O3  UNL     1      22.623   1.454  51.247  1.00  0.00    -0.385 OA
HETATM   10  C20 UNL     1      22.244   2.150  52.367  1.00  0.00     0.194 C 
HETATM   11  C21 UNL     1      22.539   3.613  52.306  1.00  0.00     0.196 C 
HETATM   12  O4  UNL     1      23.864   3.812  52.015  1.00  0.00    -0.363 OA
ENDROOT
BRANCH   6  13
HETATM   13  C11 UNL     1      23.872   6.014  48.348  1.00  0.00     0.197 C 
BRANCH  13  14
HETATM   14  O1  UNL     1      23.657   7.294  48.810  1.00  0.00    -0.387 OA
BRANCH  14  15
HETATM   15  C12 UNL     1      24.762   8.117  48.792  1.00  0.00     0.169 C 
BRANCH  15  16
HETATM   16  C13 UNL     1      25.860   7.625  47.892  1.00  0.00     0.041 C 
BRANCH  16  17
HETATM   17  C14 UNL     1      27.150   7.622  48.688  1.00  0.00     0.053 C 
HETATM   18  C15 UNL     1      28.221   6.807  48.008  1.00  0.00     0.041 C 
HETATM   19  C16 UNL     1      29.345   7.754  47.640  1.00  0.00     0.169 C 
HETATM   20  O2  UNL     1      29.999   8.086  48.833  1.00  0.00    -0.381 OA
HETATM   21  C17 UNL     1      29.463   9.278  49.325  1.00  0.00     0.241 C 
HETATM   22  S1  UNL     1      27.731   9.348  48.756  1.00  0.00    -0.138 SA
ENDBRANCH  16  17
ENDBRANCH  15  16
ENDBRANCH  14  15
ENDBRANCH  13  14
ENDBRANCH   6  13
BRANCH   1  23
HETATM   23  C6  UNL     1      25.450   1.374  52.139  1.00  0.00     0.097 C 
BRANCH  23  24
HETATM   24  C5  UNL     1      26.774   1.117  52.732  1.00  0.00    -0.050 A 
HETATM   25  C4  UNL     1      27.529   2.121  53.339  1.00  0.00     0.007 A 
HETATM   26  C3  UNL     1      28.764   1.888  53.896  1.00  0.00     0.004 A 
HETATM   27  C2  UNL     1      29.274   0.594  53.845  1.00  0.00     0.042 A 
HETATM   28  C1  UNL     1      28.570  -0.446  53.255  1.00  0.00     0.116 A 
HETATM   29  F1  UNL     1      29.085  -1.693  53.218  1.00  0.00    -0.206 F 
HETATM   30  C22 UNL     1      27.335  -0.153  52.714  1.00  0.00     0.049 A 
ENDBRANCH  23  24
ENDBRANCH   1  23
TORSDOF 7
ENDMDL
MODEL 6
REMARK VINA RESULT:      -7.5      4.366      7.602
REMARK  7 active torsions:
REMARK  status: ('A' for Active; 'I' for Inactive)
REMARK    1  A    between atoms: C5_6  and  C6_7 
REMARK    2  A    between atoms: C6_7  and  C7_8 
REMARK    3  A    between atoms: C10_13  and  C11_14 
REMARK    4  A    between atoms: C11_14  and  O1_15 
REMARK    5  A    between atoms: O1_15  and  C12_16 
REMARK    6  A    between atoms: C12_16  and  C13_17 
REMARK    7  A    between atoms: C13_17  and  C14_18 
ROOT
HETATM    1  C7  UNL     1      24.796   0.679  52.587  1.00  0.00     0.060 A 
HETATM    2  N1  UNL     1      24.854  -0.314  53.410  1.00  0.00    -0.247 NA
HETATM    3  C8  UNL     1      23.709  -0.809  54.063  1.00  0.00     0.233 A 
HETATM    4  N2  UNL     1      22.541  -0.278  53.859  1.00  0.00    -0.243 NA
HETATM    5  C9  UNL     1      22.433   0.818  52.961  1.00  0.00     0.076 A 
HETATM    6  C10 UNL     1      21.200   1.280  52.831  1.00  0.00     0.030 C 
HETATM    7  C18 UNL     1      23.561   1.426  52.215  1.00  0.00     0.166 A 
HETATM    8  C19 UNL     1      23.723   2.844  52.717  1.00  0.00     0.218 C 
HETATM    9  O3  UNL     1      24.411   3.673  51.868  1.00  0.00    -0.385 OA
HETATM   10  C20 UNL     1      24.126   3.513  50.535  1.00  0.00     0.194 C 
HETATM   11  C21 UNL     1      23.027   2.540  50.257  1.00  0.00     0.196 C 
HETATM   12  O4  UNL     1      23.302   1.340  50.860  1.00  0.00    -0.363 OA
ENDROOT
BRANCH   6  13
HETATM   13  C11 UNL     1      20.053   0.692  53.566  1.00  0.00     0.197 C 
BRANCH  13  14
HETATM   14  O1  UNL     1      19.269  -0.098  52.754  1.00  0.00    -0.387 OA
BRANCH  14  15
HETATM   15  C12 UNL     1      18.617  -1.130  53.393  1.00  0.00     0.169 C 
BRANCH  15  16
HETATM   16  C13 UNL     1      17.254  -1.415  52.831  1.00  0.00     0.041 C 
BRANCH  16  17
HETATM   17  C14 UNL     1      16.809  -0.199  52.045  1.00  0.00     0.053 C 
HETATM   18  C15 UNL     1      16.662  -0.508  50.577  1.00  0.00     0.041 C 
HETATM   19  C16 UNL     1      15.202  -0.325  50.219  1.00  0.00     0.169 C 
HETATM   20  O2  UNL     1      14.958   1.055  50.212  1.00  0.00    -0.381 OA
HETATM   21  C17 UNL     1      14.462   1.431  51.462  1.00  0.00     0.241 C 
HETATM   22  S1  UNL     1      15.163   0.264  52.677  1.00  0.00    -0.138 SA
ENDBRANCH  16  17
ENDBRANCH  15  16
ENDBRANCH  14  15
ENDBRANCH  13  14
ENDBRANCH   6  13
BRANCH   1  23
HETATM   23  C6  UNL     1      26.007   1.174  51.921  1.00  0.00     0.097 C 
BRANCH  23  24
HETATM   24  C5  UNL     1      27.194   0.758  52.689  1.00  0.00    -0.050 A 
HETATM   25  C4  UNL     1      27.629  -0.567  52.734  1.00  0.00     0.007 A 
HETATM   26  C3  UNL     1      28.735  -0.961  53.448  1.00  0.00     0.004 A 
HETATM   27  C2  UNL     1      29.443   0.008  54.152  1.00  0.00     0.042 A 
HETATM   28  C1  UNL     1      29.058   1.341  54.146  1.00  0.00     0.116 A 
HETATM   29  F1  UNL     1      29.761   2.264  54.837  1.00  0.00    -0.206 F 
HETATM   30  C22 UNL     1      27.941   1.679  53.411  1.00  0.00     0.049 A 
ENDBRANCH  23  24
ENDBRANCH   1  23
TORSDOF 7
ENDMDL
MODEL 7
REMARK VINA RESULT:      -7.5      3.042      6.634
REMARK  7 active torsions:
REMARK  status: ('A' for Active; 'I' for Inactive)
REMARK    1  A    between atoms: C5_6  and  C6_7 
REMARK    2  A    between atoms: C6_7  and  C7_8 
REMARK    3  A    between atoms: C10_13  and  C11_14 
REMARK    4  A    between atoms: C11_14  and  O1_15 
REMARK    5  A    between atoms: O1_15  and  C12_16 
REMARK    6  A    between atoms: C12_16  and  C13_17 
REMARK    7  A    between atoms: C13_17  and  C14_18 
ROOT
HETATM    1  C7  UNL     1      24.639   2.572  51.815  1.00  0.00     0.060 A 
HETATM    2  N1  UNL     1      25.764   2.969  51.324  1.00  0.00    -0.247 NA
HETATM    3  C8  UNL     1      25.841   3.669  50.105  1.00  0.00     0.233 A 
HETATM    4  N2  UNL     1      24.770   3.942  49.423  1.00  0.00    -0.243 NA
HETATM    5  C9  UNL     1      23.509   3.521  49.926  1.00  0.00     0.076 A 
HETATM    6  C10 UNL     1      22.489   3.851  49.150  1.00  0.00     0.030 C 
HETATM    7  C18 UNL     1      23.300   2.781  51.195  1.00  0.00     0.166 A 
HETATM    8  C19 UNL     1      22.750   1.418  50.836  1.00  0.00     0.218 C 
HETATM    9  O3  UNL     1      22.109   0.775  51.864  1.00  0.00    -0.385 OA
HETATM   10  C20 UNL     1      21.323   1.575  52.655  1.00  0.00     0.194 C 
HETATM   11  C21 UNL     1      21.216   2.988  52.182  1.00  0.00     0.196 C 
HETATM   12  O4  UNL     1      22.468   3.521  52.014  1.00  0.00    -0.363 OA
ENDROOT
BRANCH   6  13
HETATM   13  C11 UNL     1      22.670   4.589  47.877  1.00  0.00     0.197 C 
BRANCH  13  14
HETATM   14  O1  UNL     1      21.874   5.712  47.813  1.00  0.00    -0.387 OA
BRANCH  14  15
HETATM   15  C12 UNL     1      22.514   6.901  48.090  1.00  0.00     0.169 C 
BRANCH  15  16
HETATM   16  C13 UNL     1      23.809   7.070  47.349  1.00  0.00     0.041 C 
BRANCH  16  17
HETATM   17  C14 UNL     1      24.694   7.996  48.159  1.00  0.00     0.053 C 
HETATM   18  C15 UNL     1      24.412   7.886  49.635  1.00  0.00     0.041 C 
HETATM   19  C16 UNL     1      25.666   7.355  50.297  1.00  0.00     0.169 C 
HETATM   20  O2  UNL     1      26.597   8.402  50.295  1.00  0.00    -0.381 OA
HETATM   21  C17 UNL     1      27.414   8.277  49.170  1.00  0.00     0.241 C 
HETATM   22  S1  UNL     1      26.413   7.455  47.885  1.00  0.00    -0.138 SA
ENDBRANCH  16  17
ENDBRANCH  15  16
ENDBRANCH  14  15
ENDBRANCH  13  14
ENDBRANCH   6  13
BRANCH   1  23
HETATM   23  C6  UNL     1      24.590   1.843  53.089  1.00  0.00     0.097 C 
BRANCH  23  24
HETATM   24  C5  UNL     1      25.733   0.916  53.167  1.00  0.00    -0.050 A 
HETATM   25  C4  UNL     1      25.853  -0.193  52.330  1.00  0.00     0.007 A 
HETATM   26  C3  UNL     1      26.917  -1.062  52.398  1.00  0.00     0.004 A 
HETATM   27  C2  UNL     1      27.908  -0.815  53.344  1.00  0.00     0.042 A 
HETATM   28  C1  UNL     1      27.842   0.272  54.203  1.00  0.00     0.116 A 
HETATM   29  F1  UNL     1      28.816   0.490  55.112  1.00  0.00    -0.206 F 
HETATM   30  C22 UNL     1      26.752   1.109  54.089  1.00  0.00     0.049 A 
ENDBRANCH  23  24
ENDBRANCH   1  23
TORSDOF 7
ENDMDL
MODEL 8
REMARK VINA RESULT:      -7.3      3.415      5.072
REMARK  7 active torsions:
REMARK  status: ('A' for Active; 'I' for Inactive)
REMARK    1  A    between atoms: C5_6  and  C6_7 
REMARK    2  A    between atoms: C6_7  and  C7_8 
REMARK    3  A    between atoms: C10_13  and  C11_14 
REMARK    4  A    between atoms: C11_14  and  O1_15 
REMARK    5  A    between atoms: O1_15  and  C12_16 
REMARK    6  A    between atoms: C12_16  and  C13_17 
REMARK    7  A    between atoms: C13_17  and  C14_18 
ROOT
HETATM    1  C7  UNL     1      27.606   7.353  47.979  1.00  0.00     0.060 A 
HETATM    2  N1  UNL     1      28.670   6.648  47.787  1.00  0.00    -0.247 NA
HETATM    3  C8  UNL     1      28.755   5.301  48.188  1.00  0.00     0.233 A 
HETATM    4  N2  UNL     1      27.755   4.714  48.773  1.00  0.00    -0.243 NA
HETATM    5  C9  UNL     1      26.564   5.454  49.007  1.00  0.00     0.076 A 
HETATM    6  C10 UNL     1      25.614   4.759  49.610  1.00  0.00     0.030 C 
HETATM    7  C18 UNL     1      26.354   6.874  48.629  1.00  0.00     0.166 A 
HETATM    8  C19 UNL     1      26.181   7.660  49.911  1.00  0.00     0.218 C 
HETATM    9  O3  UNL     1      25.565   8.875  49.753  1.00  0.00    -0.385 OA
HETATM   10  C20 UNL     1      24.518   8.891  48.867  1.00  0.00     0.194 C 
HETATM   11  C21 UNL     1      24.161   7.548  48.319  1.00  0.00     0.196 C 
HETATM   12  O4  UNL     1      25.271   6.955  47.775  1.00  0.00    -0.363 OA
ENDROOT
BRANCH   6  13
HETATM   13  C11 UNL     1      25.798   3.340  49.998  1.00  0.00     0.197 C 
BRANCH  13  14
HETATM   14  O1  UNL     1      25.469   3.118  51.318  1.00  0.00    -0.387 OA
BRANCH  14  15
HETATM   15  C12 UNL     1      25.858   1.895  51.821  1.00  0.00     0.169 C 
BRANCH  15  16
HETATM   16  C13 UNL     1      25.212   1.556  53.134  1.00  0.00     0.041 C 
BRANCH  16  17
HETATM   17  C14 UNL     1      26.220   0.790  53.967  1.00  0.00     0.053 C 
HETATM   18  C15 UNL     1      26.247  -0.672  53.603  1.00  0.00     0.041 C 
HETATM   19  C16 UNL     1      27.623  -0.975  53.045  1.00  0.00     0.169 C 
HETATM   20  O2  UNL     1      28.508  -0.969  54.131  1.00  0.00    -0.381 OA
HETATM   21  C17 UNL     1      29.082   0.300  54.239  1.00  0.00     0.241 C 
HETATM   22  S1  UNL     1      27.861   1.485  53.579  1.00  0.00    -0.138 SA
ENDBRANCH  16  17
ENDBRANCH  15  16
ENDBRANCH  14  15
ENDBRANCH  13  14
ENDBRANCH   6  13
BRANCH   1  23
HETATM   23  C6  UNL     1      27.547   8.756  47.550  1.00  0.00     0.097 C 
BRANCH  23  24
HETATM   24  C5  UNL     1      28.863   9.387  47.754  1.00  0.00    -0.050 A 
HETATM   25  C4  UNL     1      29.651   9.831  46.692  1.00  0.00     0.007 A 
HETATM   26  C3  UNL     1      30.879  10.421  46.876  1.00  0.00     0.004 A 
HETATM   27  C2  UNL     1      31.346  10.577  48.178  1.00  0.00     0.042 A 
HETATM   28  C1  UNL     1      30.607  10.154  49.273  1.00  0.00     0.116 A 
HETATM   29  F1  UNL     1      31.080  10.316  50.527  1.00  0.00    -0.206 F 
HETATM   30  C22 UNL     1      29.382   9.570  49.029  1.00  0.00     0.049 A 
ENDBRANCH  23  24
ENDBRANCH   1  23
TORSDOF 7
ENDMDL
MODEL 9
REMARK VINA RESULT:      -7.3      3.220      4.613
REMARK  7 active torsions:
REMARK  status: ('A' for Active; 'I' for Inactive)
REMARK    1  A    between atoms: C5_6  and  C6_7 
REMARK    2  A    between atoms: C6_7  and  C7_8 
REMARK    3  A    between atoms: C10_13  and  C11_14 
REMARK    4  A    between atoms: C11_14  and  O1_15 
REMARK    5  A    between atoms: O1_15  and  C12_16 
REMARK    6  A    between atoms: C12_16  and  C13_17 
REMARK    7  A    between atoms: C13_17  and  C14_18 
ROOT
HETATM    1  C7  UNL     1      26.897   7.113  48.169  1.00  0.00     0.060 A 
HETATM    2  N1  UNL     1      28.090   6.735  47.854  1.00  0.00    -0.247 NA
HETATM    3  C8  UNL     1      28.584   5.462  48.197  1.00  0.00     0.233 A 
HETATM    4  N2  UNL     1      27.850   4.615  48.852  1.00  0.00    -0.243 NA
HETATM    5  C9  UNL     1      26.529   4.991  49.220  1.00  0.00     0.076 A 
HETATM    6  C10 UNL     1      25.873   4.053  49.884  1.00  0.00     0.030 C 
HETATM    7  C18 UNL     1      25.898   6.298  48.915  1.00  0.00     0.166 A 
HETATM    8  C19 UNL     1      25.641   6.995  50.233  1.00  0.00     0.218 C 
HETATM    9  O3  UNL     1      24.700   7.991  50.177  1.00  0.00    -0.385 OA
HETATM   10  C20 UNL     1      23.607   7.720  49.393  1.00  0.00     0.194 C 
HETATM   11  C21 UNL     1      23.584   6.336  48.832  1.00  0.00     0.196 C 
HETATM   12  O4  UNL     1      24.755   6.081  48.167  1.00  0.00    -0.363 OA
ENDROOT
BRANCH   6  13
HETATM   13  C11 UNL     1      26.481   2.739  50.203  1.00  0.00     0.197 C 
BRANCH  13  14
HETATM   14  O1  UNL     1      26.961   2.690  51.494  1.00  0.00    -0.387 OA
BRANCH  14  15
HETATM   15  C12 UNL     1      26.227   1.915  52.364  1.00  0.00     0.169 C 
BRANCH  15  16
HETATM   16  C13 UNL     1      26.626   2.088  53.801  1.00  0.00     0.041 C 
BRANCH  16  17
HETATM   17  C14 UNL     1      27.269   0.797  54.266  1.00  0.00     0.053 C 
HETATM   18  C15 UNL     1      26.610  -0.409  53.646  1.00  0.00     0.041 C 
HETATM   19  C16 UNL     1      27.648  -1.097  52.783  1.00  0.00     0.169 C 
HETATM   20  O2  UNL     1      28.547  -1.722  53.656  1.00  0.00    -0.381 OA
HETATM   21  C17 UNL     1      29.630  -0.869  53.875  1.00  0.00     0.241 C 
HETATM   22  S1  UNL     1      29.000   0.834  53.695  1.00  0.00    -0.138 SA
ENDBRANCH  16  17
ENDBRANCH  15  16
ENDBRANCH  14  15
ENDBRANCH  13  14
ENDBRANCH   6  13
BRANCH   1  23
HETATM   23  C6  UNL     1      26.410   8.447  47.796  1.00  0.00     0.097 C 
BRANCH  23  24
HETATM   24  C5  UNL     1      26.318   8.544  46.329  1.00  0.00    -0.050 A 
HETATM   25  C4  UNL     1      27.380   8.987  45.542  1.00  0.00     0.007 A 
HETATM   26  C3  UNL     1      27.302   9.079  44.172  1.00  0.00     0.004 A 
HETATM   27  C2  UNL     1      26.108   8.713  43.557  1.00  0.00     0.042 A 
HETATM   28  C1  UNL     1      25.017   8.265  44.287  1.00  0.00     0.116 A 
HETATM   29  F1  UNL     1      23.870   7.916  43.668  1.00  0.00    -0.206 F 
HETATM   30  C22 UNL     1      25.155   8.193  45.658  1.00  0.00     0.049 A 
ENDBRANCH  23  24
ENDBRANCH   1  23
TORSDOF 7
ENDMDL
