MODEL 1
REMARK VINA RESULT:      -9.4      0.000      0.000
REMARK  4 active torsions:
REMARK  status: ('A' for Active; 'I' for Inactive)
REMARK    1  A    between atoms: N1_2  and  C2_3 
REMARK    2  A    between atoms: C10_15  and  O3_16 
REMARK    3  A    between atoms: C14_21  and  N5_22 
REMARK    4  A    between atoms: N5_22  and  C15_23 
ROOT
HETATM    1  C2  UNL     1      24.412   2.155  52.814  1.00  0.00     0.050 C 
HETATM    2  C3  UNL     1      25.453   1.393  53.085  1.00  0.00    -0.007 C 
HETATM    3  C4  UNL     1      26.366   2.259  53.928  1.00  0.00     0.208 C 
HETATM    4  O1  UNL     1      27.353   1.435  54.375  1.00  0.00    -0.368 OA
HETATM    5  C5  UNL     1      28.056   0.712  53.437  1.00  0.00     0.286 C 
HETATM    6  N2  UNL     1      27.263  -0.163  52.648  1.00  0.00    -0.393 N 
HETATM    7  C6  UNL     1      25.863  -0.011  52.773  1.00  0.00     0.114 C 
HETATM    8  C7  UNL     1      25.406  -0.953  53.879  1.00  0.00     0.058 C 
HETATM    9  C8  UNL     1      23.972  -0.619  54.201  1.00  0.00     0.202 C 
HETATM   10  O2  UNL     1      23.407  -1.369  55.228  1.00  0.00    -0.291 OA
HETATM   11  N3  UNL     1      22.057  -1.573  55.187  1.00  0.00    -0.300 NA
HETATM   12  C9  UNL     1      21.218  -1.107  54.367  1.00  0.00     0.377 C 
HETATM   13  C10 UNL     1      20.589  -0.395  53.266  1.00  0.00     0.089 C 
HETATM   14  C12 UNL     1      20.941   0.425  52.342  1.00  0.00     0.071 C 
HETATM   15  C13 UNL     1      21.925   1.228  51.647  1.00  0.00     0.078 A 
HETATM   16  N4  UNL     1      21.986   1.722  50.428  1.00  0.00    -0.229 NA
HETATM   17  C14 UNL     1      23.228   2.275  50.766  1.00  0.00     0.143 A 
HETATM   18  C19 UNL     1      23.240   1.809  52.027  1.00  0.00     0.066 A 
HETATM   19  H9  UNL     1      27.610  -0.485  51.762  1.00  0.00     0.156 HD
ENDROOT
BRANCH  17  20
HETATM   20  N5  UNL     1      23.636   2.950  49.556  1.00  0.00    -0.338 N 
HETATM   21  H20 UNL     1      23.064   2.757  48.676  1.00  0.00     0.167 HD
BRANCH  20  22
HETATM   22  C15 UNL     1      24.705   3.863  49.327  1.00  0.00     0.072 A 
HETATM   23  C16 UNL     1      25.387   4.953  48.986  1.00  0.00     0.036 A 
HETATM   24  C17 UNL     1      26.683   4.353  49.354  1.00  0.00     0.047 A 
HETATM   25  C18 UNL     1      26.004   3.264  49.695  1.00  0.00     0.143 A 
HETATM   26  F1  UNL     1      26.834   2.291  50.160  1.00  0.00    -0.204 F 
ENDBRANCH  20  22
ENDBRANCH  17  20
BRANCH   1  27
HETATM   27  N1  UNL     1      24.461   3.498  53.366  1.00  0.00    -0.393 N 
HETATM   28  C1  UNL     1      23.597   4.587  53.001  1.00  0.00     0.146 C 
HETATM   29  H4  UNL     1      25.181   3.742  54.099  1.00  0.00     0.159 HD
ENDBRANCH   1  27
BRANCH  13  30
HETATM   30  O3  UNL     1      19.297  -0.885  53.498  1.00  0.00    -0.354 OA
HETATM   31  C11 UNL     1      18.265  -0.651  52.534  1.00  0.00     0.210 C 
ENDBRANCH  13  30
TORSDOF 4
ENDMDL
MODEL 2
REMARK VINA RESULT:      -7.7      2.842      4.983
REMARK  4 active torsions:
REMARK  status: ('A' for Active; 'I' for Inactive)
REMARK    1  A    between atoms: N1_2  and  C2_3 
REMARK    2  A    between atoms: C10_15  and  O3_16 
REMARK    3  A    between atoms: C14_21  and  N5_22 
REMARK    4  A    between atoms: N5_22  and  C15_23 
ROOT
HETATM    1  C2  UNL     1      23.272   3.490  50.038  1.00  0.00     0.050 C 
HETATM    2  C3  UNL     1      22.527   4.505  50.428  1.00  0.00    -0.007 C 
HETATM    3  C4  UNL     1      21.894   5.038  49.159  1.00  0.00     0.208 C 
HETATM    4  O1  UNL     1      20.977   5.961  49.559  1.00  0.00    -0.368 OA
HETATM    5  C5  UNL     1      21.410   6.977  50.382  1.00  0.00     0.286 C 
HETATM    6  N2  UNL     1      21.965   6.544  51.616  1.00  0.00    -0.393 N 
HETATM    7  C6  UNL     1      22.202   5.156  51.735  1.00  0.00     0.114 C 
HETATM    8  C7  UNL     1      20.947   4.536  52.336  1.00  0.00     0.058 C 
HETATM    9  C8  UNL     1      21.080   3.039  52.230  1.00  0.00     0.202 C 
HETATM   10  O2  UNL     1      19.992   2.314  52.705  1.00  0.00    -0.291 OA
HETATM   11  N3  UNL     1      20.235   1.063  53.194  1.00  0.00    -0.300 NA
HETATM   12  C9  UNL     1      21.326   0.427  53.213  1.00  0.00     0.377 C 
HETATM   13  C10 UNL     1      22.718   0.037  53.053  1.00  0.00     0.089 C 
HETATM   14  C12 UNL     1      23.785   0.523  52.526  1.00  0.00     0.071 C 
HETATM   15  C13 UNL     1      24.505   1.550  51.806  1.00  0.00     0.078 A 
HETATM   16  N4  UNL     1      25.779   1.878  51.737  1.00  0.00    -0.229 NA
HETATM   17  C14 UNL     1      25.418   2.903  50.852  1.00  0.00     0.143 A 
HETATM   18  C19 UNL     1      24.102   2.629  50.865  1.00  0.00     0.066 A 
HETATM   19  H9  UNL     1      22.575   7.157  52.128  1.00  0.00     0.156 HD
ENDROOT
BRANCH  17  20
HETATM   20  N5  UNL     1      26.677   3.537  50.540  1.00  0.00    -0.338 N 
HETATM   21  H20 UNL     1      27.514   3.283  51.153  1.00  0.00     0.167 HD
BRANCH  20  22
HETATM   22  C15 UNL     1      27.009   4.473  49.519  1.00  0.00     0.072 A 
HETATM   23  C16 UNL     1      27.612   5.064  48.491  1.00  0.00     0.036 A 
HETATM   24  C17 UNL     1      26.703   6.224  48.522  1.00  0.00     0.047 A 
HETATM   25  C18 UNL     1      26.099   5.636  49.547  1.00  0.00     0.143 A 
HETATM   26  F1  UNL     1      25.057   6.385  50.002  1.00  0.00    -0.204 F 
ENDBRANCH  20  22
ENDBRANCH  17  20
BRANCH   1  27
HETATM   27  N1  UNL     1      23.261   3.219  48.610  1.00  0.00    -0.393 N 
HETATM   28  C1  UNL     1      22.650   2.082  47.978  1.00  0.00     0.146 C 
HETATM   29  H4  UNL     1      23.733   3.886  47.942  1.00  0.00     0.159 HD
ENDBRANCH   1  27
BRANCH  13  30
HETATM   30  O3  UNL     1      22.597  -1.197  53.704  1.00  0.00    -0.354 OA
HETATM   31  C11 UNL     1      22.625  -1.251  55.135  1.00  0.00     0.210 C 
ENDBRANCH  13  30
TORSDOF 4
ENDMDL
MODEL 3
REMARK VINA RESULT:      -7.7      1.127      1.264
REMARK  4 active torsions:
REMARK  status: ('A' for Active; 'I' for Inactive)
REMARK    1  A    between atoms: N1_2  and  C2_3 
REMARK    2  A    between atoms: C10_15  and  O3_16 
REMARK    3  A    between atoms: C14_21  and  N5_22 
REMARK    4  A    between atoms: N5_22  and  C15_23 
ROOT
HETATM    1  C2  UNL     1      23.424   2.437  52.343  1.00  0.00     0.050 C 
HETATM    2  C3  UNL     1      24.470   1.749  52.754  1.00  0.00    -0.007 C 
HETATM    3  C4  UNL     1      25.277   2.724  53.588  1.00  0.00     0.208 C 
HETATM    4  O1  UNL     1      26.260   1.987  54.176  1.00  0.00    -0.368 OA
HETATM    5  C5  UNL     1      27.064   1.225  53.358  1.00  0.00     0.286 C 
HETATM    6  N2  UNL     1      26.372   0.252  52.588  1.00  0.00    -0.393 N 
HETATM    7  C6  UNL     1      24.962   0.346  52.594  1.00  0.00     0.114 C 
HETATM    8  C7  UNL     1      24.459  -0.523  53.739  1.00  0.00     0.058 C 
HETATM    9  C8  UNL     1      22.991  -0.234  53.923  1.00  0.00     0.202 C 
HETATM   10  O2  UNL     1      22.378  -0.925  54.964  1.00  0.00    -0.291 OA
HETATM   11  N3  UNL     1      21.046  -1.195  54.840  1.00  0.00    -0.300 NA
HETATM   12  C9  UNL     1      20.255  -0.838  53.922  1.00  0.00     0.377 C 
HETATM   13  C10 UNL     1      19.686  -0.248  52.721  1.00  0.00     0.089 C 
HETATM   14  C12 UNL     1      20.076   0.510  51.760  1.00  0.00     0.071 C 
HETATM   15  C13 UNL     1      21.077   1.299  51.075  1.00  0.00     0.078 A 
HETATM   16  N4  UNL     1      21.213   1.696  49.827  1.00  0.00    -0.229 NA
HETATM   17  C14 UNL     1      22.400   2.333  50.209  1.00  0.00     0.143 A 
HETATM   18  C19 UNL     1      22.332   1.972  51.502  1.00  0.00     0.066 A 
HETATM   19  H9  UNL     1      26.802  -0.124  51.761  1.00  0.00     0.156 HD
ENDROOT
BRANCH  17  20
HETATM   20  N5  UNL     1      22.874   2.926  48.980  1.00  0.00    -0.338 N 
HETATM   21  H20 UNL     1      22.749   2.357  48.086  1.00  0.00     0.167 HD
BRANCH  20  22
HETATM   22  C15 UNL     1      23.498   4.185  48.746  1.00  0.00     0.072 A 
HETATM   23  C16 UNL     1      23.724   5.427  48.326  1.00  0.00     0.036 A 
HETATM   24  C17 UNL     1      25.060   5.479  48.948  1.00  0.00     0.047 A 
HETATM   25  C18 UNL     1      24.836   4.241  49.370  1.00  0.00     0.143 A 
HETATM   26  F1  UNL     1      25.890   3.765  50.088  1.00  0.00    -0.204 F 
ENDBRANCH  20  22
ENDBRANCH  17  20
BRANCH   1  27
HETATM   27  N1  UNL     1      23.373   3.821  52.782  1.00  0.00    -0.393 N 
HETATM   28  C1  UNL     1      22.237   4.694  52.674  1.00  0.00     0.146 C 
HETATM   29  H4  UNL     1      24.223   4.267  53.220  1.00  0.00     0.159 HD
ENDBRANCH   1  27
BRANCH  13  30
HETATM   30  O3  UNL     1      18.402  -0.779  52.896  1.00  0.00    -0.354 OA
HETATM   31  C11 UNL     1      18.236  -2.032  53.570  1.00  0.00     0.210 C 
ENDBRANCH  13  30
TORSDOF 4
ENDMDL
MODEL 4
REMARK VINA RESULT:      -7.6      2.640      4.964
REMARK  4 active torsions:
REMARK  status: ('A' for Active; 'I' for Inactive)
REMARK    1  A    between atoms: N1_2  and  C2_3 
REMARK    2  A    between atoms: C10_15  and  O3_16 
REMARK    3  A    between atoms: C14_21  and  N5_22 
REMARK    4  A    between atoms: N5_22  and  C15_23 
ROOT
HETATM    1  C2  UNL     1      24.108   3.226  50.565  1.00  0.00     0.050 C 
HETATM    2  C3  UNL     1      23.901   4.477  50.924  1.00  0.00    -0.007 C 
HETATM    3  C4  UNL     1      23.940   5.268  49.632  1.00  0.00     0.208 C 
HETATM    4  O1  UNL     1      23.542   6.529  49.955  1.00  0.00    -0.368 OA
HETATM    5  C5  UNL     1      24.216   7.172  50.970  1.00  0.00     0.286 C 
HETATM    6  N2  UNL     1      24.171   6.508  52.224  1.00  0.00    -0.393 N 
HETATM    7  C6  UNL     1      23.646   5.195  52.211  1.00  0.00     0.114 C 
HETATM    8  C7  UNL     1      22.149   5.307  52.465  1.00  0.00     0.058 C 
HETATM    9  C8  UNL     1      21.537   3.956  52.199  1.00  0.00     0.202 C 
HETATM   10  O2  UNL     1      20.155   3.893  52.351  1.00  0.00    -0.291 OA
HETATM   11  N3  UNL     1      19.618   2.692  52.716  1.00  0.00    -0.300 NA
HETATM   12  C9  UNL     1      20.205   1.585  52.872  1.00  0.00     0.377 C 
HETATM   13  C10 UNL     1      21.208   0.534  52.946  1.00  0.00     0.089 C 
HETATM   14  C12 UNL     1      22.464   0.404  52.709  1.00  0.00     0.071 C 
HETATM   15  C13 UNL     1      23.749   0.918  52.283  1.00  0.00     0.078 A 
HETATM   16  N4  UNL     1      24.990   0.543  52.513  1.00  0.00    -0.229 NA
HETATM   17  C14 UNL     1      25.410   1.612  51.711  1.00  0.00     0.143 A 
HETATM   18  C19 UNL     1      24.174   2.056  51.425  1.00  0.00     0.066 A 
HETATM   19  H9  UNL     1      24.864   6.716  52.922  1.00  0.00     0.156 HD
ENDROOT
BRANCH  17  20
HETATM   20  N5  UNL     1      26.850   1.509  51.740  1.00  0.00    -0.338 N 
HETATM   21  H20 UNL     1      27.329   1.135  50.863  1.00  0.00     0.167 HD
BRANCH  20  22
HETATM   22  C15 UNL     1      27.775   1.834  52.774  1.00  0.00     0.072 A 
HETATM   23  C16 UNL     1      28.523   2.521  53.633  1.00  0.00     0.036 A 
HETATM   24  C17 UNL     1      29.121   1.303  54.210  1.00  0.00     0.047 A 
HETATM   25  C18 UNL     1      28.375   0.615  53.354  1.00  0.00     0.143 A 
HETATM   26  F1  UNL     1      28.572  -0.725  53.494  1.00  0.00    -0.204 F 
ENDBRANCH  20  22
ENDBRANCH  17  20
BRANCH   1  27
HETATM   27  N1  UNL     1      24.301   3.008  49.141  1.00  0.00    -0.393 N 
HETATM   28  C1  UNL     1      23.301   2.537  48.222  1.00  0.00     0.146 C 
HETATM   29  H4  UNL     1      25.242   3.195  48.701  1.00  0.00     0.159 HD
ENDBRANCH   1  27
BRANCH  13  30
HETATM   30  O3  UNL     1      20.337  -0.464  53.398  1.00  0.00    -0.354 OA
HETATM   31  C11 UNL     1      20.851  -1.566  54.154  1.00  0.00     0.210 C 
ENDBRANCH  13  30
TORSDOF 4
ENDMDL
MODEL 5
REMARK VINA RESULT:      -7.4      3.475      7.435
REMARK  4 active torsions:
REMARK  status: ('A' for Active; 'I' for Inactive)
REMARK    1  A    between atoms: N1_2  and  C2_3 
REMARK    2  A    between atoms: C10_15  and  O3_16 
REMARK    3  A    between atoms: C14_21  and  N5_22 
REMARK    4  A    between atoms: N5_22  and  C15_23 
ROOT
HETATM    1  C2  UNL     1      23.709   3.356  50.662  1.00  0.00     0.050 C 
HETATM    2  C3  UNL     1      22.773   2.832  49.896  1.00  0.00    -0.007 C 
HETATM    3  C4  UNL     1      21.588   2.617  50.816  1.00  0.00     0.208 C 
HETATM    4  O1  UNL     1      20.552   2.255  50.010  1.00  0.00    -0.368 OA
HETATM    5  C5  UNL     1      20.744   1.186  49.163  1.00  0.00     0.286 C 
HETATM    6  N2  UNL     1      21.808   1.348  48.236  1.00  0.00    -0.393 N 
HETATM    7  C6  UNL     1      22.652   2.462  48.452  1.00  0.00     0.114 C 
HETATM    8  C7  UNL     1      22.075   3.624  47.655  1.00  0.00     0.058 C 
HETATM    9  C8  UNL     1      22.805   4.874  48.075  1.00  0.00     0.202 C 
HETATM   10  O2  UNL     1      22.370   6.046  47.463  1.00  0.00    -0.291 OA
HETATM   11  N3  UNL     1      23.283   7.048  47.306  1.00  0.00    -0.300 NA
HETATM   12  C9  UNL     1      24.479   7.091  47.710  1.00  0.00     0.377 C 
HETATM   13  C10 UNL     1      25.759   6.767  48.319  1.00  0.00     0.089 C 
HETATM   14  C12 UNL     1      26.263   5.814  49.020  1.00  0.00     0.071 C 
HETATM   15  C13 UNL     1      26.176   4.542  49.704  1.00  0.00     0.078 A 
HETATM   16  N4  UNL     1      27.073   3.647  50.059  1.00  0.00    -0.229 NA
HETATM   17  C14 UNL     1      26.030   2.884  50.600  1.00  0.00     0.143 A 
HETATM   18  C19 UNL     1      25.054   3.750  50.275  1.00  0.00     0.066 A 
HETATM   19  H9  UNL     1      22.220   0.539  47.807  1.00  0.00     0.156 HD
ENDROOT
BRANCH  17  20
HETATM   20  N5  UNL     1      26.701   1.718  51.122  1.00  0.00    -0.338 N 
HETATM   21  H20 UNL     1      27.666   1.494  50.725  1.00  0.00     0.167 HD
BRANCH  20  22
HETATM   22  C15 UNL     1      26.285   0.783  52.113  1.00  0.00     0.072 A 
HETATM   23  C16 UNL     1      25.976  -0.355  52.729  1.00  0.00     0.036 A 
HETATM   24  C17 UNL     1      25.615   0.330  53.984  1.00  0.00     0.047 A 
HETATM   25  C18 UNL     1      25.924   1.467  53.372  1.00  0.00     0.143 A 
HETATM   26  F1  UNL     1      25.748   2.535  54.196  1.00  0.00    -0.204 F 
ENDBRANCH  20  22
ENDBRANCH  17  20
BRANCH   1  27
HETATM   27  N1  UNL     1      23.342   3.548  52.055  1.00  0.00    -0.393 N 
HETATM   28  C1  UNL     1      23.551   4.746  52.820  1.00  0.00     0.146 C 
HETATM   29  H4  UNL     1      22.883   2.764  52.593  1.00  0.00     0.159 HD
ENDBRANCH   1  27
BRANCH  13  30
HETATM   30  O3  UNL     1      26.414   7.933  47.906  1.00  0.00    -0.354 OA
HETATM   31  C11 UNL     1      27.711   8.244  48.428  1.00  0.00     0.210 C 
ENDBRANCH  13  30
TORSDOF 4
ENDMDL
MODEL 6
REMARK VINA RESULT:      -7.3      6.965     10.274
REMARK  4 active torsions:
REMARK  status: ('A' for Active; 'I' for Inactive)
REMARK    1  A    between atoms: N1_2  and  C2_3 
REMARK    2  A    between atoms: C10_15  and  O3_16 
REMARK    3  A    between atoms: C14_21  and  N5_22 
REMARK    4  A    between atoms: N5_22  and  C15_23 
ROOT
HETATM    1  C2  UNL     1      29.902   8.147  47.214  1.00  0.00     0.050 C 
HETATM    2  C3  UNL     1      29.891   9.225  47.973  1.00  0.00    -0.007 C 
HETATM    3  C4  UNL     1      29.945  10.389  47.004  1.00  0.00     0.208 C 
HETATM    4  O1  UNL     1      29.745  11.508  47.752  1.00  0.00    -0.368 OA
HETATM    5  C5  UNL     1      30.569  11.707  48.838  1.00  0.00     0.286 C 
HETATM    6  N2  UNL     1      30.523  10.675  49.813  1.00  0.00    -0.393 N 
HETATM    7  C6  UNL     1      29.827   9.502  49.441  1.00  0.00     0.114 C 
HETATM    8  C7  UNL     1      28.380   9.680  49.882  1.00  0.00     0.058 C 
HETATM    9  C8  UNL     1      27.574   8.563  49.269  1.00  0.00     0.202 C 
HETATM   10  O2  UNL     1      26.211   8.598  49.545  1.00  0.00    -0.291 OA
HETATM   11  N3  UNL     1      25.544   7.407  49.567  1.00  0.00    -0.300 NA
HETATM   12  C9  UNL     1      25.986   6.256  49.297  1.00  0.00     0.377 C 
HETATM   13  C10 UNL     1      26.841   5.141  48.921  1.00  0.00     0.089 C 
HETATM   14  C12 UNL     1      28.048   4.966  48.518  1.00  0.00     0.071 C 
HETATM   15  C13 UNL     1      29.357   5.454  48.138  1.00  0.00     0.078 A 
HETATM   16  N4  UNL     1      30.549   4.897  48.098  1.00  0.00    -0.229 NA
HETATM   17  C14 UNL     1      31.052   6.120  47.636  1.00  0.00     0.143 A 
HETATM   18  C19 UNL     1      29.870   6.759  47.645  1.00  0.00     0.066 A 
HETATM   19  H9  UNL     1      31.285  10.569  50.459  1.00  0.00     0.156 HD
ENDROOT
BRANCH  17  20
HETATM   20  N5  UNL     1      32.463   5.863  47.472  1.00  0.00    -0.338 N 
HETATM   21  H20 UNL     1      32.738   4.979  46.941  1.00  0.00     0.167 HD
BRANCH  20  22
HETATM   22  C15 UNL     1      33.593   6.613  47.908  1.00  0.00     0.072 A 
HETATM   23  C16 UNL     1      34.397   7.628  48.215  1.00  0.00     0.036 A 
HETATM   24  C17 UNL     1      35.491   6.736  48.643  1.00  0.00     0.047 A 
HETATM   25  C18 UNL     1      34.690   5.722  48.338  1.00  0.00     0.143 A 
HETATM   26  F1  UNL     1      35.293   4.527  48.583  1.00  0.00    -0.204 F 
ENDBRANCH  20  22
ENDBRANCH  17  20
BRANCH   1  27
HETATM   27  N1  UNL     1      29.963   8.391  45.783  1.00  0.00    -0.393 N 
HETATM   28  C1  UNL     1      31.029   7.988  44.908  1.00  0.00     0.146 C 
HETATM   29  H4  UNL     1      29.179   8.910  45.302  1.00  0.00     0.159 HD
ENDBRANCH   1  27
BRANCH  13  30
HETATM   30  O3  UNL     1      25.877   4.146  49.126  1.00  0.00    -0.354 OA
HETATM   31  C11 UNL     1      25.575   3.711  50.456  1.00  0.00     0.210 C 
ENDBRANCH  13  30
TORSDOF 4
ENDMDL
MODEL 7
REMARK VINA RESULT:      -7.2      2.436      4.554
REMARK  4 active torsions:
REMARK  status: ('A' for Active; 'I' for Inactive)
REMARK    1  A    between atoms: N1_2  and  C2_3 
REMARK    2  A    between atoms: C10_15  and  O3_16 
REMARK    3  A    between atoms: C14_21  and  N5_22 
REMARK    4  A    between atoms: N5_22  and  C15_23 
ROOT
HETATM    1  C2  UNL     1      23.269   2.979  51.739  1.00  0.00     0.050 C 
HETATM    2  C3  UNL     1      24.288   3.448  51.046  1.00  0.00    -0.007 C 
HETATM    3  C4  UNL     1      24.124   4.954  51.077  1.00  0.00     0.208 C 
HETATM    4  O1  UNL     1      25.262   5.464  50.532  1.00  0.00    -0.368 OA
HETATM    5  C5  UNL     1      25.630   5.015  49.282  1.00  0.00     0.286 C 
HETATM    6  N2  UNL     1      25.853   3.614  49.199  1.00  0.00    -0.393 N 
HETATM    7  C6  UNL     1      25.457   2.856  50.325  1.00  0.00     0.114 C 
HETATM    8  C7  UNL     1      26.661   2.769  51.253  1.00  0.00     0.058 C 
HETATM    9  C8  UNL     1      26.188   2.194  52.563  1.00  0.00     0.202 C 
HETATM   10  O2  UNL     1      27.166   2.080  53.546  1.00  0.00    -0.291 OA
HETATM   11  N3  UNL     1      27.015   1.087  54.471  1.00  0.00    -0.300 NA
HETATM   12  C9  UNL     1      26.054   0.279  54.605  1.00  0.00     0.377 C 
HETATM   13  C10 UNL     1      24.802  -0.442  54.436  1.00  0.00     0.089 C 
HETATM   14  C12 UNL     1      23.761  -0.372  53.686  1.00  0.00     0.071 C 
HETATM   15  C13 UNL     1      22.981   0.234  52.628  1.00  0.00     0.078 A 
HETATM   16  N4  UNL     1      22.023  -0.215  51.845  1.00  0.00    -0.229 NA
HETATM   17  C14 UNL     1      21.980   1.053  51.250  1.00  0.00     0.143 A 
HETATM   18  C19 UNL     1      22.949   1.588  52.013  1.00  0.00     0.066 A 
HETATM   19  H9  UNL     1      25.814   3.158  48.304  1.00  0.00     0.156 HD
ENDROOT
BRANCH  17  20
HETATM   20  N5  UNL     1      20.949   0.919  50.248  1.00  0.00    -0.338 N 
HETATM   21  H20 UNL     1      20.344   0.041  50.287  1.00  0.00     0.167 HD
BRANCH  20  22
HETATM   22  C15 UNL     1      20.585   1.789  49.180  1.00  0.00     0.072 A 
HETATM   23  C16 UNL     1      19.868   2.530  48.340  1.00  0.00     0.036 A 
HETATM   24  C17 UNL     1      21.056   2.954  47.575  1.00  0.00     0.047 A 
HETATM   25  C18 UNL     1      21.773   2.216  48.413  1.00  0.00     0.143 A 
HETATM   26  F1  UNL     1      23.099   2.275  48.111  1.00  0.00    -0.204 F 
ENDBRANCH  20  22
ENDBRANCH  17  20
BRANCH   1  27
HETATM   27  N1  UNL     1      22.365   3.981  52.277  1.00  0.00    -0.393 N 
HETATM   28  C1  UNL     1      20.936   3.987  52.131  1.00  0.00     0.146 C 
HETATM   29  H4  UNL     1      22.749   4.797  52.827  1.00  0.00     0.159 HD
ENDBRANCH   1  27
BRANCH  13  30
HETATM   30  O3  UNL     1      25.034  -1.373  55.456  1.00  0.00    -0.354 OA
HETATM   31  C11 UNL     1      25.118  -0.931  56.815  1.00  0.00     0.210 C 
ENDBRANCH  13  30
TORSDOF 4
ENDMDL
MODEL 8
REMARK VINA RESULT:      -6.9      2.998      4.360
REMARK  4 active torsions:
REMARK  status: ('A' for Active; 'I' for Inactive)
REMARK    1  A    between atoms: N1_2  and  C2_3 
REMARK    2  A    between atoms: C10_15  and  O3_16 
REMARK    3  A    between atoms: C14_21  and  N5_22 
REMARK    4  A    between atoms: N5_22  and  C15_23 
ROOT
HETATM    1  C2  UNL     1      22.966   3.879  50.222  1.00  0.00     0.050 C 
HETATM    2  C3  UNL     1      24.236   4.169  50.028  1.00  0.00    -0.007 C 
HETATM    3  C4  UNL     1      24.341   5.660  50.278  1.00  0.00     0.208 C 
HETATM    4  O1  UNL     1      25.672   5.948  50.270  1.00  0.00    -0.368 OA
HETATM    5  C5  UNL     1      26.402   5.561  49.168  1.00  0.00     0.286 C 
HETATM    6  N2  UNL     1      26.390   4.164  48.910  1.00  0.00    -0.393 N 
HETATM    7  C6  UNL     1      25.468   3.403  49.665  1.00  0.00     0.114 C 
HETATM    8  C7  UNL     1      26.192   2.941  50.922  1.00  0.00     0.058 C 
HETATM    9  C8  UNL     1      25.162   2.354  51.854  1.00  0.00     0.202 C 
HETATM   10  O2  UNL     1      25.656   1.912  53.077  1.00  0.00    -0.291 OA
HETATM   11  N3  UNL     1      24.992   0.888  53.690  1.00  0.00    -0.300 NA
HETATM   12  C9  UNL     1      23.926   0.317  53.327  1.00  0.00     0.377 C 
HETATM   13  C10 UNL     1      22.727  -0.072  52.601  1.00  0.00     0.089 C 
HETATM   14  C12 UNL     1      22.080   0.317  51.562  1.00  0.00     0.071 C 
HETATM   15  C13 UNL     1      21.882   1.197  50.429  1.00  0.00     0.078 A 
HETATM   16  N4  UNL     1      21.232   1.068  49.292  1.00  0.00    -0.229 NA
HETATM   17  C14 UNL     1      21.642   2.368  48.965  1.00  0.00     0.143 A 
HETATM   18  C19 UNL     1      22.325   2.578  50.104  1.00  0.00     0.066 A 
HETATM   19  H9  UNL     1      26.616   3.827  47.990  1.00  0.00     0.156 HD
ENDROOT
BRANCH  17  20
HETATM   20  N5  UNL     1      21.065   2.585  47.660  1.00  0.00    -0.338 N 
HETATM   21  H20 UNL     1      20.159   2.067  47.437  1.00  0.00     0.167 HD
BRANCH  20  22
HETATM   22  C15 UNL     1      21.510   3.402  46.581  1.00  0.00     0.072 A 
HETATM   23  C16 UNL     1      21.957   3.794  45.391  1.00  0.00     0.036 A 
HETATM   24  C17 UNL     1      21.955   5.219  45.771  1.00  0.00     0.047 A 
HETATM   25  C18 UNL     1      21.508   4.830  46.958  1.00  0.00     0.143 A 
HETATM   26  F1  UNL     1      21.312   5.894  47.784  1.00  0.00    -0.204 F 
ENDBRANCH  20  22
ENDBRANCH  17  20
BRANCH   1  27
HETATM   27  N1  UNL     1      22.116   5.000  50.586  1.00  0.00    -0.393 N 
HETATM   28  C1  UNL     1      20.825   4.906  51.210  1.00  0.00     0.146 C 
HETATM   29  H4  UNL     1      22.433   5.988  50.390  1.00  0.00     0.159 HD
ENDBRANCH   1  27
BRANCH  13  30
HETATM   30  O3  UNL     1      22.386  -1.135  53.446  1.00  0.00    -0.354 OA
HETATM   31  C11 UNL     1      21.886  -0.864  54.761  1.00  0.00     0.210 C 
ENDBRANCH  13  30
TORSDOF 4
ENDMDL
MODEL 9
REMARK VINA RESULT:      -6.9      7.373     11.142
REMARK  4 active torsions:
REMARK  status: ('A' for Active; 'I' for Inactive)
REMARK    1  A    between atoms: N1_2  and  C2_3 
REMARK    2  A    between atoms: C10_15  and  O3_16 
REMARK    3  A    between atoms: C14_21  and  N5_22 
REMARK    4  A    between atoms: N5_22  and  C15_23 
ROOT
HETATM    1  C2  UNL     1      28.698   8.386  47.115  1.00  0.00     0.050 C 
HETATM    2  C3  UNL     1      29.781   8.057  47.790  1.00  0.00    -0.007 C 
HETATM    3  C4  UNL     1      30.683   7.378  46.780  1.00  0.00     0.208 C 
HETATM    4  O1  UNL     1      31.879   7.201  47.407  1.00  0.00    -0.368 OA
HETATM    5  C5  UNL     1      31.874   6.540  48.615  1.00  0.00     0.286 C 
HETATM    6  N2  UNL     1      31.089   7.157  49.625  1.00  0.00    -0.393 N 
HETATM    7  C6  UNL     1      30.255   8.216  49.200  1.00  0.00     0.114 C 
HETATM    8  C7  UNL     1      31.055   9.503  49.346  1.00  0.00     0.058 C 
HETATM    9  C8  UNL     1      30.284  10.602  48.660  1.00  0.00     0.202 C 
HETATM   10  O2  UNL     1      30.899  11.850  48.669  1.00  0.00    -0.291 OA
HETATM   11  N3  UNL     1      30.091  12.949  48.636  1.00  0.00    -0.300 NA
HETATM   12  C9  UNL     1      28.834  12.995  48.526  1.00  0.00     0.377 C 
HETATM   13  C10 UNL     1      27.430  12.640  48.389  1.00  0.00     0.089 C 
HETATM   14  C12 UNL     1      26.733  11.571  48.234  1.00  0.00     0.071 C 
HETATM   15  C13 UNL     1      26.600  10.138  48.082  1.00  0.00     0.078 A 
HETATM   16  N4  UNL     1      25.612   9.297  48.303  1.00  0.00    -0.229 NA
HETATM   17  C14 UNL     1      26.456   8.266  47.871  1.00  0.00     0.143 A 
HETATM   18  C19 UNL     1      27.511   9.060  47.616  1.00  0.00     0.066 A 
HETATM   19  H9  UNL     1      30.774   6.614  50.410  1.00  0.00     0.156 HD
ENDROOT
BRANCH  17  20
HETATM   20  N5  UNL     1      25.635   7.085  47.995  1.00  0.00    -0.338 N 
HETATM   21  H20 UNL     1      24.747   7.046  47.404  1.00  0.00     0.167 HD
BRANCH  20  22
HETATM   22  C15 UNL     1      25.814   5.919  48.794  1.00  0.00     0.072 A 
HETATM   23  C16 UNL     1      25.597   4.932  49.659  1.00  0.00     0.036 A 
HETATM   24  C17 UNL     1      26.929   4.338  49.438  1.00  0.00     0.047 A 
HETATM   25  C18 UNL     1      27.147   5.322  48.574  1.00  0.00     0.143 A 
HETATM   26  F1  UNL     1      28.384   5.222  48.015  1.00  0.00    -0.204 F 
ENDBRANCH  20  22
ENDBRANCH  17  20
BRANCH   1  27
HETATM   27  N1  UNL     1      28.702   8.018  45.709  1.00  0.00    -0.393 N 
HETATM   28  C1  UNL     1      28.070   8.753  44.648  1.00  0.00     0.146 C 
HETATM   29  H4  UNL     1      29.197   7.140  45.395  1.00  0.00     0.159 HD
ENDBRANCH   1  27
BRANCH  13  30
HETATM   30  O3  UNL     1      26.942  13.950  48.467  1.00  0.00    -0.354 OA
HETATM   31  C11 UNL     1      25.630  14.250  47.978  1.00  0.00     0.210 C 
ENDBRANCH  13  30
TORSDOF 4
ENDMDL
