MODEL 1
REMARK VINA RESULT:      -7.4      0.000      0.000
REMARK  3 active torsions:
REMARK  status: ('A' for Active; 'I' for Inactive)
REMARK    1  A    between atoms: C8_10  and  O1_11 
REMARK    2  A    between atoms: O1_11  and  C9_12 
REMARK    3  A    between atoms: C9_12  and  C10_13 
ROOT
HETATM    1  N1  UNL     1      27.957  -3.135  52.862  1.00  0.00    -0.192 NA
HETATM    2  C1  UNL     1      27.392  -2.261  52.393  1.00  0.00     0.088 C 
HETATM    3  C2  UNL     1      26.709  -1.184  51.795  1.00  0.00     0.106 C 
HETATM    4  C3  UNL     1      27.009   0.028  52.119  1.00  0.00    -0.012 C 
HETATM    5  C4  UNL     1      26.388   1.368  51.583  1.00  0.00     0.029 C 
HETATM    6  C5  UNL     1      26.382   2.364  52.557  1.00  0.00     0.084 C 
HETATM    7  N2  UNL     1      27.178   2.414  53.826  1.00  0.00    -0.388 N 
HETATM    8  C6  UNL     1      28.370   1.794  54.261  1.00  0.00     0.131 C 
HETATM    9  C7  UNL     1      28.328   0.645  55.259  1.00  0.00     0.039 C 
HETATM   10  C8  UNL     1      27.445  -0.060  54.574  1.00  0.00     0.078 C 
HETATM   11  C16 UNL     1      28.041   0.333  53.239  1.00  0.00     0.006 C 
HETATM   12  C17 UNL     1      29.130   1.095  53.207  1.00  0.00     0.017 C 
HETATM   13  H4  UNL     1      26.639   3.101  54.438  1.00  0.00     0.159 HD
ENDROOT
BRANCH  10  14
HETATM   14  O1  UNL     1      26.365  -0.882  54.880  1.00  0.00    -0.346 OA
BRANCH  14  15
HETATM   15  C9  UNL     1      25.276  -0.381  55.654  1.00  0.00     0.214 C 
BRANCH  15  16
HETATM   16  C10 UNL     1      24.032  -0.649  54.934  1.00  0.00    -0.034 A 
HETATM   17  C11 UNL     1      23.807  -0.102  53.690  1.00  0.00     0.009 A 
HETATM   18  C12 UNL     1      22.659  -0.320  52.969  1.00  0.00     0.001 A 
HETATM   19  C13 UNL     1      21.650  -1.114  53.461  1.00  0.00     0.000 A 
HETATM   20  C14 UNL     1      21.850  -1.675  54.710  1.00  0.00     0.001 A 
HETATM   21  C15 UNL     1      23.010  -1.449  55.427  1.00  0.00     0.009 A 
ENDBRANCH  15  16
ENDBRANCH  14  15
ENDBRANCH  10  14
TORSDOF 3
ENDMDL
MODEL 2
REMARK VINA RESULT:      -7.1      2.793      5.732
REMARK  3 active torsions:
REMARK  status: ('A' for Active; 'I' for Inactive)
REMARK    1  A    between atoms: C8_10  and  O1_11 
REMARK    2  A    between atoms: O1_11  and  C9_12 
REMARK    3  A    between atoms: C9_12  and  C10_13 
ROOT
HETATM    1  N1  UNL     1      24.914   2.914  53.480  1.00  0.00    -0.192 NA
HETATM    2  C1  UNL     1      24.483   2.636  52.461  1.00  0.00     0.088 C 
HETATM    3  C2  UNL     1      23.948   2.318  51.197  1.00  0.00     0.106 C 
HETATM    4  C3  UNL     1      22.713   1.959  51.092  1.00  0.00    -0.012 C 
HETATM    5  C4  UNL     1      21.914   1.566  49.798  1.00  0.00     0.029 C 
HETATM    6  C5  UNL     1      20.938   0.608  50.062  1.00  0.00     0.084 C 
HETATM    7  N2  UNL     1      20.361   0.224  51.390  1.00  0.00    -0.388 N 
HETATM    8  C6  UNL     1      20.273   0.867  52.644  1.00  0.00     0.131 C 
HETATM    9  C7  UNL     1      21.173   0.448  53.798  1.00  0.00     0.039 C 
HETATM   10  C8  UNL     1      22.291   0.541  53.101  1.00  0.00     0.078 C 
HETATM   11  C16 UNL     1      21.820   1.766  52.347  1.00  0.00     0.006 C 
HETATM   12  C17 UNL     1      20.636   2.297  52.638  1.00  0.00     0.017 C 
HETATM   13  H4  UNL     1      19.953  -0.748  51.221  1.00  0.00     0.159 HD
ENDROOT
BRANCH  10  14
HETATM   14  O1  UNL     1      23.490  -0.162  53.033  1.00  0.00    -0.346 OA
BRANCH  14  15
HETATM   15  C9  UNL     1      24.120  -0.630  54.225  1.00  0.00     0.214 C 
BRANCH  15  16
HETATM   16  C10 UNL     1      25.568  -0.519  54.061  1.00  0.00    -0.034 A 
HETATM   17  C11 UNL     1      26.189  -1.013  52.935  1.00  0.00     0.009 A 
HETATM   18  C12 UNL     1      27.544  -0.935  52.729  1.00  0.00     0.001 A 
HETATM   19  C13 UNL     1      28.372  -0.346  53.655  1.00  0.00     0.000 A 
HETATM   20  C14 UNL     1      27.774   0.159  54.796  1.00  0.00     0.001 A 
HETATM   21  C15 UNL     1      26.409   0.075  54.994  1.00  0.00     0.009 A 
ENDBRANCH  15  16
ENDBRANCH  14  15
ENDBRANCH  10  14
TORSDOF 3
ENDMDL
MODEL 3
REMARK VINA RESULT:      -7.1      2.451      3.896
REMARK  3 active torsions:
REMARK  status: ('A' for Active; 'I' for Inactive)
REMARK    1  A    between atoms: C8_10  and  O1_11 
REMARK    2  A    between atoms: O1_11  and  C9_12 
REMARK    3  A    between atoms: C9_12  and  C10_13 
ROOT
HETATM    1  N1  UNL     1      24.345   0.049  53.326  1.00  0.00    -0.192 NA
HETATM    2  C1  UNL     1      25.267  -0.588  53.110  1.00  0.00     0.088 C 
HETATM    3  C2  UNL     1      26.398  -1.390  52.862  1.00  0.00     0.106 C 
HETATM    4  C3  UNL     1      27.556  -1.022  53.296  1.00  0.00    -0.012 C 
HETATM    5  C4  UNL     1      28.938  -1.752  53.141  1.00  0.00     0.029 C 
HETATM    6  C5  UNL     1      29.997  -0.849  53.058  1.00  0.00     0.084 C 
HETATM    7  N2  UNL     1      30.003   0.598  53.448  1.00  0.00    -0.388 N 
HETATM    8  C6  UNL     1      29.211   1.384  54.312  1.00  0.00     0.131 C 
HETATM    9  C7  UNL     1      28.178   2.353  53.752  1.00  0.00     0.039 C 
HETATM   10  C8  UNL     1      27.595   1.453  52.980  1.00  0.00     0.078 C 
HETATM   11  C16 UNL     1      27.756   0.348  54.001  1.00  0.00     0.006 C 
HETATM   12  C17 UNL     1      28.296   0.624  55.185  1.00  0.00     0.017 C 
HETATM   13  H4  UNL     1      30.829   1.004  52.907  1.00  0.00     0.159 HD
ENDROOT
BRANCH  10  14
HETATM   14  O1  UNL     1      27.018   1.443  51.714  1.00  0.00    -0.346 OA
BRANCH  14  15
HETATM   15  C9  UNL     1      26.572   2.660  51.116  1.00  0.00     0.214 C 
BRANCH  15  16
HETATM   16  C10 UNL     1      25.125   2.763  51.294  1.00  0.00    -0.034 A 
HETATM   17  C11 UNL     1      24.595   3.421  52.383  1.00  0.00     0.009 A 
HETATM   18  C12 UNL     1      23.245   3.548  52.599  1.00  0.00     0.001 A 
HETATM   19  C13 UNL     1      22.330   3.016  51.722  1.00  0.00     0.000 A 
HETATM   20  C14 UNL     1      22.836   2.350  50.620  1.00  0.00     0.001 A 
HETATM   21  C15 UNL     1      24.197   2.227  50.411  1.00  0.00     0.009 A 
ENDBRANCH  15  16
ENDBRANCH  14  15
ENDBRANCH  10  14
TORSDOF 3
ENDMDL
MODEL 4
REMARK VINA RESULT:      -6.9      2.835      5.360
REMARK  3 active torsions:
REMARK  status: ('A' for Active; 'I' for Inactive)
REMARK    1  A    between atoms: C8_10  and  O1_11 
REMARK    2  A    between atoms: O1_11  and  C9_12 
REMARK    3  A    between atoms: C9_12  and  C10_13 
ROOT
HETATM    1  N1  UNL     1      23.311   0.283  52.427  1.00  0.00    -0.192 NA
HETATM    2  C1  UNL     1      23.155   1.410  52.527  1.00  0.00     0.088 C 
HETATM    3  C2  UNL     1      22.939   2.797  52.641  1.00  0.00     0.106 C 
HETATM    4  C3  UNL     1      23.477   3.604  51.789  1.00  0.00    -0.012 C 
HETATM    5  C4  UNL     1      23.372   5.169  51.722  1.00  0.00     0.029 C 
HETATM    6  C5  UNL     1      24.535   5.747  51.216  1.00  0.00     0.084 C 
HETATM    7  N2  UNL     1      25.632   5.080  50.444  1.00  0.00    -0.388 N 
HETATM    8  C6  UNL     1      25.711   3.900  49.673  1.00  0.00     0.131 C 
HETATM    9  C7  UNL     1      26.413   2.663  50.215  1.00  0.00     0.039 C 
HETATM   10  C8  UNL     1      25.741   2.648  51.353  1.00  0.00     0.078 C 
HETATM   11  C16 UNL     1      24.451   3.089  50.694  1.00  0.00     0.006 C 
HETATM   12  C17 UNL     1      24.415   3.261  49.376  1.00  0.00     0.017 C 
HETATM   13  H4  UNL     1      26.466   5.734  50.568  1.00  0.00     0.159 HD
ENDROOT
BRANCH  10  14
HETATM   14  O1  UNL     1      26.026   2.346  52.680  1.00  0.00    -0.346 OA
BRANCH  14  15
HETATM   15  C9  UNL     1      27.378   2.286  53.131  1.00  0.00     0.214 C 
BRANCH  15  16
HETATM   16  C10 UNL     1      27.801   0.887  53.150  1.00  0.00    -0.034 A 
HETATM   17  C11 UNL     1      26.940  -0.115  52.757  1.00  0.00     0.009 A 
HETATM   18  C12 UNL     1      27.284  -1.443  52.753  1.00  0.00     0.001 A 
HETATM   19  C13 UNL     1      28.535  -1.856  53.149  1.00  0.00     0.000 A 
HETATM   20  C14 UNL     1      29.419  -0.870  53.549  1.00  0.00     0.001 A 
HETATM   21  C15 UNL     1      29.063   0.465  53.549  1.00  0.00     0.009 A 
ENDBRANCH  15  16
ENDBRANCH  14  15
ENDBRANCH  10  14
TORSDOF 3
ENDMDL
MODEL 5
REMARK VINA RESULT:      -6.7      3.320      5.740
REMARK  3 active torsions:
REMARK  status: ('A' for Active; 'I' for Inactive)
REMARK    1  A    between atoms: C8_10  and  O1_11 
REMARK    2  A    between atoms: O1_11  and  C9_12 
REMARK    3  A    between atoms: C9_12  and  C10_13 
ROOT
HETATM    1  N1  UNL     1      23.682   3.917  52.833  1.00  0.00    -0.192 NA
HETATM    2  C1  UNL     1      23.690   2.776  52.788  1.00  0.00     0.088 C 
HETATM    3  C2  UNL     1      23.687   1.368  52.754  1.00  0.00     0.106 C 
HETATM    4  C3  UNL     1      24.739   0.713  53.113  1.00  0.00    -0.012 C 
HETATM    5  C4  UNL     1      24.957  -0.842  53.157  1.00  0.00     0.029 C 
HETATM    6  C5  UNL     1      26.280  -1.189  52.888  1.00  0.00     0.084 C 
HETATM    7  N2  UNL     1      27.489  -0.306  52.932  1.00  0.00    -0.388 N 
HETATM    8  C6  UNL     1      27.789   0.915  53.575  1.00  0.00     0.131 C 
HETATM    9  C7  UNL     1      27.840   2.216  52.787  1.00  0.00     0.039 C 
HETATM   10  C8  UNL     1      26.651   2.053  52.233  1.00  0.00     0.078 C 
HETATM   11  C16 UNL     1      26.057   1.445  53.485  1.00  0.00     0.006 C 
HETATM   12  C17 UNL     1      26.803   1.348  54.582  1.00  0.00     0.017 C 
HETATM   13  H4  UNL     1      28.203  -0.819  52.327  1.00  0.00     0.159 HD
ENDROOT
BRANCH  10  14
HETATM   14  O1  UNL     1      26.079   2.319  50.992  1.00  0.00    -0.346 OA
BRANCH  14  15
HETATM   15  C9  UNL     1      26.626   3.332  50.150  1.00  0.00     0.214 C 
BRANCH  15  16
HETATM   16  C10 UNL     1      25.524   4.068  49.532  1.00  0.00    -0.034 A 
HETATM   17  C11 UNL     1      24.323   3.446  49.265  1.00  0.00     0.009 A 
HETATM   18  C12 UNL     1      23.256   4.088  48.688  1.00  0.00     0.001 A 
HETATM   19  C13 UNL     1      23.328   5.416  48.339  1.00  0.00     0.000 A 
HETATM   20  C14 UNL     1      24.523   6.065  48.596  1.00  0.00     0.001 A 
HETATM   21  C15 UNL     1      25.592   5.409  49.177  1.00  0.00     0.009 A 
ENDBRANCH  15  16
ENDBRANCH  14  15
ENDBRANCH  10  14
TORSDOF 3
ENDMDL
MODEL 6
REMARK VINA RESULT:      -6.7      8.741     11.098
REMARK  3 active torsions:
REMARK  status: ('A' for Active; 'I' for Inactive)
REMARK    1  A    between atoms: C8_10  and  O1_11 
REMARK    2  A    between atoms: O1_11  and  C9_12 
REMARK    3  A    between atoms: C9_12  and  C10_13 
ROOT
HETATM    1  N1  UNL     1      35.225   7.816  48.253  1.00  0.00    -0.192 NA
HETATM    2  C1  UNL     1      35.063   6.702  48.441  1.00  0.00     0.088 C 
HETATM    3  C2  UNL     1      34.888   5.323  48.669  1.00  0.00     0.106 C 
HETATM    4  C3  UNL     1      34.465   4.561  47.718  1.00  0.00    -0.012 C 
HETATM    5  C4  UNL     1      34.203   3.013  47.746  1.00  0.00     0.029 C 
HETATM    6  C5  UNL     1      33.154   2.648  46.905  1.00  0.00     0.084 C 
HETATM    7  N2  UNL     1      32.551   3.445  45.788  1.00  0.00    -0.388 N 
HETATM    8  C6  UNL     1      33.006   4.518  44.992  1.00  0.00     0.131 C 
HETATM    9  C7  UNL     1      32.492   5.932  45.226  1.00  0.00     0.039 C 
HETATM   10  C8  UNL     1      32.756   5.930  46.521  1.00  0.00     0.078 C 
HETATM   11  C16 UNL     1      34.039   5.147  46.344  1.00  0.00     0.006 C 
HETATM   12  C17 UNL     1      34.444   4.823  45.119  1.00  0.00     0.017 C 
HETATM   13  H4  UNL     1      31.587   3.007  45.653  1.00  0.00     0.159 HD
ENDROOT
BRANCH  10  14
HETATM   14  O1  UNL     1      32.152   6.436  47.668  1.00  0.00    -0.346 OA
BRANCH  14  15
HETATM   15  C9  UNL     1      31.184   7.480  47.570  1.00  0.00     0.214 C 
BRANCH  15  16
HETATM   16  C10 UNL     1      29.868   6.925  47.883  1.00  0.00    -0.034 A 
HETATM   17  C11 UNL     1      28.758   7.739  47.950  1.00  0.00     0.009 A 
HETATM   18  C12 UNL     1      27.500   7.272  48.238  1.00  0.00     0.001 A 
HETATM   19  C13 UNL     1      27.275   5.938  48.481  1.00  0.00     0.000 A 
HETATM   20  C14 UNL     1      28.373   5.098  48.421  1.00  0.00     0.001 A 
HETATM   21  C15 UNL     1      29.636   5.578  48.130  1.00  0.00     0.009 A 
ENDBRANCH  15  16
ENDBRANCH  14  15
ENDBRANCH  10  14
TORSDOF 3
ENDMDL
MODEL 7
REMARK VINA RESULT:      -6.6      3.874      5.434
REMARK  3 active torsions:
REMARK  status: ('A' for Active; 'I' for Inactive)
REMARK    1  A    between atoms: C8_10  and  O1_11 
REMARK    2  A    between atoms: O1_11  and  C9_12 
REMARK    3  A    between atoms: C9_12  and  C10_13 
ROOT
HETATM    1  N1  UNL     1      21.713   1.223  48.357  1.00  0.00    -0.192 NA
HETATM    2  C1  UNL     1      21.475   1.978  49.179  1.00  0.00     0.088 C 
HETATM    3  C2  UNL     1      21.167   2.923  50.178  1.00  0.00     0.106 C 
HETATM    4  C3  UNL     1      22.023   3.840  50.481  1.00  0.00    -0.012 C 
HETATM    5  C4  UNL     1      21.893   4.987  51.547  1.00  0.00     0.029 C 
HETATM    6  C5  UNL     1      23.124   5.311  52.114  1.00  0.00     0.084 C 
HETATM    7  N2  UNL     1      24.490   4.983  51.595  1.00  0.00    -0.388 N 
HETATM    8  C6  UNL     1      25.002   4.652  50.321  1.00  0.00     0.131 C 
HETATM    9  C7  UNL     1      25.392   3.218  49.989  1.00  0.00     0.039 C 
HETATM   10  C8  UNL     1      24.240   2.701  50.378  1.00  0.00     0.078 C 
HETATM   11  C16 UNL     1      23.438   3.867  49.843  1.00  0.00     0.006 C 
HETATM   12  C17 UNL     1      24.063   4.851  49.201  1.00  0.00     0.017 C 
HETATM   13  H4  UNL     1      25.116   5.063  52.455  1.00  0.00     0.159 HD
ENDROOT
BRANCH  10  14
HETATM   14  O1  UNL     1      23.831   1.537  51.022  1.00  0.00    -0.346 OA
BRANCH  14  15
HETATM   15  C9  UNL     1      24.390   1.179  52.285  1.00  0.00     0.214 C 
BRANCH  15  16
HETATM   16  C10 UNL     1      23.343   0.567  53.101  1.00  0.00    -0.034 A 
HETATM   17  C11 UNL     1      23.618  -0.522  53.900  1.00  0.00     0.009 A 
HETATM   18  C12 UNL     1      22.675  -1.134  54.687  1.00  0.00     0.001 A 
HETATM   19  C13 UNL     1      21.375  -0.684  54.720  1.00  0.00     0.000 A 
HETATM   20  C14 UNL     1      21.072   0.407  53.927  1.00  0.00     0.001 A 
HETATM   21  C15 UNL     1      22.030   1.017  53.138  1.00  0.00     0.009 A 
ENDBRANCH  15  16
ENDBRANCH  14  15
ENDBRANCH  10  14
TORSDOF 3
ENDMDL
MODEL 8
REMARK VINA RESULT:      -6.6      4.982      7.950
REMARK  3 active torsions:
REMARK  status: ('A' for Active; 'I' for Inactive)
REMARK    1  A    between atoms: C8_10  and  O1_11 
REMARK    2  A    between atoms: O1_11  and  C9_12 
REMARK    3  A    between atoms: C9_12  and  C10_13 
ROOT
HETATM    1  N1  UNL     1      21.322   3.518  48.111  1.00  0.00    -0.192 NA
HETATM    2  C1  UNL     1      21.824   2.774  48.816  1.00  0.00     0.088 C 
HETATM    3  C2  UNL     1      22.421   1.847  49.692  1.00  0.00     0.106 C 
HETATM    4  C3  UNL     1      22.770   2.214  50.879  1.00  0.00    -0.012 C 
HETATM    5  C4  UNL     1      23.442   1.358  52.011  1.00  0.00     0.029 C 
HETATM    6  C5  UNL     1      24.292   2.124  52.807  1.00  0.00     0.084 C 
HETATM    7  N2  UNL     1      24.340   3.617  52.929  1.00  0.00    -0.388 N 
HETATM    8  C6  UNL     1      23.417   4.652  52.666  1.00  0.00     0.131 C 
HETATM    9  C7  UNL     1      23.570   5.535  51.436  1.00  0.00     0.039 C 
HETATM   10  C8  UNL     1      23.665   4.525  50.589  1.00  0.00     0.078 C 
HETATM   11  C16 UNL     1      22.644   3.693  51.335  1.00  0.00     0.006 C 
HETATM   12  C17 UNL     1      22.036   4.205  52.401  1.00  0.00     0.017 C 
HETATM   13  H4  UNL     1      25.316   3.810  53.315  1.00  0.00     0.159 HD
ENDROOT
BRANCH  10  14
HETATM   14  O1  UNL     1      24.388   4.253  49.431  1.00  0.00    -0.346 OA
BRANCH  14  15
HETATM   15  C9  UNL     1      25.758   3.863  49.512  1.00  0.00     0.214 C 
BRANCH  15  16
HETATM   16  C10 UNL     1      26.582   4.938  48.963  1.00  0.00    -0.034 A 
HETATM   17  C11 UNL     1      27.918   4.734  48.693  1.00  0.00     0.009 A 
HETATM   18  C12 UNL     1      28.737   5.706  48.176  1.00  0.00     0.001 A 
HETATM   19  C13 UNL     1      28.258   6.964  47.894  1.00  0.00     0.000 A 
HETATM   20  C14 UNL     1      26.920   7.195  48.156  1.00  0.00     0.001 A 
HETATM   21  C15 UNL     1      26.103   6.209  48.676  1.00  0.00     0.009 A 
ENDBRANCH  15  16
ENDBRANCH  14  15
ENDBRANCH  10  14
TORSDOF 3
ENDMDL
MODEL 9
REMARK VINA RESULT:      -6.4      4.063      6.598
REMARK  3 active torsions:
REMARK  status: ('A' for Active; 'I' for Inactive)
REMARK    1  A    between atoms: C8_10  and  O1_11 
REMARK    2  A    between atoms: O1_11  and  C9_12 
REMARK    3  A    between atoms: C9_12  and  C10_13 
ROOT
HETATM    1  N1  UNL     1      24.516   5.221  50.780  1.00  0.00    -0.192 NA
HETATM    2  C1  UNL     1      24.200   4.319  50.157  1.00  0.00     0.088 C 
HETATM    3  C2  UNL     1      23.809   3.220  49.367  1.00  0.00     0.106 C 
HETATM    4  C3  UNL     1      22.579   2.830  49.370  1.00  0.00    -0.012 C 
HETATM    5  C4  UNL     1      21.925   1.644  48.575  1.00  0.00     0.029 C 
HETATM    6  C5  UNL     1      20.874   1.062  49.280  1.00  0.00     0.084 C 
HETATM    7  N2  UNL     1      20.118   1.633  50.441  1.00  0.00    -0.388 N 
HETATM    8  C6  UNL     1      19.911   2.942  50.928  1.00  0.00     0.131 C 
HETATM    9  C7  UNL     1      20.638   3.433  52.172  1.00  0.00     0.039 C 
HETATM   10  C8  UNL     1      21.837   3.087  51.739  1.00  0.00     0.078 C 
HETATM   11  C16 UNL     1      21.528   3.481  50.311  1.00  0.00     0.006 C 
HETATM   12  C17 UNL     1      20.348   4.021  50.022  1.00  0.00     0.017 C 
HETATM   13  H4  UNL     1      19.683   0.778  50.908  1.00  0.00     0.159 HD
ENDROOT
BRANCH  10  14
HETATM   14  O1  UNL     1      22.996   2.568  52.307  1.00  0.00    -0.346 OA
BRANCH  14  15
HETATM   15  C9  UNL     1      23.010   1.238  52.826  1.00  0.00     0.214 C 
BRANCH  15  16
HETATM   16  C10 UNL     1      24.363   0.700  52.690  1.00  0.00    -0.034 A 
HETATM   17  C11 UNL     1      24.723  -0.469  53.325  1.00  0.00     0.009 A 
HETATM   18  C12 UNL     1      25.976  -1.020  53.231  1.00  0.00     0.001 A 
HETATM   19  C13 UNL     1      26.962  -0.422  52.482  1.00  0.00     0.000 A 
HETATM   20  C14 UNL     1      26.627   0.754  51.834  1.00  0.00     0.001 A 
HETATM   21  C15 UNL     1      25.362   1.300  51.935  1.00  0.00     0.009 A 
ENDBRANCH  15  16
ENDBRANCH  14  15
ENDBRANCH  10  14
TORSDOF 3
ENDMDL
