MODEL 1
REMARK VINA RESULT:      -8.3      0.000      0.000
REMARK  4 active torsions:
REMARK  status: ('A' for Active; 'I' for Inactive)
REMARK    1  A    between atoms: O1_2  and  C2_3 
REMARK    2  A    between atoms: C6_9  and  N3_10 
REMARK    3  A    between atoms: N3_10  and  C7_11 
REMARK    4  A    between atoms: C16_22  and  O2_23 
ROOT
HETATM    1  C2  UNL     1      20.690   2.760  52.286  1.00  0.00     0.103 A 
HETATM    2  C3  UNL     1      20.037   1.699  52.814  1.00  0.00     0.072 A 
HETATM    3  C4  UNL     1      20.815   0.604  53.281  1.00  0.00     0.075 A 
HETATM    4  N1  UNL     1      20.343  -0.439  53.821  1.00  0.00    -0.241 NA
HETATM    5  C5  UNL     1      21.002  -1.499  54.322  1.00  0.00     0.236 A 
HETATM    6  N2  UNL     1      22.352  -1.372  54.194  1.00  0.00    -0.223 NA
HETATM    7  C6  UNL     1      22.974  -0.331  53.643  1.00  0.00     0.143 A 
HETATM    8  C14 UNL     1      22.195   0.692  53.160  1.00  0.00     0.042 A 
HETATM    9  C15 UNL     1      22.867   1.774  52.615  1.00  0.00     0.057 A 
HETATM   10  C16 UNL     1      22.106   2.813  52.177  1.00  0.00     0.102 A 
ENDROOT
BRANCH   7  11
HETATM   11  N3  UNL     1      24.324  -0.288  53.752  1.00  0.00    -0.324 N 
HETATM   12  H6  UNL     1      24.488  -0.627  52.742  1.00  0.00     0.169 HD
BRANCH  11  13
HETATM   13  C7  UNL     1      25.736  -0.229  53.896  1.00  0.00     0.147 A 
HETATM   14  C8  UNL     1      26.134   1.044  54.336  1.00  0.00     0.167 A 
HETATM   15  N4  UNL     1      27.513   1.294  54.388  1.00  0.00    -0.255 NA
HETATM   16  C9  UNL     1      28.245   0.235  53.991  1.00  0.00     0.081 A 
HETATM   17  C10 UNL     1      27.914  -1.040  53.555  1.00  0.00     0.069 A 
HETATM   18  C13 UNL     1      29.713   0.403  53.893  1.00  0.00     0.030 A 
HETATM   19  N5  UNL     1      26.595  -1.203  53.535  1.00  0.00    -0.232 NA
HETATM   20  C11 UNL     1      29.155  -1.759  53.192  1.00  0.00     0.089 A 
HETATM   21  C12 UNL     1      30.215  -0.734  53.433  1.00  0.00    -0.018 A 
ENDBRANCH  11  13
ENDBRANCH   7  11
BRANCH  10  22
HETATM   22  O2  UNL     1      22.733   3.945  51.607  1.00  0.00    -0.353 OA
HETATM   23  C17 UNL     1      23.407   4.804  52.529  1.00  0.00     0.210 C 
ENDBRANCH  10  22
BRANCH   1  24
HETATM   24  O1  UNL     1      20.097   3.879  51.826  1.00  0.00    -0.353 OA
HETATM   25  C1  UNL     1      19.196   3.836  50.726  1.00  0.00     0.210 C 
ENDBRANCH   1  24
TORSDOF 4
ENDMDL
MODEL 2
REMARK VINA RESULT:      -8.1      2.548      3.469
REMARK  4 active torsions:
REMARK  status: ('A' for Active; 'I' for Inactive)
REMARK    1  A    between atoms: O1_2  and  C2_3 
REMARK    2  A    between atoms: C6_9  and  N3_10 
REMARK    3  A    between atoms: N3_10  and  C7_11 
REMARK    4  A    between atoms: C16_22  and  O2_23 
ROOT
HETATM    1  C2  UNL     1      19.994  -0.382  52.974  1.00  0.00     0.103 A 
HETATM    2  C3  UNL     1      19.912   0.388  51.865  1.00  0.00     0.072 A 
HETATM    3  C4  UNL     1      21.098   1.024  51.407  1.00  0.00     0.075 A 
HETATM    4  N1  UNL     1      21.177   1.748  50.372  1.00  0.00    -0.241 NA
HETATM    5  C5  UNL     1      22.257   2.354  49.848  1.00  0.00     0.236 A 
HETATM    6  N2  UNL     1      23.382   2.120  50.579  1.00  0.00    -0.223 NA
HETATM    7  C6  UNL     1      23.435   1.382  51.686  1.00  0.00     0.143 A 
HETATM    8  C14 UNL     1      22.264   0.817  52.130  1.00  0.00     0.042 A 
HETATM    9  C15 UNL     1      22.352   0.034  53.270  1.00  0.00     0.057 A 
HETATM   10  C16 UNL     1      21.207  -0.568  53.691  1.00  0.00     0.102 A 
ENDROOT
BRANCH   7  11
HETATM   11  N3  UNL     1      24.663   1.112  52.192  1.00  0.00    -0.324 N 
HETATM   12  H6  UNL     1      25.100   0.924  51.224  1.00  0.00     0.169 HD
BRANCH  11  13
HETATM   13  C7  UNL     1      25.939   0.837  52.752  1.00  0.00     0.147 A 
HETATM   14  C8  UNL     1      26.524   2.013  53.248  1.00  0.00     0.167 A 
HETATM   15  N4  UNL     1      27.847   1.920  53.704  1.00  0.00    -0.255 NA
HETATM   16  C9  UNL     1      28.349   0.675  53.581  1.00  0.00     0.081 A 
HETATM   17  C10 UNL     1      27.824  -0.519  53.110  1.00  0.00     0.069 A 
HETATM   18  C13 UNL     1      29.773   0.465  53.924  1.00  0.00     0.030 A 
HETATM   19  N5  UNL     1      26.570  -0.353  52.699  1.00  0.00    -0.232 NA
HETATM   20  C11 UNL     1      28.877  -1.558  53.160  1.00  0.00     0.089 A 
HETATM   21  C12 UNL     1      30.060  -0.805  53.675  1.00  0.00    -0.018 A 
ENDBRANCH  11  13
ENDBRANCH   7  11
BRANCH  10  22
HETATM   22  O2  UNL     1      21.230  -1.378  54.850  1.00  0.00    -0.353 OA
HETATM   23  C17 UNL     1      22.529  -1.682  55.363  1.00  0.00     0.210 C 
ENDBRANCH  10  22
BRANCH   1  24
HETATM   24  O1  UNL     1      18.968  -1.067  53.515  1.00  0.00    -0.353 OA
HETATM   25  C1  UNL     1      17.716  -1.168  52.846  1.00  0.00     0.210 C 
ENDBRANCH   1  24
TORSDOF 4
ENDMDL
MODEL 3
REMARK VINA RESULT:      -7.7      3.114      7.692
REMARK  4 active torsions:
REMARK  status: ('A' for Active; 'I' for Inactive)
REMARK    1  A    between atoms: O1_2  and  C2_3 
REMARK    2  A    between atoms: C6_9  and  N3_10 
REMARK    3  A    between atoms: N3_10  and  C7_11 
REMARK    4  A    between atoms: C16_22  and  O2_23 
ROOT
HETATM    1  C2  UNL     1      27.252   0.723  53.841  1.00  0.00     0.103 A 
HETATM    2  C3  UNL     1      27.415   1.621  52.843  1.00  0.00     0.072 A 
HETATM    3  C4  UNL     1      26.285   1.931  52.036  1.00  0.00     0.075 A 
HETATM    4  N1  UNL     1      26.282   2.770  51.088  1.00  0.00    -0.241 NA
HETATM    5  C5  UNL     1      25.259   3.149  50.303  1.00  0.00     0.236 A 
HETATM    6  N2  UNL     1      24.102   2.504  50.619  1.00  0.00    -0.223 NA
HETATM    7  C6  UNL     1      23.971   1.600  51.588  1.00  0.00     0.143 A 
HETATM    8  C14 UNL     1      25.089   1.288  52.322  1.00  0.00     0.042 A 
HETATM    9  C15 UNL     1      24.920   0.363  53.339  1.00  0.00     0.057 A 
HETATM   10  C16 UNL     1      26.011   0.081  54.102  1.00  0.00     0.102 A 
ENDROOT
BRANCH   7  11
HETATM   11  N3  UNL     1      22.715   1.184  51.881  1.00  0.00    -0.324 N 
HETATM   12  H6  UNL     1      22.751   1.553  52.893  1.00  0.00     0.169 HD
BRANCH  11  13
HETATM   13  C7  UNL     1      21.394   0.739  52.156  1.00  0.00     0.147 A 
HETATM   14  C8  UNL     1      21.341   0.088  53.399  1.00  0.00     0.167 A 
HETATM   15  N4  UNL     1      20.129  -0.529  53.741  1.00  0.00    -0.255 NA
HETATM   16  C9  UNL     1      19.191  -0.390  52.784  1.00  0.00     0.081 A 
HETATM   17  C10 UNL     1      19.179   0.242  51.548  1.00  0.00     0.069 A 
HETATM   18  C13 UNL     1      17.900  -1.089  52.971  1.00  0.00     0.030 A 
HETATM   19  N5  UNL     1      20.358   0.804  51.296  1.00  0.00    -0.232 NA
HETATM   20  C11 UNL     1      17.870   0.006  50.902  1.00  0.00     0.089 A 
HETATM   21  C12 UNL     1      17.163  -0.860  51.893  1.00  0.00    -0.018 A 
ENDBRANCH  11  13
ENDBRANCH   7  11
BRANCH  10  22
HETATM   22  O2  UNL     1      25.904  -0.857  55.155  1.00  0.00    -0.353 OA
HETATM   23  C17 UNL     1      24.571  -1.216  55.526  1.00  0.00     0.210 C 
ENDBRANCH  10  22
BRANCH   1  24
HETATM   24  O1  UNL     1      28.216   0.346  54.703  1.00  0.00    -0.353 OA
HETATM   25  C1  UNL     1      29.400  -0.299  54.249  1.00  0.00     0.210 C 
ENDBRANCH   1  24
TORSDOF 4
ENDMDL
MODEL 4
REMARK VINA RESULT:      -7.6      3.420      6.960
REMARK  4 active torsions:
REMARK  status: ('A' for Active; 'I' for Inactive)
REMARK    1  A    between atoms: O1_2  and  C2_3 
REMARK    2  A    between atoms: C6_9  and  N3_10 
REMARK    3  A    between atoms: N3_10  and  C7_11 
REMARK    4  A    between atoms: C16_22  and  O2_23 
ROOT
HETATM    1  C2  UNL     1      26.469   0.011  54.229  1.00  0.00     0.103 A 
HETATM    2  C3  UNL     1      25.406  -0.787  53.978  1.00  0.00     0.072 A 
HETATM    3  C4  UNL     1      24.227  -0.182  53.462  1.00  0.00     0.075 A 
HETATM    4  N1  UNL     1      23.170  -0.806  53.155  1.00  0.00    -0.241 NA
HETATM    5  C5  UNL     1      22.030  -0.323  52.629  1.00  0.00     0.236 A 
HETATM    6  N2  UNL     1      22.086   1.023  52.431  1.00  0.00    -0.223 NA
HETATM    7  C6  UNL     1      23.133   1.795  52.713  1.00  0.00     0.143 A 
HETATM    8  C14 UNL     1      24.242   1.190  53.253  1.00  0.00     0.042 A 
HETATM    9  C15 UNL     1      25.327   2.011  53.514  1.00  0.00     0.057 A 
HETATM   10  C16 UNL     1      26.446   1.414  54.005  1.00  0.00     0.102 A 
ENDROOT
BRANCH   7  11
HETATM   11  N3  UNL     1      23.084   3.083  52.294  1.00  0.00    -0.324 N 
HETATM   12  H6  UNL     1      22.013   3.150  52.391  1.00  0.00     0.169 HD
BRANCH  11  13
HETATM   13  C7  UNL     1      23.066   4.433  51.854  1.00  0.00     0.147 A 
HETATM   14  C8  UNL     1      21.746   4.878  51.677  1.00  0.00     0.167 A 
HETATM   15  N4  UNL     1      21.575   6.149  51.111  1.00  0.00    -0.255 NA
HETATM   16  C9  UNL     1      22.747   6.746  50.820  1.00  0.00     0.081 A 
HETATM   17  C10 UNL     1      24.073   6.366  50.975  1.00  0.00     0.069 A 
HETATM   18  C13 UNL     1      22.707   8.047  50.115  1.00  0.00     0.030 A 
HETATM   19  N5  UNL     1      24.154   5.155  51.519  1.00  0.00    -0.232 NA
HETATM   20  C11 UNL     1      24.942   7.420  50.408  1.00  0.00     0.089 A 
HETATM   21  C12 UNL     1      23.959   8.415  49.883  1.00  0.00    -0.018 A 
ENDBRANCH  11  13
ENDBRANCH   7  11
BRANCH  10  22
HETATM   22  O2  UNL     1      27.586   2.199  54.296  1.00  0.00    -0.353 OA
HETATM   23  C17 UNL     1      28.427   2.499  53.179  1.00  0.00     0.210 C 
ENDBRANCH  10  22
BRANCH   1  24
HETATM   24  O1  UNL     1      27.660  -0.415  54.694  1.00  0.00    -0.353 OA
HETATM   25  C1  UNL     1      28.625  -0.998  53.826  1.00  0.00     0.210 C 
ENDBRANCH   1  24
TORSDOF 4
ENDMDL
MODEL 5
REMARK VINA RESULT:      -7.4      4.281      5.994
REMARK  4 active torsions:
REMARK  status: ('A' for Active; 'I' for Inactive)
REMARK    1  A    between atoms: O1_2  and  C2_3 
REMARK    2  A    between atoms: C6_9  and  N3_10 
REMARK    3  A    between atoms: N3_10  and  C7_11 
REMARK    4  A    between atoms: C16_22  and  O2_23 
ROOT
HETATM    1  C2  UNL     1      22.557   0.285  53.438  1.00  0.00     0.103 A 
HETATM    2  C3  UNL     1      21.403   0.965  53.250  1.00  0.00     0.072 A 
HETATM    3  C4  UNL     1      21.455   2.164  52.486  1.00  0.00     0.075 A 
HETATM    4  N1  UNL     1      20.454   2.887  52.207  1.00  0.00    -0.241 NA
HETATM    5  C5  UNL     1      20.406   4.008  51.465  1.00  0.00     0.236 A 
HETATM    6  N2  UNL     1      21.631   4.359  50.986  1.00  0.00    -0.223 NA
HETATM    7  C6  UNL     1      22.760   3.690  51.208  1.00  0.00     0.143 A 
HETATM    8  C14 UNL     1      22.687   2.560  51.987  1.00  0.00     0.042 A 
HETATM    9  C15 UNL     1      23.872   1.869  52.181  1.00  0.00     0.057 A 
HETATM   10  C16 UNL     1      23.803   0.724  52.913  1.00  0.00     0.102 A 
ENDROOT
BRANCH   7  11
HETATM   11  N3  UNL     1      23.858   4.080  50.515  1.00  0.00    -0.324 N 
HETATM   12  H6  UNL     1      23.571   5.119  50.505  1.00  0.00     0.169 HD
BRANCH  11  13
HETATM   13  C7  UNL     1      25.020   4.459  49.792  1.00  0.00     0.147 A 
HETATM   14  C8  UNL     1      25.973   3.427  49.814  1.00  0.00     0.167 A 
HETATM   15  N4  UNL     1      27.228   3.712  49.258  1.00  0.00    -0.255 NA
HETATM   16  C9  UNL     1      27.311   4.971  48.785  1.00  0.00     0.081 A 
HETATM   17  C10 UNL     1      26.411   6.026  48.729  1.00  0.00     0.069 A 
HETATM   18  C13 UNL     1      28.619   5.436  48.273  1.00  0.00     0.030 A 
HETATM   19  N5  UNL     1      25.246   5.681  49.269  1.00  0.00    -0.232 NA
HETATM   20  C11 UNL     1      27.090   7.204  48.146  1.00  0.00     0.089 A 
HETATM   21  C12 UNL     1      28.481   6.705  47.919  1.00  0.00    -0.018 A 
ENDBRANCH  11  13
ENDBRANCH   7  11
BRANCH  10  22
HETATM   22  O2  UNL     1      24.978  -0.026  53.150  1.00  0.00    -0.353 OA
HETATM   23  C17 UNL     1      26.051   0.207  52.235  1.00  0.00     0.210 C 
ENDBRANCH  10  22
BRANCH   1  24
HETATM   24  O1  UNL     1      22.666  -0.876  54.114  1.00  0.00    -0.353 OA
HETATM   25  C1  UNL     1      21.512  -1.609  54.511  1.00  0.00     0.210 C 
ENDBRANCH   1  24
TORSDOF 4
ENDMDL
MODEL 6
REMARK VINA RESULT:      -7.4      2.552      6.632
REMARK  4 active torsions:
REMARK  status: ('A' for Active; 'I' for Inactive)
REMARK    1  A    between atoms: O1_2  and  C2_3 
REMARK    2  A    between atoms: C6_9  and  N3_10 
REMARK    3  A    between atoms: N3_10  and  C7_11 
REMARK    4  A    between atoms: C16_22  and  O2_23 
ROOT
HETATM    1  C2  UNL     1      25.777   3.387  50.246  1.00  0.00     0.103 A 
HETATM    2  C3  UNL     1      26.758   2.756  50.931  1.00  0.00     0.072 A 
HETATM    3  C4  UNL     1      26.376   1.820  51.931  1.00  0.00     0.075 A 
HETATM    4  N1  UNL     1      27.182   1.139  52.629  1.00  0.00    -0.241 NA
HETATM    5  C5  UNL     1      26.910   0.211  53.564  1.00  0.00     0.236 A 
HETATM    6  N2  UNL     1      25.571   0.034  53.737  1.00  0.00    -0.223 NA
HETATM    7  C6  UNL     1      24.620   0.688  53.072  1.00  0.00     0.143 A 
HETATM    8  C14 UNL     1      25.019   1.619  52.144  1.00  0.00     0.042 A 
HETATM    9  C15 UNL     1      24.011   2.267  51.449  1.00  0.00     0.057 A 
HETATM   10  C16 UNL     1      24.396   3.156  50.494  1.00  0.00     0.102 A 
ENDROOT
BRANCH   7  11
HETATM   11  N3  UNL     1      23.343   0.268  53.244  1.00  0.00    -0.324 N 
HETATM   12  H6  UNL     1      23.614  -0.498  53.953  1.00  0.00     0.169 HD
BRANCH  11  13
HETATM   13  C7  UNL     1      21.994  -0.147  53.406  1.00  0.00     0.147 A 
HETATM   14  C8  UNL     1      21.903  -1.166  54.368  1.00  0.00     0.167 A 
HETATM   15  N4  UNL     1      20.649  -1.772  54.532  1.00  0.00    -0.255 NA
HETATM   16  C9  UNL     1      19.715  -1.258  53.708  1.00  0.00     0.081 A 
HETATM   17  C10 UNL     1      19.741  -0.255  52.749  1.00  0.00     0.069 A 
HETATM   18  C13 UNL     1      18.375  -1.885  53.702  1.00  0.00     0.030 A 
HETATM   19  N5  UNL     1      20.958   0.273  52.653  1.00  0.00    -0.232 NA
HETATM   20  C11 UNL     1      18.410  -0.171  52.109  1.00  0.00     0.089 A 
HETATM   21  C12 UNL     1      17.647  -1.262  52.786  1.00  0.00    -0.018 A 
ENDBRANCH  11  13
ENDBRANCH   7  11
BRANCH  10  22
HETATM   22  O2  UNL     1      23.415   3.853  49.752  1.00  0.00    -0.353 OA
HETATM   23  C17 UNL     1      22.357   3.050  49.225  1.00  0.00     0.210 C 
ENDBRANCH  10  22
BRANCH   1  24
HETATM   24  O1  UNL     1      25.979   4.278  49.255  1.00  0.00    -0.353 OA
HETATM   25  C1  UNL     1      27.290   4.696  48.896  1.00  0.00     0.210 C 
ENDBRANCH   1  24
TORSDOF 4
ENDMDL
MODEL 7
REMARK VINA RESULT:      -7.3      2.945      3.541
REMARK  4 active torsions:
REMARK  status: ('A' for Active; 'I' for Inactive)
REMARK    1  A    between atoms: O1_2  and  C2_3 
REMARK    2  A    between atoms: C6_9  and  N3_10 
REMARK    3  A    between atoms: N3_10  and  C7_11 
REMARK    4  A    between atoms: C16_22  and  O2_23 
ROOT
HETATM    1  C2  UNL     1      23.237   4.812  48.566  1.00  0.00     0.103 A 
HETATM    2  C3  UNL     1      22.078   4.155  48.796  1.00  0.00     0.072 A 
HETATM    3  C4  UNL     1      22.114   3.021  49.654  1.00  0.00     0.075 A 
HETATM    4  N1  UNL     1      21.106   2.329  49.980  1.00  0.00    -0.241 NA
HETATM    5  C5  UNL     1      21.043   1.272  50.809  1.00  0.00     0.236 A 
HETATM    6  N2  UNL     1      22.261   0.953  51.328  1.00  0.00    -0.223 NA
HETATM    7  C6  UNL     1      23.396   1.596  51.065  1.00  0.00     0.143 A 
HETATM    8  C14 UNL     1      23.339   2.659  50.197  1.00  0.00     0.042 A 
HETATM    9  C15 UNL     1      24.530   3.326  49.960  1.00  0.00     0.057 A 
HETATM   10  C16 UNL     1      24.475   4.409  49.138  1.00  0.00     0.102 A 
ENDROOT
BRANCH   7  11
HETATM   11  N3  UNL     1      24.485   1.256  51.798  1.00  0.00    -0.324 N 
HETATM   12  H6  UNL     1      24.363   0.200  51.622  1.00  0.00     0.169 HD
BRANCH  11  13
HETATM   13  C7  UNL     1      25.632   0.932  52.569  1.00  0.00     0.147 A 
HETATM   14  C8  UNL     1      25.986   2.006  53.403  1.00  0.00     0.167 A 
HETATM   15  N4  UNL     1      27.184   1.883  54.121  1.00  0.00    -0.255 NA
HETATM   16  C9  UNL     1      27.815   0.717  53.878  1.00  0.00     0.081 A 
HETATM   17  C10 UNL     1      27.516  -0.377  53.079  1.00  0.00     0.069 A 
HETATM   18  C13 UNL     1      29.147   0.509  54.489  1.00  0.00     0.030 A 
HETATM   19  N5  UNL     1      26.368  -0.189  52.434  1.00  0.00    -0.232 NA
HETATM   20  C11 UNL     1      28.626  -1.351  53.167  1.00  0.00     0.089 A 
HETATM   21  C12 UNL     1      29.597  -0.666  54.072  1.00  0.00    -0.018 A 
ENDBRANCH  11  13
ENDBRANCH   7  11
BRANCH  10  22
HETATM   22  O2  UNL     1      25.657   5.131  48.854  1.00  0.00    -0.353 OA
HETATM   23  C17 UNL     1      26.879   4.432  49.103  1.00  0.00     0.210 C 
ENDBRANCH  10  22
BRANCH   1  24
HETATM   24  O1  UNL     1      23.361   5.914  47.800  1.00  0.00    -0.353 OA
HETATM   25  C1  UNL     1      22.536   7.054  48.011  1.00  0.00     0.210 C 
ENDBRANCH   1  24
TORSDOF 4
ENDMDL
MODEL 8
REMARK VINA RESULT:      -7.2      2.813      7.158
REMARK  4 active torsions:
REMARK  status: ('A' for Active; 'I' for Inactive)
REMARK    1  A    between atoms: O1_2  and  C2_3 
REMARK    2  A    between atoms: C6_9  and  N3_10 
REMARK    3  A    between atoms: N3_10  and  C7_11 
REMARK    4  A    between atoms: C16_22  and  O2_23 
ROOT
HETATM    1  C2  UNL     1      27.553   0.749  53.533  1.00  0.00     0.103 A 
HETATM    2  C3  UNL     1      27.068  -0.074  54.491  1.00  0.00     0.072 A 
HETATM    3  C4  UNL     1      25.669  -0.331  54.502  1.00  0.00     0.075 A 
HETATM    4  N1  UNL     1      25.082  -1.098  55.318  1.00  0.00    -0.241 NA
HETATM    5  C5  UNL     1      23.778  -1.426  55.378  1.00  0.00     0.236 A 
HETATM    6  N2  UNL     1      23.050  -0.811  54.405  1.00  0.00    -0.223 NA
HETATM    7  C6  UNL     1      23.543   0.019  53.489  1.00  0.00     0.143 A 
HETATM    8  C14 UNL     1      24.891   0.284  53.531  1.00  0.00     0.042 A 
HETATM    9  C15 UNL     1      25.383   1.132  52.552  1.00  0.00     0.057 A 
HETATM   10  C16 UNL     1      26.724   1.363  52.556  1.00  0.00     0.102 A 
ENDROOT
BRANCH   7  11
HETATM   11  N3  UNL     1      22.712   0.406  52.491  1.00  0.00    -0.324 N 
HETATM   12  H6  UNL     1      21.921  -0.261  52.795  1.00  0.00     0.169 HD
BRANCH  11  13
HETATM   13  C7  UNL     1      21.862   0.835  51.437  1.00  0.00     0.147 A 
HETATM   14  C8  UNL     1      22.564   1.657  50.541  1.00  0.00     0.167 A 
HETATM   15  N4  UNL     1      21.816   2.270  49.525  1.00  0.00    -0.255 NA
HETATM   16  C9  UNL     1      20.507   1.957  49.586  1.00  0.00     0.081 A 
HETATM   17  C10 UNL     1      19.760   1.153  50.435  1.00  0.00     0.069 A 
HETATM   18  C13 UNL     1      19.589   2.626  48.637  1.00  0.00     0.030 A 
HETATM   19  N5  UNL     1      20.535   0.606  51.367  1.00  0.00    -0.232 NA
HETATM   20  C11 UNL     1      18.335   1.242  50.049  1.00  0.00     0.089 A 
HETATM   21  C12 UNL     1      18.360   2.215  48.915  1.00  0.00    -0.018 A 
ENDBRANCH  11  13
ENDBRANCH   7  11
BRANCH  10  22
HETATM   22  O2  UNL     1      27.287   2.222  51.584  1.00  0.00    -0.353 OA
HETATM   23  C17 UNL     1      26.350   2.901  50.746  1.00  0.00     0.210 C 
ENDBRANCH  10  22
BRANCH   1  24
HETATM   24  O1  UNL     1      28.853   1.068  53.377  1.00  0.00    -0.353 OA
HETATM   25  C1  UNL     1      29.879   0.106  53.592  1.00  0.00     0.210 C 
ENDBRANCH   1  24
TORSDOF 4
ENDMDL
MODEL 9
REMARK VINA RESULT:      -7.1      2.312      3.539
REMARK  4 active torsions:
REMARK  status: ('A' for Active; 'I' for Inactive)
REMARK    1  A    between atoms: O1_2  and  C2_3 
REMARK    2  A    between atoms: C6_9  and  N3_10 
REMARK    3  A    between atoms: N3_10  and  C7_11 
REMARK    4  A    between atoms: C16_22  and  O2_23 
ROOT
HETATM    1  C2  UNL     1      19.640   2.528  51.877  1.00  0.00     0.103 A 
HETATM    2  C3  UNL     1      20.033   3.776  51.537  1.00  0.00     0.072 A 
HETATM    3  C4  UNL     1      21.404   4.114  51.716  1.00  0.00     0.075 A 
HETATM    4  N1  UNL     1      21.918   5.230  51.416  1.00  0.00    -0.241 NA
HETATM    5  C5  UNL     1      23.201   5.620  51.516  1.00  0.00     0.236 A 
HETATM    6  N2  UNL     1      23.999   4.637  52.019  1.00  0.00    -0.223 NA
HETATM    7  C6  UNL     1      23.585   3.424  52.376  1.00  0.00     0.143 A 
HETATM    8  C14 UNL     1      22.247   3.141  52.233  1.00  0.00     0.042 A 
HETATM    9  C15 UNL     1      21.847   1.863  52.589  1.00  0.00     0.057 A 
HETATM   10  C16 UNL     1      20.533   1.558  52.408  1.00  0.00     0.102 A 
ENDROOT
BRANCH   7  11
HETATM   11  N3  UNL     1      24.536   2.513  52.693  1.00  0.00    -0.324 N 
HETATM   12  H6  UNL     1      24.174   1.782  51.988  1.00  0.00     0.169 HD
BRANCH  11  13
HETATM   13  C7  UNL     1      25.548   1.580  53.046  1.00  0.00     0.147 A 
HETATM   14  C8  UNL     1      26.568   2.212  53.777  1.00  0.00     0.167 A 
HETATM   15  N4  UNL     1      27.704   1.444  54.073  1.00  0.00    -0.255 NA
HETATM   16  C9  UNL     1      27.622   0.191  53.585  1.00  0.00     0.081 A 
HETATM   17  C10 UNL     1      26.648  -0.489  52.868  1.00  0.00     0.069 A 
HETATM   18  C13 UNL     1      28.802  -0.690  53.732  1.00  0.00     0.030 A 
HETATM   19  N5  UNL     1      25.604   0.300  52.628  1.00  0.00    -0.232 NA
HETATM   20  C11 UNL     1      27.145  -1.845  52.552  1.00  0.00     0.089 A 
HETATM   21  C12 UNL     1      28.520  -1.839  53.137  1.00  0.00    -0.018 A 
ENDBRANCH  11  13
ENDBRANCH   7  11
BRANCH  10  22
HETATM   22  O2  UNL     1      20.061   0.271  52.755  1.00  0.00    -0.353 OA
HETATM   23  C17 UNL     1      20.576  -0.265  53.976  1.00  0.00     0.210 C 
ENDBRANCH  10  22
BRANCH   1  24
HETATM   24  O1  UNL     1      18.386   2.051  51.743  1.00  0.00    -0.353 OA
HETATM   25  C1  UNL     1      17.811   1.840  50.459  1.00  0.00     0.210 C 
ENDBRANCH   1  24
TORSDOF 4
ENDMDL
