MODEL 1
REMARK VINA RESULT:      -8.6      0.000      0.000
REMARK  3 active torsions:
REMARK  status: ('A' for Active; 'I' for Inactive)
REMARK    1  A    between atoms: O1_2  and  C2_3 
REMARK    2  A    between atoms: C10_12  and  N2_13 
REMARK    3  A    between atoms: N2_13  and  C11_14 
ROOT
HETATM    1  C2  UNL     1      19.130   0.594  50.768  1.00  0.00     0.078 A 
HETATM    2  C3  UNL     1      17.868  -0.009  50.806  1.00  0.00     0.037 A 
HETATM    3  C4  UNL     1      17.447  -0.696  51.923  1.00  0.00     0.005 A 
HETATM    4  C5  UNL     1      18.294  -0.784  53.012  1.00  0.00     0.038 A 
HETATM    5  C6  UNL     1      19.548  -0.192  52.987  1.00  0.00     0.088 A 
HETATM    6  C7  UNL     1      19.974   0.500  51.866  1.00  0.00     0.027 A 
HETATM    7  C8  UNL     1      21.185   1.237  51.469  1.00  0.00     0.164 C 
HETATM    8  N1  UNL     1      22.309   1.102  52.346  1.00  0.00    -0.379 N 
HETATM    9  C9  UNL     1      22.632   0.181  53.386  1.00  0.00     0.129 A 
HETATM   10  C10 UNL     1      23.993   0.031  53.484  1.00  0.00     0.160 A 
HETATM   11  N3  UNL     1      24.384  -0.804  54.452  1.00  0.00    -0.222 NA
HETATM   12  C17 UNL     1      23.511  -1.431  55.247  1.00  0.00     0.238 A 
HETATM   13  N4  UNL     1      22.159  -1.289  55.156  1.00  0.00    -0.215 NA
HETATM   14  C18 UNL     1      21.699  -0.447  54.185  1.00  0.00     0.202 A 
HETATM   15  O2  UNL     1      20.309  -0.350  54.149  1.00  0.00    -0.289 OA
HETATM   16  H9  UNL     1      23.048   1.845  52.188  1.00  0.00     0.160 HD
ENDROOT
BRANCH  10  17
HETATM   17  N2  UNL     1      24.941   0.653  52.633  1.00  0.00    -0.339 N 
HETATM   18  H10 UNL     1      24.825   1.037  51.675  1.00  0.00     0.167 HD
BRANCH  17  19
HETATM   19  C11 UNL     1      26.301   0.847  53.001  1.00  0.00     0.035 A 
HETATM   20  C12 UNL     1      26.853   2.054  53.374  1.00  0.00     0.029 A 
HETATM   21  C13 UNL     1      28.160   2.255  53.758  1.00  0.00     0.004 A 
HETATM   22  C14 UNL     1      29.012   1.180  53.781  1.00  0.00     0.019 A 
HETATM   23  C15 UNL     1      28.554  -0.067  53.425  1.00  0.00     0.013 A 
HETATM   24 BR1  UNL     1      29.720  -1.573  53.452  1.00  0.00    -0.051 Br
HETATM   25  C16 UNL     1      27.239  -0.190  53.054  1.00  0.00     0.048 A 
ENDBRANCH  17  19
ENDBRANCH  10  17
BRANCH   1  26
HETATM   26  O1  UNL     1      19.424   1.251  49.583  1.00  0.00    -0.355 OA
HETATM   27  C1  UNL     1      18.600   2.166  48.927  1.00  0.00     0.210 C 
ENDBRANCH   1  26
TORSDOF 3
ENDMDL
MODEL 2
REMARK VINA RESULT:      -8.5      3.630      8.101
REMARK  3 active torsions:
REMARK  status: ('A' for Active; 'I' for Inactive)
REMARK    1  A    between atoms: O1_2  and  C2_3 
REMARK    2  A    between atoms: C10_12  and  N2_13 
REMARK    3  A    between atoms: N2_13  and  C11_14 
ROOT
HETATM    1  C2  UNL     1      27.620  -0.546  53.418  1.00  0.00     0.078 A 
HETATM    2  C3  UNL     1      28.894  -0.055  53.720  1.00  0.00     0.037 A 
HETATM    3  C4  UNL     1      29.079   1.267  54.062  1.00  0.00     0.005 A 
HETATM    4  C5  UNL     1      27.982   2.107  54.102  1.00  0.00     0.038 A 
HETATM    5  C6  UNL     1      26.713   1.632  53.804  1.00  0.00     0.088 A 
HETATM    6  C7  UNL     1      26.524   0.304  53.461  1.00  0.00     0.027 A 
HETATM    7  C8  UNL     1      25.379  -0.545  53.092  1.00  0.00     0.164 C 
HETATM    8  N1  UNL     1      24.149   0.145  52.842  1.00  0.00    -0.379 N 
HETATM    9  C9  UNL     1      23.830   1.512  52.586  1.00  0.00     0.129 A 
HETATM   10  C10 UNL     1      22.709   1.599  51.798  1.00  0.00     0.160 A 
HETATM   11  N3  UNL     1      22.328   2.852  51.526  1.00  0.00    -0.222 NA
HETATM   12  C17 UNL     1      22.993   3.915  51.987  1.00  0.00     0.238 A 
HETATM   13  N4  UNL     1      24.107   3.837  52.768  1.00  0.00    -0.215 NA
HETATM   14  C18 UNL     1      24.544   2.582  53.082  1.00  0.00     0.202 A 
HETATM   15  O2  UNL     1      25.686   2.578  53.881  1.00  0.00    -0.289 OA
HETATM   16  H9  UNL     1      23.305  -0.495  52.856  1.00  0.00     0.160 HD
ENDROOT
BRANCH  10  17
HETATM   17  N2  UNL     1      22.005   0.491  51.264  1.00  0.00    -0.339 N 
HETATM   18  H10 UNL     1      22.261  -0.150  50.488  1.00  0.00     0.167 HD
BRANCH  17  19
HETATM   19  C11 UNL     1      20.735   0.073  51.751  1.00  0.00     0.035 A 
HETATM   20  C12 UNL     1      20.513  -0.505  52.982  1.00  0.00     0.029 A 
HETATM   21  C13 UNL     1      19.289  -0.891  53.480  1.00  0.00     0.004 A 
HETATM   22  C14 UNL     1      18.174  -0.697  52.706  1.00  0.00     0.019 A 
HETATM   23  C15 UNL     1      18.293  -0.127  51.460  1.00  0.00     0.013 A 
HETATM   24 BR1  UNL     1      16.755   0.154  50.370  1.00  0.00    -0.051 Br
HETATM   25  C16 UNL     1      19.545   0.233  51.032  1.00  0.00     0.048 A 
ENDBRANCH  17  19
ENDBRANCH  10  17
BRANCH   1  26
HETATM   26  O1  UNL     1      27.579  -1.893  53.091  1.00  0.00    -0.355 OA
HETATM   27  C1  UNL     1      28.666  -2.767  53.083  1.00  0.00     0.210 C 
ENDBRANCH   1  26
TORSDOF 3
ENDMDL
MODEL 3
REMARK VINA RESULT:      -8.4      4.814      7.084
REMARK  3 active torsions:
REMARK  status: ('A' for Active; 'I' for Inactive)
REMARK    1  A    between atoms: O1_2  and  C2_3 
REMARK    2  A    between atoms: C10_12  and  N2_13 
REMARK    3  A    between atoms: N2_13  and  C11_14 
ROOT
HETATM    1  C2  UNL     1      25.971   0.736  54.240  1.00  0.00     0.078 A 
HETATM    2  C3  UNL     1      25.654  -0.507  54.800  1.00  0.00     0.037 A 
HETATM    3  C4  UNL     1      24.451  -1.118  54.525  1.00  0.00     0.005 A 
HETATM    4  C5  UNL     1      23.555  -0.484  53.685  1.00  0.00     0.038 A 
HETATM    5  C6  UNL     1      23.857   0.748  53.123  1.00  0.00     0.088 A 
HETATM    6  C7  UNL     1      25.066   1.365  53.397  1.00  0.00     0.027 A 
HETATM    7  C8  UNL     1      25.729   2.621  53.011  1.00  0.00     0.164 C 
HETATM    8  N1  UNL     1      24.909   3.568  52.315  1.00  0.00    -0.379 N 
HETATM    9  C9  UNL     1      23.498   3.704  52.151  1.00  0.00     0.129 A 
HETATM   10  C10 UNL     1      23.162   5.025  51.993  1.00  0.00     0.160 A 
HETATM   11  N3  UNL     1      21.855   5.240  51.812  1.00  0.00    -0.222 NA
HETATM   12  C17 UNL     1      20.966   4.242  51.791  1.00  0.00     0.238 A 
HETATM   13  N4  UNL     1      21.290   2.928  51.949  1.00  0.00    -0.215 NA
HETATM   14  C18 UNL     1      22.613   2.646  52.136  1.00  0.00     0.202 A 
HETATM   15  O2  UNL     1      22.871   1.285  52.291  1.00  0.00    -0.289 OA
HETATM   16  H9  UNL     1      25.471   4.316  51.819  1.00  0.00     0.160 HD
ENDROOT
BRANCH  10  17
HETATM   17  N2  UNL     1      24.077   6.106  52.047  1.00  0.00    -0.339 N 
HETATM   18  H10 UNL     1      24.570   6.521  52.861  1.00  0.00     0.167 HD
BRANCH  17  19
HETATM   19  C11 UNL     1      24.474   6.843  50.896  1.00  0.00     0.035 A 
HETATM   20  C12 UNL     1      23.808   7.939  50.393  1.00  0.00     0.029 A 
HETATM   21  C13 UNL     1      24.192   8.679  49.297  1.00  0.00     0.004 A 
HETATM   22  C14 UNL     1      25.332   8.318  48.626  1.00  0.00     0.019 A 
HETATM   23  C15 UNL     1      26.065   7.235  49.052  1.00  0.00     0.013 A 
HETATM   24 BR1  UNL     1      27.654   6.717  48.135  1.00  0.00    -0.051 Br
HETATM   25  C16 UNL     1      25.621   6.546  50.152  1.00  0.00     0.048 A 
ENDBRANCH  17  19
ENDBRANCH  10  17
BRANCH   1  26
HETATM   26  O1  UNL     1      27.213   1.234  54.602  1.00  0.00    -0.355 OA
HETATM   27  C1  UNL     1      28.400   0.505  54.676  1.00  0.00     0.210 C 
ENDBRANCH   1  26
TORSDOF 3
ENDMDL
MODEL 4
REMARK VINA RESULT:      -8.4      4.007      5.151
REMARK  3 active torsions:
REMARK  status: ('A' for Active; 'I' for Inactive)
REMARK    1  A    between atoms: O1_2  and  C2_3 
REMARK    2  A    between atoms: C10_12  and  N2_13 
REMARK    3  A    between atoms: N2_13  and  C11_14 
ROOT
HETATM    1  C2  UNL     1      20.914  -0.034  52.800  1.00  0.00     0.078 A 
HETATM    2  C3  UNL     1      20.556  -1.109  53.620  1.00  0.00     0.037 A 
HETATM    3  C4  UNL     1      21.427  -1.592  54.572  1.00  0.00     0.005 A 
HETATM    4  C5  UNL     1      22.667  -0.997  54.707  1.00  0.00     0.038 A 
HETATM    5  C6  UNL     1      23.035   0.069  53.900  1.00  0.00     0.088 A 
HETATM    6  C7  UNL     1      22.162   0.557  52.942  1.00  0.00     0.027 A 
HETATM    7  C8  UNL     1      22.183   1.630  51.934  1.00  0.00     0.164 C 
HETATM    8  N1  UNL     1      23.453   2.255  51.719  1.00  0.00    -0.379 N 
HETATM    9  C9  UNL     1      24.791   1.890  52.053  1.00  0.00     0.129 A 
HETATM   10  C10 UNL     1      25.669   2.405  51.132  1.00  0.00     0.160 A 
HETATM   11  N3  UNL     1      26.952   2.125  51.383  1.00  0.00    -0.222 NA
HETATM   12  C17 UNL     1      27.329   1.404  52.443  1.00  0.00     0.238 A 
HETATM   13  N4  UNL     1      26.464   0.888  53.361  1.00  0.00    -0.215 NA
HETATM   14  C18 UNL     1      25.138   1.142  53.159  1.00  0.00     0.202 A 
HETATM   15  O2  UNL     1      24.313   0.584  54.133  1.00  0.00    -0.289 OA
HETATM   16  H9  UNL     1      23.377   3.181  51.210  1.00  0.00     0.160 HD
ENDROOT
BRANCH  10  17
HETATM   17  N2  UNL     1      25.297   3.141  49.980  1.00  0.00    -0.339 N 
HETATM   18  H10 UNL     1      24.547   2.957  49.285  1.00  0.00     0.167 HD
BRANCH  17  19
HETATM   19  C11 UNL     1      25.961   4.332  49.574  1.00  0.00     0.035 A 
HETATM   20  C12 UNL     1      27.157   4.376  48.892  1.00  0.00     0.029 A 
HETATM   21  C13 UNL     1      27.801   5.517  48.468  1.00  0.00     0.004 A 
HETATM   22  C14 UNL     1      27.226   6.733  48.735  1.00  0.00     0.019 A 
HETATM   23  C15 UNL     1      26.030   6.794  49.413  1.00  0.00     0.013 A 
HETATM   24 BR1  UNL     1      25.214   8.473  49.791  1.00  0.00    -0.051 Br
HETATM   25  C16 UNL     1      25.448   5.614  49.802  1.00  0.00     0.048 A 
ENDBRANCH  17  19
ENDBRANCH  10  17
BRANCH   1  26
HETATM   26  O1  UNL     1      19.943   0.348  51.887  1.00  0.00    -0.355 OA
HETATM   27  C1  UNL     1      18.626  -0.110  51.851  1.00  0.00     0.210 C 
ENDBRANCH   1  26
TORSDOF 3
ENDMDL
MODEL 5
REMARK VINA RESULT:      -8.2      4.645      7.347
REMARK  3 active torsions:
REMARK  status: ('A' for Active; 'I' for Inactive)
REMARK    1  A    between atoms: O1_2  and  C2_3 
REMARK    2  A    between atoms: C10_12  and  N2_13 
REMARK    3  A    between atoms: N2_13  and  C11_14 
ROOT
HETATM    1  C2  UNL     1      25.117   5.991  49.214  1.00  0.00     0.078 A 
HETATM    2  C3  UNL     1      26.190   6.662  48.618  1.00  0.00     0.037 A 
HETATM    3  C4  UNL     1      27.407   6.038  48.448  1.00  0.00     0.005 A 
HETATM    4  C5  UNL     1      27.554   4.732  48.877  1.00  0.00     0.038 A 
HETATM    5  C6  UNL     1      26.499   4.056  49.470  1.00  0.00     0.088 A 
HETATM    6  C7  UNL     1      25.274   4.680  49.642  1.00  0.00     0.027 A 
HETATM    7  C8  UNL     1      23.964   4.313  50.204  1.00  0.00     0.164 C 
HETATM    8  N1  UNL     1      23.922   3.075  50.924  1.00  0.00    -0.379 N 
HETATM    9  C9  UNL     1      24.931   2.232  51.477  1.00  0.00     0.129 A 
HETATM   10  C10 UNL     1      24.445   1.563  52.573  1.00  0.00     0.160 A 
HETATM   11  N3  UNL     1      25.325   0.732  53.142  1.00  0.00    -0.222 NA
HETATM   12  C17 UNL     1      26.566   0.579  52.672  1.00  0.00     0.238 A 
HETATM   13  N4  UNL     1      27.058   1.240  51.586  1.00  0.00    -0.215 NA
HETATM   14  C18 UNL     1      26.204   2.102  50.961  1.00  0.00     0.202 A 
HETATM   15  O2  UNL     1      26.772   2.742  49.861  1.00  0.00    -0.289 OA
HETATM   16  H9  UNL     1      22.937   2.713  51.068  1.00  0.00     0.160 HD
ENDROOT
BRANCH  10  17
HETATM   17  N2  UNL     1      23.147   1.732  53.116  1.00  0.00    -0.339 N 
HETATM   18  H10 UNL     1      22.641   2.602  53.373  1.00  0.00     0.167 HD
BRANCH  17  19
HETATM   19  C11 UNL     1      22.286   0.641  53.418  1.00  0.00     0.035 A 
HETATM   20  C12 UNL     1      22.611  -0.417  54.239  1.00  0.00     0.029 A 
HETATM   21  C13 UNL     1      21.783  -1.468  54.564  1.00  0.00     0.004 A 
HETATM   22  C14 UNL     1      20.516  -1.493  54.038  1.00  0.00     0.019 A 
HETATM   23  C15 UNL     1      20.098  -0.480  53.206  1.00  0.00     0.013 A 
HETATM   24 BR1  UNL     1      18.341  -0.495  52.467  1.00  0.00    -0.051 Br
HETATM   25  C16 UNL     1      20.980   0.533  52.928  1.00  0.00     0.048 A 
ENDBRANCH  17  19
ENDBRANCH  10  17
BRANCH   1  26
HETATM   26  O1  UNL     1      23.954   6.737  49.321  1.00  0.00    -0.355 OA
HETATM   27  C1  UNL     1      23.361   7.483  48.302  1.00  0.00     0.210 C 
ENDBRANCH   1  26
TORSDOF 3
ENDMDL
MODEL 6
REMARK VINA RESULT:      -8.2      5.428      7.773
REMARK  3 active torsions:
REMARK  status: ('A' for Active; 'I' for Inactive)
REMARK    1  A    between atoms: O1_2  and  C2_3 
REMARK    2  A    between atoms: C10_12  and  N2_13 
REMARK    3  A    between atoms: N2_13  and  C11_14 
ROOT
HETATM    1  C2  UNL     1      26.623   0.766  54.019  1.00  0.00     0.078 A 
HETATM    2  C3  UNL     1      25.978  -0.153  54.855  1.00  0.00     0.037 A 
HETATM    3  C4  UNL     1      24.715  -0.615  54.554  1.00  0.00     0.005 A 
HETATM    4  C5  UNL     1      24.090  -0.156  53.409  1.00  0.00     0.038 A 
HETATM    5  C6  UNL     1      24.719   0.755  52.573  1.00  0.00     0.088 A 
HETATM    6  C7  UNL     1      25.988   1.221  52.873  1.00  0.00     0.027 A 
HETATM    7  C8  UNL     1      26.949   2.154  52.260  1.00  0.00     0.164 C 
HETATM    8  N1  UNL     1      26.446   2.938  51.173  1.00  0.00    -0.379 N 
HETATM    9  C9  UNL     1      25.130   3.242  50.713  1.00  0.00     0.129 A 
HETATM   10  C10 UNL     1      25.109   4.473  50.108  1.00  0.00     0.160 A 
HETATM   11  N3  UNL     1      23.912   4.827  49.628  1.00  0.00    -0.222 NA
HETATM   12  C17 UNL     1      22.839   4.039  49.739  1.00  0.00     0.238 A 
HETATM   13  N4  UNL     1      22.850   2.816  50.340  1.00  0.00    -0.215 NA
HETATM   14  C18 UNL     1      24.047   2.398  50.849  1.00  0.00     0.202 A 
HETATM   15  O2  UNL     1      23.984   1.142  51.448  1.00  0.00    -0.289 OA
HETATM   16  H9  UNL     1      27.214   3.378  50.591  1.00  0.00     0.160 HD
ENDROOT
BRANCH  10  17
HETATM   17  N2  UNL     1      26.221   5.347  50.007  1.00  0.00    -0.339 N 
HETATM   18  H10 UNL     1      27.218   5.185  50.245  1.00  0.00     0.167 HD
BRANCH  17  19
HETATM   19  C11 UNL     1      26.114   6.684  49.534  1.00  0.00     0.035 A 
HETATM   20  C12 UNL     1      25.772   7.771  50.309  1.00  0.00     0.029 A 
HETATM   21  C13 UNL     1      25.690   9.075  49.875  1.00  0.00     0.004 A 
HETATM   22  C14 UNL     1      25.966   9.348  48.559  1.00  0.00     0.019 A 
HETATM   23  C15 UNL     1      26.316   8.328  47.705  1.00  0.00     0.013 A 
HETATM   24 BR1  UNL     1      26.705   8.687  45.874  1.00  0.00    -0.051 Br
HETATM   25  C16 UNL     1      26.378   7.054  48.211  1.00  0.00     0.048 A 
ENDBRANCH  17  19
ENDBRANCH  10  17
BRANCH   1  26
HETATM   26  O1  UNL     1      27.887   1.145  54.442  1.00  0.00    -0.355 OA
HETATM   27  C1  UNL     1      28.995   0.307  54.570  1.00  0.00     0.210 C 
ENDBRANCH   1  26
TORSDOF 3
ENDMDL
MODEL 7
REMARK VINA RESULT:      -7.9      5.374      7.193
REMARK  3 active torsions:
REMARK  status: ('A' for Active; 'I' for Inactive)
REMARK    1  A    between atoms: O1_2  and  C2_3 
REMARK    2  A    between atoms: C10_12  and  N2_13 
REMARK    3  A    between atoms: N2_13  and  C11_14 
ROOT
HETATM    1  C2  UNL     1      24.721   0.619  53.177  1.00  0.00     0.078 A 
HETATM    2  C3  UNL     1      23.973  -0.457  53.667  1.00  0.00     0.037 A 
HETATM    3  C4  UNL     1      22.641  -0.595  53.346  1.00  0.00     0.005 A 
HETATM    4  C5  UNL     1      22.049   0.349  52.529  1.00  0.00     0.038 A 
HETATM    5  C6  UNL     1      22.779   1.421  52.036  1.00  0.00     0.088 A 
HETATM    6  C7  UNL     1      24.119   1.563  52.357  1.00  0.00     0.027 A 
HETATM    7  C8  UNL     1      25.190   2.523  52.045  1.00  0.00     0.164 C 
HETATM    8  N1  UNL     1      24.773   3.727  51.390  1.00  0.00    -0.379 N 
HETATM    9  C9  UNL     1      23.505   4.355  51.215  1.00  0.00     0.129 A 
HETATM   10  C10 UNL     1      23.656   5.716  51.123  1.00  0.00     0.160 A 
HETATM   11  N3  UNL     1      22.512   6.383  50.937  1.00  0.00    -0.222 NA
HETATM   12  C17 UNL     1      21.332   5.763  50.853  1.00  0.00     0.238 A 
HETATM   13  N4  UNL     1      21.172   4.413  50.946  1.00  0.00    -0.215 NA
HETATM   14  C18 UNL     1      22.306   3.677  51.134  1.00  0.00     0.202 A 
HETATM   15  O2  UNL     1      22.068   2.306  51.221  1.00  0.00    -0.289 OA
HETATM   16  H9  UNL     1      25.576   4.252  50.941  1.00  0.00     0.160 HD
ENDROOT
BRANCH  10  17
HETATM   17  N2  UNL     1      24.889   6.405  51.244  1.00  0.00    -0.339 N 
HETATM   18  H10 UNL     1      25.449   6.623  52.091  1.00  0.00     0.167 HD
BRANCH  17  19
HETATM   19  C11 UNL     1      25.586   6.948  50.129  1.00  0.00     0.035 A 
HETATM   20  C12 UNL     1      26.322   6.214  49.225  1.00  0.00     0.029 A 
HETATM   21  C13 UNL     1      26.980   6.719  48.126  1.00  0.00     0.004 A 
HETATM   22  C14 UNL     1      26.918   8.068  47.884  1.00  0.00     0.019 A 
HETATM   23  C15 UNL     1      26.207   8.885  48.732  1.00  0.00     0.013 A 
HETATM   24 BR1  UNL     1      26.105  10.761  48.412  1.00  0.00    -0.051 Br
HETATM   25  C16 UNL     1      25.577   8.310  49.806  1.00  0.00     0.048 A 
ENDBRANCH  17  19
ENDBRANCH  10  17
BRANCH   1  26
HETATM   26  O1  UNL     1      26.048   0.634  53.580  1.00  0.00    -0.355 OA
HETATM   27  C1  UNL     1      26.526   0.284  54.843  1.00  0.00     0.210 C 
ENDBRANCH   1  26
TORSDOF 3
ENDMDL
MODEL 8
REMARK VINA RESULT:      -7.6      3.622      7.588
REMARK  3 active torsions:
REMARK  status: ('A' for Active; 'I' for Inactive)
REMARK    1  A    between atoms: O1_2  and  C2_3 
REMARK    2  A    between atoms: C10_12  and  N2_13 
REMARK    3  A    between atoms: N2_13  and  C11_14 
ROOT
HETATM    1  C2  UNL     1      26.202   2.280  51.763  1.00  0.00     0.078 A 
HETATM    2  C3  UNL     1      27.498   2.067  52.245  1.00  0.00     0.037 A 
HETATM    3  C4  UNL     1      27.783   0.985  53.048  1.00  0.00     0.005 A 
HETATM    4  C5  UNL     1      26.767   0.107  53.374  1.00  0.00     0.038 A 
HETATM    5  C6  UNL     1      25.478   0.306  52.902  1.00  0.00     0.088 A 
HETATM    6  C7  UNL     1      25.187   1.393  52.095  1.00  0.00     0.027 A 
HETATM    7  C8  UNL     1      23.991   1.926  51.422  1.00  0.00     0.164 C 
HETATM    8  N1  UNL     1      22.748   1.316  51.788  1.00  0.00    -0.379 N 
HETATM    9  C9  UNL     1      22.351   0.486  52.878  1.00  0.00     0.129 A 
HETATM   10  C10 UNL     1      21.023   0.682  53.166  1.00  0.00     0.160 A 
HETATM   11  N3  UNL     1      20.562  -0.075  54.167  1.00  0.00    -0.222 NA
HETATM   12  C17 UNL     1      21.342  -0.942  54.821  1.00  0.00     0.238 A 
HETATM   13  N4  UNL     1      22.661  -1.141  54.543  1.00  0.00    -0.215 NA
HETATM   14  C18 UNL     1      23.189  -0.396  53.528  1.00  0.00     0.202 A 
HETATM   15  O2  UNL     1      24.540  -0.651  53.300  1.00  0.00    -0.289 OA
HETATM   16  H9  UNL     1      21.969   1.522  51.101  1.00  0.00     0.160 HD
ENDROOT
BRANCH  10  17
HETATM   17  N2  UNL     1      20.182   1.618  52.515  1.00  0.00    -0.339 N 
HETATM   18  H10 UNL     1      20.154   2.654  52.590  1.00  0.00     0.167 HD
BRANCH  17  19
HETATM   19  C11 UNL     1      19.165   1.237  51.595  1.00  0.00     0.035 A 
HETATM   20  C12 UNL     1      18.436   0.070  51.664  1.00  0.00     0.029 A 
HETATM   21  C13 UNL     1      17.431  -0.302  50.799  1.00  0.00     0.004 A 
HETATM   22  C14 UNL     1      17.106   0.541  49.767  1.00  0.00     0.019 A 
HETATM   23  C15 UNL     1      17.779   1.730  49.614  1.00  0.00     0.013 A 
HETATM   24 BR1  UNL     1      17.341   2.917  48.188  1.00  0.00    -0.051 Br
HETATM   25  C16 UNL     1      18.768   2.034  50.516  1.00  0.00     0.048 A 
ENDBRANCH  17  19
ENDBRANCH  10  17
BRANCH   1  26
HETATM   26  O1  UNL     1      26.056   3.406  50.968  1.00  0.00    -0.355 OA
HETATM   27  C1  UNL     1      26.614   3.594  49.703  1.00  0.00     0.210 C 
ENDBRANCH   1  26
TORSDOF 3
ENDMDL
MODEL 9
REMARK VINA RESULT:      -7.5      3.223      3.887
REMARK  3 active torsions:
REMARK  status: ('A' for Active; 'I' for Inactive)
REMARK    1  A    between atoms: O1_2  and  C2_3 
REMARK    2  A    between atoms: C10_12  and  N2_13 
REMARK    3  A    between atoms: N2_13  and  C11_14 
ROOT
HETATM    1  C2  UNL     1      18.263  -0.042  51.427  1.00  0.00     0.078 A 
HETATM    2  C3  UNL     1      17.539  -1.042  52.086  1.00  0.00     0.037 A 
HETATM    3  C4  UNL     1      18.025  -1.622  53.237  1.00  0.00     0.005 A 
HETATM    4  C5  UNL     1      19.244  -1.202  53.736  1.00  0.00     0.038 A 
HETATM    5  C6  UNL     1      19.971  -0.212  53.091  1.00  0.00     0.088 A 
HETATM    6  C7  UNL     1      19.486   0.374  51.934  1.00  0.00     0.027 A 
HETATM    7  C8  UNL     1      19.943   1.414  50.998  1.00  0.00     0.164 C 
HETATM    8  N1  UNL     1      21.295   1.854  51.170  1.00  0.00    -0.379 N 
HETATM    9  C9  UNL     1      22.417   1.314  51.866  1.00  0.00     0.129 A 
HETATM   10  C10 UNL     1      23.584   1.685  51.248  1.00  0.00     0.160 A 
HETATM   11  N3  UNL     1      24.690   1.236  51.850  1.00  0.00    -0.222 NA
HETATM   12  C17 UNL     1      24.644   0.490  52.958  1.00  0.00     0.238 A 
HETATM   13  N4  UNL     1      23.489   0.115  53.578  1.00  0.00    -0.215 NA
HETATM   14  C18 UNL     1      22.326   0.546  53.009  1.00  0.00     0.202 A 
HETATM   15  O2  UNL     1      21.187   0.126  53.693  1.00  0.00    -0.289 OA
HETATM   16  H9  UNL     1      21.496   2.772  50.681  1.00  0.00     0.160 HD
ENDROOT
BRANCH  10  17
HETATM   17  N2  UNL     1      23.664   2.444  50.053  1.00  0.00    -0.339 N 
HETATM   18  H10 UNL     1      23.314   2.225  49.100  1.00  0.00     0.167 HD
BRANCH  17  19
HETATM   19  C11 UNL     1      24.296   3.717  49.985  1.00  0.00     0.035 A 
HETATM   20  C12 UNL     1      23.769   4.888  50.485  1.00  0.00     0.029 A 
HETATM   21  C13 UNL     1      24.377   6.122  50.452  1.00  0.00     0.004 A 
HETATM   22  C14 UNL     1      25.618   6.229  49.876  1.00  0.00     0.019 A 
HETATM   23  C15 UNL     1      26.227   5.114  49.348  1.00  0.00     0.013 A 
HETATM   24 BR1  UNL     1      27.951   5.240  48.546  1.00  0.00    -0.051 Br
HETATM   25  C16 UNL     1      25.559   3.918  49.418  1.00  0.00     0.048 A 
ENDBRANCH  17  19
ENDBRANCH  10  17
BRANCH   1  26
HETATM   26  O1  UNL     1      17.657   0.453  50.283  1.00  0.00    -0.355 OA
HETATM   27  C1  UNL     1      16.308   0.330  49.950  1.00  0.00     0.210 C 
ENDBRANCH   1  26
TORSDOF 3
ENDMDL
