MODEL 1
REMARK VINA RESULT:      -9.5      0.000      0.000
REMARK  10 active torsions:
REMARK  status: ('A' for Active; 'I' for Inactive)
REMARK    1  A    between atoms: C1_2  and  C2_3 
REMARK    2  A    between atoms: C4_5  and  C5_6 
REMARK    3  A    between atoms: C10_11  and  O2_12 
REMARK    4  A    between atoms: C13_15  and  C14_16 
REMARK    5  A    between atoms: C14_16  and  C15_17 
REMARK    6  A    between atoms: C15_17  and  C16_18 
REMARK    7  A    between atoms: C17_19  and  C18_20 
REMARK    8  A    between atoms: C18_20  and  C19_21 
REMARK    9  A    between atoms: C19_21  and  C20_22 
REMARK   10  A    between atoms: C20_22  and  O4_24 
ROOT
HETATM    1  C14 UNL     1      24.575   3.568  50.886  1.00  0.00     0.014 C 
ENDROOT
BRANCH   1   2
HETATM    2  C13 UNL     1      25.483   4.414  50.132  1.00  0.00    -0.023 A 
HETATM    3  C2  UNL     1      25.268   5.761  50.172  1.00  0.00     0.013 A 
HETATM    4  C3  UNL     1      26.164   6.477  49.441  1.00  0.00     0.027 A 
HETATM    5  C4  UNL     1      27.188   5.894  48.730  1.00  0.00    -0.022 A 
HETATM    6  C11 UNL     1      27.366   4.529  48.719  1.00  0.00     0.013 A 
HETATM    7  C12 UNL     1      26.473   3.778  49.452  1.00  0.00     0.013 A 
BRANCH   3   8
HETATM    8  C1  UNL     1      24.209   6.443  50.899  1.00  0.00     0.271 C 
HETATM    9  O1  UNL     1      24.119   7.696  50.872  1.00  0.00    -0.301 OA
ENDBRANCH   3   8
BRANCH   5  10
HETATM   10  C5  UNL     1      28.096   6.752  47.979  1.00  0.00     0.007 A 
HETATM   11  C6  UNL     1      27.723   7.652  47.003  1.00  0.00     0.015 A 
HETATM   12  C7  UNL     1      28.657   8.420  46.346  1.00  0.00     0.001 A 
HETATM   13  C8  UNL     1      30.018   8.318  46.644  1.00  0.00     0.003 A 
HETATM   14  C9  UNL     1      30.414   7.423  47.619  1.00  0.00     0.037 A 
HETATM   15  C10 UNL     1      29.445   6.676  48.247  1.00  0.00     0.076 A 
BRANCH  15  16
HETATM   16  O2  UNL     1      29.946   5.799  49.217  1.00  0.00    -0.360 OA
HETATM   17  H7  UNL     1      30.117   6.047  50.176  1.00  0.00     0.217 HD
ENDBRANCH  15  16
ENDBRANCH   5  10
ENDBRANCH   1   2
BRANCH   1  18
HETATM   18  C15 UNL     1      24.547   2.450  51.559  1.00  0.00     0.030 C 
BRANCH  18  19
HETATM   19  C16 UNL     1      25.128   1.290  52.231  1.00  0.00     0.035 C 
HETATM   20  C17 UNL     1      24.462   0.481  53.161  1.00  0.00    -0.025 C 
HETATM   21  C21 UNL     1      25.599  -0.269  53.846  1.00  0.00    -0.053 C 
HETATM   22  C22 UNL     1      26.251   0.254  54.924  1.00  0.00    -0.017 C 
HETATM   23  C26 UNL     1      26.303  -1.566  53.370  1.00  0.00     0.041 C 
HETATM   24  C23 UNL     1      27.382   0.859  54.139  1.00  0.00     0.053 C 
HETATM   25  C24 UNL     1      27.548   0.491  52.717  1.00  0.00     0.085 C 
HETATM   26  C25 UNL     1      27.514  -1.018  52.569  1.00  0.00     0.030 C 
HETATM   27  N1  UNL     1      26.556   1.136  51.806  1.00  0.00    -0.385 N 
HETATM   28  H25 UNL     1      26.768   1.534  50.828  1.00  0.00     0.160 HD
BRANCH  20  29
HETATM   29  C18 UNL     1      22.967   0.516  53.251  1.00  0.00     0.052 C 
BRANCH  29  30
HETATM   30  C19 UNL     1      22.368  -0.843  53.302  1.00  0.00     0.115 C 
BRANCH  30  31
HETATM   31  C20 UNL     1      22.385  -1.417  54.653  1.00  0.00     0.139 C 
HETATM   32  O3  UNL     1      21.207  -1.791  54.958  1.00  0.00    -0.650 OA
BRANCH  31  33
HETATM   33  O4  UNL     1      22.915  -1.824  55.863  1.00  0.00    -0.776 OA
HETATM   34  H16 UNL     1      23.239  -1.095  56.486  1.00  0.00     0.167 HD
ENDBRANCH  31  33
ENDBRANCH  30  31
ENDBRANCH  29  30
ENDBRANCH  20  29
ENDBRANCH  18  19
ENDBRANCH   1  18
TORSDOF 10
ENDMDL
MODEL 2
REMARK VINA RESULT:      -9.1      3.921      8.451
REMARK  10 active torsions:
REMARK  status: ('A' for Active; 'I' for Inactive)
REMARK    1  A    between atoms: C1_2  and  C2_3 
REMARK    2  A    between atoms: C4_5  and  C5_6 
REMARK    3  A    between atoms: C10_11  and  O2_12 
REMARK    4  A    between atoms: C13_15  and  C14_16 
REMARK    5  A    between atoms: C14_16  and  C15_17 
REMARK    6  A    between atoms: C15_17  and  C16_18 
REMARK    7  A    between atoms: C17_19  and  C18_20 
REMARK    8  A    between atoms: C18_20  and  C19_21 
REMARK    9  A    between atoms: C19_21  and  C20_22 
REMARK   10  A    between atoms: C20_22  and  O4_24 
ROOT
HETATM    1  C14 UNL     1      21.620   0.953  52.754  1.00  0.00     0.014 C 
ENDROOT
BRANCH   1   2
HETATM    2  C13 UNL     1      23.009   0.564  52.915  1.00  0.00    -0.023 A 
HETATM    3  C2  UNL     1      23.292  -0.392  53.848  1.00  0.00     0.013 A 
HETATM    4  C3  UNL     1      24.614  -0.698  53.931  1.00  0.00     0.027 A 
HETATM    5  C4  UNL     1      25.573  -0.097  53.147  1.00  0.00    -0.022 A 
HETATM    6  C11 UNL     1      25.241   0.863  52.219  1.00  0.00     0.013 A 
HETATM    7  C12 UNL     1      23.908   1.193  52.113  1.00  0.00     0.013 A 
BRANCH   3   8
HETATM    8  C1  UNL     1      22.332  -1.065  54.708  1.00  0.00     0.271 C 
HETATM    9  O1  UNL     1      22.721  -1.746  55.691  1.00  0.00    -0.301 OA
ENDBRANCH   3   8
BRANCH   5  10
HETATM   10  C5  UNL     1      26.965  -0.497  53.314  1.00  0.00     0.007 A 
HETATM   11  C6  UNL     1      27.532  -1.649  52.811  1.00  0.00     0.015 A 
HETATM   12  C7  UNL     1      28.860  -1.941  53.023  1.00  0.00     0.001 A 
HETATM   13  C8  UNL     1      29.683  -1.082  53.755  1.00  0.00     0.003 A 
HETATM   14  C9  UNL     1      29.135   0.078  54.267  1.00  0.00     0.037 A 
HETATM   15  C10 UNL     1      27.804   0.327  54.030  1.00  0.00     0.076 A 
BRANCH  15  16
HETATM   16  O2  UNL     1      27.344   1.525  54.591  1.00  0.00    -0.360 OA
HETATM   17  H7  UNL     1      26.395   1.696  54.873  1.00  0.00     0.217 HD
ENDBRANCH  15  16
ENDBRANCH   5  10
ENDBRANCH   1   2
BRANCH   1  18
HETATM   18  C15 UNL     1      20.853   1.712  52.019  1.00  0.00     0.030 C 
BRANCH  18  19
HETATM   19  C16 UNL     1      20.546   2.607  50.905  1.00  0.00     0.035 C 
HETATM   20  C17 UNL     1      20.838   3.976  50.868  1.00  0.00    -0.025 C 
HETATM   21  C21 UNL     1      19.956   4.489  49.737  1.00  0.00    -0.053 C 
HETATM   22  C22 UNL     1      18.666   4.875  49.957  1.00  0.00    -0.017 C 
HETATM   23  C26 UNL     1      20.262   4.484  48.217  1.00  0.00     0.041 C 
HETATM   24  C23 UNL     1      18.046   3.558  49.583  1.00  0.00     0.053 C 
HETATM   25  C24 UNL     1      18.879   2.534  48.919  1.00  0.00     0.085 C 
HETATM   26  C25 UNL     1      19.618   3.152  47.747  1.00  0.00     0.030 C 
HETATM   27  N1  UNL     1      19.829   1.839  49.838  1.00  0.00    -0.385 N 
HETATM   28  H25 UNL     1      20.061   0.787  49.823  1.00  0.00     0.160 HD
BRANCH  20  29
HETATM   29  C18 UNL     1      21.841   4.555  51.820  1.00  0.00     0.052 C 
BRANCH  29  30
HETATM   30  C19 UNL     1      23.206   4.620  51.237  1.00  0.00     0.115 C 
BRANCH  30  31
HETATM   31  C20 UNL     1      23.866   5.907  51.488  1.00  0.00     0.139 C 
HETATM   32  O3  UNL     1      24.120   6.465  50.372  1.00  0.00    -0.650 OA
BRANCH  31  33
HETATM   33  O4  UNL     1      24.413   6.943  52.222  1.00  0.00    -0.776 OA
HETATM   34  H16 UNL     1      25.334   6.787  52.612  1.00  0.00     0.167 HD
ENDBRANCH  31  33
ENDBRANCH  30  31
ENDBRANCH  29  30
ENDBRANCH  20  29
ENDBRANCH  18  19
ENDBRANCH   1  18
TORSDOF 10
ENDMDL
MODEL 3
REMARK VINA RESULT:      -9.1      2.731      3.527
REMARK  10 active torsions:
REMARK  status: ('A' for Active; 'I' for Inactive)
REMARK    1  A    between atoms: C1_2  and  C2_3 
REMARK    2  A    between atoms: C4_5  and  C5_6 
REMARK    3  A    between atoms: C10_11  and  O2_12 
REMARK    4  A    between atoms: C13_15  and  C14_16 
REMARK    5  A    between atoms: C14_16  and  C15_17 
REMARK    6  A    between atoms: C15_17  and  C16_18 
REMARK    7  A    between atoms: C17_19  and  C18_20 
REMARK    8  A    between atoms: C18_20  and  C19_21 
REMARK    9  A    between atoms: C19_21  and  C20_22 
REMARK   10  A    between atoms: C20_22  and  O4_24 
ROOT
HETATM    1  C14 UNL     1      25.681   4.791  49.280  1.00  0.00     0.014 C 
ENDROOT
BRANCH   1   2
HETATM    2  C13 UNL     1      26.818   5.547  48.788  1.00  0.00    -0.023 A 
HETATM    3  C2  UNL     1      26.645   6.887  48.589  1.00  0.00     0.013 A 
HETATM    4  C3  UNL     1      27.759   7.518  48.131  1.00  0.00     0.027 A 
HETATM    5  C4  UNL     1      28.947   6.863  47.892  1.00  0.00    -0.022 A 
HETATM    6  C11 UNL     1      29.074   5.510  48.108  1.00  0.00     0.013 A 
HETATM    7  C12 UNL     1      27.961   4.845  48.572  1.00  0.00     0.013 A 
BRANCH   3   8
HETATM    8  C1  UNL     1      25.423   7.640  48.819  1.00  0.00     0.271 C 
HETATM    9  O1  UNL     1      25.272   8.307  49.874  1.00  0.00    -0.301 OA
ENDBRANCH   3   8
BRANCH   5  10
HETATM   10  C5  UNL     1      30.083   7.632  47.401  1.00  0.00     0.007 A 
HETATM   11  C6  UNL     1      30.362   7.892  46.076  1.00  0.00     0.015 A 
HETATM   12  C7  UNL     1      31.464   8.631  45.710  1.00  0.00     0.001 A 
HETATM   13  C8  UNL     1      32.341   9.145  46.668  1.00  0.00     0.003 A 
HETATM   14  C9  UNL     1      32.081   8.897  48.002  1.00  0.00     0.037 A 
HETATM   15  C10 UNL     1      30.968   8.154  48.318  1.00  0.00     0.076 A 
BRANCH  15  16
HETATM   16  O2  UNL     1      30.793   7.957  49.694  1.00  0.00    -0.360 OA
HETATM   17  H7  UNL     1      31.423   8.288  50.402  1.00  0.00     0.217 HD
ENDBRANCH  15  16
ENDBRANCH   5  10
ENDBRANCH   1   2
BRANCH   1  18
HETATM   18  C15 UNL     1      25.381   3.649  49.837  1.00  0.00     0.030 C 
BRANCH  18  19
HETATM   19  C16 UNL     1      25.340   2.671  50.922  1.00  0.00     0.035 C 
HETATM   20  C17 UNL     1      24.326   2.576  51.883  1.00  0.00    -0.025 C 
HETATM   21  C21 UNL     1      24.963   1.730  52.979  1.00  0.00    -0.053 C 
HETATM   22  C22 UNL     1      25.709   2.294  53.972  1.00  0.00    -0.017 C 
HETATM   23  C26 UNL     1      25.046   0.184  53.057  1.00  0.00     0.041 C 
HETATM   24  C23 UNL     1      27.039   2.081  53.303  1.00  0.00     0.053 C 
HETATM   25  C24 UNL     1      27.115   1.204  52.117  1.00  0.00     0.085 C 
HETATM   26  C25 UNL     1      26.423  -0.114  52.406  1.00  0.00     0.030 C 
HETATM   27  N1  UNL     1      26.575   1.825  50.871  1.00  0.00    -0.385 N 
HETATM   28  H25 UNL     1      27.004   1.734  49.886  1.00  0.00     0.160 HD
BRANCH  20  29
HETATM   29  C18 UNL     1      23.000   3.232  51.641  1.00  0.00     0.052 C 
BRANCH  29  30
HETATM   30  C19 UNL     1      22.767   4.392  52.540  1.00  0.00     0.115 C 
BRANCH  30  31
HETATM   31  C20 UNL     1      23.465   5.602  52.093  1.00  0.00     0.139 C 
HETATM   32  O3  UNL     1      22.936   6.007  51.008  1.00  0.00    -0.650 OA
BRANCH  31  33
HETATM   33  O4  UNL     1      24.390   6.630  52.119  1.00  0.00    -0.776 OA
HETATM   34  H16 UNL     1      24.353   7.255  52.914  1.00  0.00     0.167 HD
ENDBRANCH  31  33
ENDBRANCH  30  31
ENDBRANCH  29  30
ENDBRANCH  20  29
ENDBRANCH  18  19
ENDBRANCH   1  18
TORSDOF 10
ENDMDL
MODEL 4
REMARK VINA RESULT:      -9.0      5.374      8.276
REMARK  10 active torsions:
REMARK  status: ('A' for Active; 'I' for Inactive)
REMARK    1  A    between atoms: C1_2  and  C2_3 
REMARK    2  A    between atoms: C4_5  and  C5_6 
REMARK    3  A    between atoms: C10_11  and  O2_12 
REMARK    4  A    between atoms: C13_15  and  C14_16 
REMARK    5  A    between atoms: C14_16  and  C15_17 
REMARK    6  A    between atoms: C15_17  and  C16_18 
REMARK    7  A    between atoms: C17_19  and  C18_20 
REMARK    8  A    between atoms: C18_20  and  C19_21 
REMARK    9  A    between atoms: C19_21  and  C20_22 
REMARK   10  A    between atoms: C20_22  and  O4_24 
ROOT
HETATM    1  C14 UNL     1      21.299   0.706  52.672  1.00  0.00     0.014 C 
ENDROOT
BRANCH   1   2
HETATM    2  C13 UNL     1      22.722   0.487  52.858  1.00  0.00    -0.023 A 
HETATM    3  C2  UNL     1      23.103  -0.370  53.850  1.00  0.00     0.013 A 
HETATM    4  C3  UNL     1      24.450  -0.519  53.954  1.00  0.00     0.027 A 
HETATM    5  C4  UNL     1      25.342   0.133  53.133  1.00  0.00    -0.022 A 
HETATM    6  C11 UNL     1      24.912   0.988  52.144  1.00  0.00     0.013 A 
HETATM    7  C12 UNL     1      23.550   1.159  52.016  1.00  0.00     0.013 A 
BRANCH   3   8
HETATM    8  C1  UNL     1      22.218  -1.090  54.752  1.00  0.00     0.271 C 
HETATM    9  O1  UNL     1      22.687  -1.786  55.687  1.00  0.00    -0.301 OA
ENDBRANCH   3   8
BRANCH   5  10
HETATM   10  C5  UNL     1      26.768  -0.096  53.325  1.00  0.00     0.007 A 
HETATM   11  C6  UNL     1      27.457  -1.227  52.939  1.00  0.00     0.015 A 
HETATM   12  C7  UNL     1      28.808  -1.352  53.166  1.00  0.00     0.001 A 
HETATM   13  C8  UNL     1      29.534  -0.338  53.795  1.00  0.00     0.003 A 
HETATM   14  C9  UNL     1      28.865   0.804  54.190  1.00  0.00     0.037 A 
HETATM   15  C10 UNL     1      27.514   0.883  53.943  1.00  0.00     0.076 A 
BRANCH  15  16
HETATM   16  O2  UNL     1      26.928   2.078  54.381  1.00  0.00    -0.360 OA
HETATM   17  H7  UNL     1      26.269   2.618  53.849  1.00  0.00     0.217 HD
ENDBRANCH  15  16
ENDBRANCH   5  10
ENDBRANCH   1   2
BRANCH   1  18
HETATM   18  C15 UNL     1      20.462   1.439  51.989  1.00  0.00     0.030 C 
BRANCH  18  19
HETATM   19  C16 UNL     1      19.143   1.915  51.578  1.00  0.00     0.035 C 
HETATM   20  C17 UNL     1      18.117   1.105  51.073  1.00  0.00    -0.025 C 
HETATM   21  C21 UNL     1      17.173   2.108  50.421  1.00  0.00    -0.053 C 
HETATM   22  C22 UNL     1      17.346   2.515  49.130  1.00  0.00    -0.017 C 
HETATM   23  C26 UNL     1      16.052   2.937  51.099  1.00  0.00     0.041 C 
HETATM   24  C23 UNL     1      18.123   3.759  49.465  1.00  0.00     0.053 C 
HETATM   25  C24 UNL     1      18.177   4.216  50.869  1.00  0.00     0.085 C 
HETATM   26  C25 UNL     1      16.777   4.264  51.449  1.00  0.00     0.030 C 
HETATM   27  N1  UNL     1      19.083   3.403  51.734  1.00  0.00    -0.385 N 
HETATM   28  H25 UNL     1      19.741   3.791  52.494  1.00  0.00     0.160 HD
BRANCH  20  29
HETATM   29  C18 UNL     1      18.163  -0.378  51.278  1.00  0.00     0.052 C 
BRANCH  29  30
HETATM   30  C19 UNL     1      17.292  -0.825  52.395  1.00  0.00     0.115 C 
BRANCH  30  31
HETATM   31  C20 UNL     1      17.990  -1.709  53.337  1.00  0.00     0.139 C 
HETATM   32  O3  UNL     1      17.283  -2.750  53.527  1.00  0.00    -0.650 OA
BRANCH  31  33
HETATM   33  O4  UNL     1      18.991  -2.133  54.191  1.00  0.00    -0.776 OA
HETATM   34  H16 UNL     1      18.770  -2.151  55.178  1.00  0.00     0.167 HD
ENDBRANCH  31  33
ENDBRANCH  30  31
ENDBRANCH  29  30
ENDBRANCH  20  29
ENDBRANCH  18  19
ENDBRANCH   1  18
TORSDOF 10
ENDMDL
MODEL 5
REMARK VINA RESULT:      -9.0      2.560      8.866
REMARK  10 active torsions:
REMARK  status: ('A' for Active; 'I' for Inactive)
REMARK    1  A    between atoms: C1_2  and  C2_3 
REMARK    2  A    between atoms: C4_5  and  C5_6 
REMARK    3  A    between atoms: C10_11  and  O2_12 
REMARK    4  A    between atoms: C13_15  and  C14_16 
REMARK    5  A    between atoms: C14_16  and  C15_17 
REMARK    6  A    between atoms: C15_17  and  C16_18 
REMARK    7  A    between atoms: C17_19  and  C18_20 
REMARK    8  A    between atoms: C18_20  and  C19_21 
REMARK    9  A    between atoms: C19_21  and  C20_22 
REMARK   10  A    between atoms: C20_22  and  O4_24 
ROOT
HETATM    1  C14 UNL     1      26.481   3.440  50.074  1.00  0.00     0.014 C 
ENDROOT
BRANCH   1   2
HETATM    2  C13 UNL     1      25.519   2.642  50.814  1.00  0.00    -0.023 A 
HETATM    3  C2  UNL     1      25.938   2.075  51.983  1.00  0.00     0.013 A 
HETATM    4  C3  UNL     1      24.977   1.348  52.611  1.00  0.00     0.027 A 
HETATM    5  C4  UNL     1      23.701   1.201  52.112  1.00  0.00    -0.022 A 
HETATM    6  C11 UNL     1      23.323   1.793  50.928  1.00  0.00     0.013 A 
HETATM    7  C12 UNL     1      24.279   2.536  50.269  1.00  0.00     0.013 A 
BRANCH   3   8
HETATM    8  C1  UNL     1      27.265   2.187  52.567  1.00  0.00     0.271 C 
HETATM    9  O1  UNL     1      27.407   2.380  53.801  1.00  0.00    -0.301 OA
ENDBRANCH   3   8
BRANCH   5  10
HETATM   10  C5  UNL     1      22.743   0.401  52.864  1.00  0.00     0.007 A 
HETATM   11  C6  UNL     1      22.943  -0.894  53.292  1.00  0.00     0.015 A 
HETATM   12  C7  UNL     1      21.975  -1.570  53.998  1.00  0.00     0.001 A 
HETATM   13  C8  UNL     1      20.752  -0.969  54.308  1.00  0.00     0.003 A 
HETATM   14  C9  UNL     1      20.531   0.328  53.889  1.00  0.00     0.037 A 
HETATM   15  C10 UNL     1      21.528   0.963  53.186  1.00  0.00     0.076 A 
BRANCH  15  16
HETATM   16  O2  UNL     1      21.206   2.272  52.806  1.00  0.00    -0.360 OA
HETATM   17  H7  UNL     1      21.446   3.094  53.332  1.00  0.00     0.217 HD
ENDBRANCH  15  16
ENDBRANCH   5  10
ENDBRANCH   1   2
BRANCH   1  18
HETATM   18  C15 UNL     1      26.562   4.521  49.347  1.00  0.00     0.030 C 
BRANCH  18  19
HETATM   19  C16 UNL     1      26.392   5.944  49.060  1.00  0.00     0.035 C 
HETATM   20  C17 UNL     1      25.211   6.534  48.590  1.00  0.00    -0.025 C 
HETATM   21  C21 UNL     1      25.685   7.884  48.062  1.00  0.00    -0.053 C 
HETATM   22  C22 UNL     1      26.143   8.029  46.786  1.00  0.00    -0.017 C 
HETATM   23  C26 UNL     1      25.904   9.193  48.864  1.00  0.00     0.041 C 
HETATM   24  C23 UNL     1      27.599   7.871  47.128  1.00  0.00     0.053 C 
HETATM   25  C24 UNL     1      28.012   7.904  48.546  1.00  0.00     0.085 C 
HETATM   26  C25 UNL     1      27.410   9.116  49.229  1.00  0.00     0.030 C 
HETATM   27  N1  UNL     1      27.688   6.655  49.298  1.00  0.00    -0.385 N 
HETATM   28  H25 UNL     1      28.322   6.178  50.027  1.00  0.00     0.160 HD
BRANCH  20  29
HETATM   29  C18 UNL     1      23.908   5.805  48.712  1.00  0.00     0.052 C 
BRANCH  29  30
HETATM   30  C19 UNL     1      23.042   6.364  49.783  1.00  0.00     0.115 C 
BRANCH  30  31
HETATM   31  C20 UNL     1      23.734   6.462  51.074  1.00  0.00     0.139 C 
HETATM   32  O3  UNL     1      23.373   5.488  51.810  1.00  0.00    -0.650 OA
BRANCH  31  33
HETATM   33  O4  UNL     1      24.577   6.984  52.037  1.00  0.00    -0.776 OA
HETATM   34  H16 UNL     1      24.138   7.435  52.829  1.00  0.00     0.167 HD
ENDBRANCH  31  33
ENDBRANCH  30  31
ENDBRANCH  29  30
ENDBRANCH  20  29
ENDBRANCH  18  19
ENDBRANCH   1  18
TORSDOF 10
ENDMDL
MODEL 6
REMARK VINA RESULT:      -9.0      2.481      9.534
REMARK  10 active torsions:
REMARK  status: ('A' for Active; 'I' for Inactive)
REMARK    1  A    between atoms: C1_2  and  C2_3 
REMARK    2  A    between atoms: C4_5  and  C5_6 
REMARK    3  A    between atoms: C10_11  and  O2_12 
REMARK    4  A    between atoms: C13_15  and  C14_16 
REMARK    5  A    between atoms: C14_16  and  C15_17 
REMARK    6  A    between atoms: C15_17  and  C16_18 
REMARK    7  A    between atoms: C17_19  and  C18_20 
REMARK    8  A    between atoms: C18_20  and  C19_21 
REMARK    9  A    between atoms: C19_21  and  C20_22 
REMARK   10  A    between atoms: C20_22  and  O4_24 
ROOT
HETATM    1  C14 UNL     1      26.736   3.377  50.227  1.00  0.00     0.014 C 
ENDROOT
BRANCH   1   2
HETATM    2  C13 UNL     1      25.743   2.654  51.000  1.00  0.00    -0.023 A 
HETATM    3  C2  UNL     1      26.146   2.093  52.178  1.00  0.00     0.013 A 
HETATM    4  C3  UNL     1      25.154   1.439  52.838  1.00  0.00     0.027 A 
HETATM    5  C4  UNL     1      23.866   1.352  52.360  1.00  0.00    -0.022 A 
HETATM    6  C11 UNL     1      23.504   1.934  51.166  1.00  0.00     0.013 A 
HETATM    7  C12 UNL     1      24.490   2.605  50.476  1.00  0.00     0.013 A 
BRANCH   3   8
HETATM    8  C1  UNL     1      27.486   2.145  52.741  1.00  0.00     0.271 C 
HETATM    9  O1  UNL     1      27.665   2.489  53.937  1.00  0.00    -0.301 OA
ENDBRANCH   3   8
BRANCH   5  10
HETATM   10  C5  UNL     1      22.875   0.627  53.145  1.00  0.00     0.007 A 
HETATM   11  C6  UNL     1      21.549   0.978  53.282  1.00  0.00     0.015 A 
HETATM   12  C7  UNL     1      20.687   0.228  54.049  1.00  0.00     0.001 A 
HETATM   13  C8  UNL     1      21.124  -0.919  54.716  1.00  0.00     0.003 A 
HETATM   14  C9  UNL     1      22.449  -1.290  54.592  1.00  0.00     0.037 A 
HETATM   15  C10 UNL     1      23.272  -0.508  53.816  1.00  0.00     0.076 A 
BRANCH  15  16
HETATM   16  O2  UNL     1      24.594  -0.967  53.755  1.00  0.00    -0.360 OA
HETATM   17  H7  UNL     1      25.165  -1.170  54.556  1.00  0.00     0.217 HD
ENDBRANCH  15  16
ENDBRANCH   5  10
ENDBRANCH   1   2
BRANCH   1  18
HETATM   18  C15 UNL     1      26.839   4.233  49.247  1.00  0.00     0.030 C 
BRANCH  18  19
HETATM   19  C16 UNL     1      26.975   5.562  48.653  1.00  0.00     0.035 C 
HETATM   20  C17 UNL     1      28.184   6.146  48.256  1.00  0.00    -0.025 C 
HETATM   21  C21 UNL     1      27.830   7.623  48.126  1.00  0.00    -0.053 C 
HETATM   22  C22 UNL     1      27.891   8.468  49.195  1.00  0.00    -0.017 C 
HETATM   23  C26 UNL     1      27.196   8.343  46.908  1.00  0.00     0.041 C 
HETATM   24  C23 UNL     1      26.439   8.352  49.566  1.00  0.00     0.053 C 
HETATM   25  C24 UNL     1      25.506   7.700  48.623  1.00  0.00     0.085 C 
HETATM   26  C25 UNL     1      25.680   8.291  47.237  1.00  0.00     0.030 C 
HETATM   27  N1  UNL     1      25.627   6.212  48.584  1.00  0.00    -0.385 N 
HETATM   28  H25 UNL     1      24.807   5.517  48.518  1.00  0.00     0.160 HD
BRANCH  20  29
HETATM   29  C18 UNL     1      29.400   5.293  48.057  1.00  0.00     0.052 C 
BRANCH  29  30
HETATM   30  C19 UNL     1      30.658   6.083  48.075  1.00  0.00     0.115 C 
BRANCH  30  31
HETATM   31  C20 UNL     1      31.398   5.938  49.333  1.00  0.00     0.139 C 
HETATM   32  O3  UNL     1      32.517   6.536  49.225  1.00  0.00    -0.650 OA
BRANCH  31  33
HETATM   33  O4  UNL     1      31.648   5.533  50.631  1.00  0.00    -0.776 OA
HETATM   34  H16 UNL     1      31.138   4.724  50.962  1.00  0.00     0.167 HD
ENDBRANCH  31  33
ENDBRANCH  30  31
ENDBRANCH  29  30
ENDBRANCH  20  29
ENDBRANCH  18  19
ENDBRANCH   1  18
TORSDOF 10
ENDMDL
MODEL 7
REMARK VINA RESULT:      -8.9      5.471      8.632
REMARK  10 active torsions:
REMARK  status: ('A' for Active; 'I' for Inactive)
REMARK    1  A    between atoms: C1_2  and  C2_3 
REMARK    2  A    between atoms: C4_5  and  C5_6 
REMARK    3  A    between atoms: C10_11  and  O2_12 
REMARK    4  A    between atoms: C13_15  and  C14_16 
REMARK    5  A    between atoms: C14_16  and  C15_17 
REMARK    6  A    between atoms: C15_17  and  C16_18 
REMARK    7  A    between atoms: C17_19  and  C18_20 
REMARK    8  A    between atoms: C18_20  and  C19_21 
REMARK    9  A    between atoms: C19_21  and  C20_22 
REMARK   10  A    between atoms: C20_22  and  O4_24 
ROOT
HETATM    1  C14 UNL     1      21.395   0.668  52.738  1.00  0.00     0.014 C 
ENDROOT
BRANCH   1   2
HETATM    2  C13 UNL     1      22.812   0.439  52.954  1.00  0.00    -0.023 A 
HETATM    3  C2  UNL     1      23.167  -0.407  53.965  1.00  0.00     0.013 A 
HETATM    4  C3  UNL     1      24.511  -0.566  54.096  1.00  0.00     0.027 A 
HETATM    5  C4  UNL     1      25.424   0.068  53.283  1.00  0.00    -0.022 A 
HETATM    6  C11 UNL     1      25.019   0.913  52.275  1.00  0.00     0.013 A 
HETATM    7  C12 UNL     1      23.662   1.093  52.119  1.00  0.00     0.013 A 
BRANCH   3   8
HETATM    8  C1  UNL     1      22.259  -1.108  54.859  1.00  0.00     0.271 C 
HETATM    9  O1  UNL     1      22.702  -1.912  55.718  1.00  0.00    -0.301 OA
ENDBRANCH   3   8
BRANCH   5  10
HETATM   10  C5  UNL     1      26.844  -0.171  53.506  1.00  0.00     0.007 A 
HETATM   11  C6  UNL     1      27.686   0.637  54.240  1.00  0.00     0.015 A 
HETATM   12  C7  UNL     1      29.018   0.327  54.394  1.00  0.00     0.001 A 
HETATM   13  C8  UNL     1      29.566  -0.819  53.813  1.00  0.00     0.003 A 
HETATM   14  C9  UNL     1      28.741  -1.643  53.073  1.00  0.00     0.037 A 
HETATM   15  C10 UNL     1      27.417  -1.292  52.947  1.00  0.00     0.076 A 
BRANCH  15  16
HETATM   16  O2  UNL     1      26.665  -2.190  52.179  1.00  0.00    -0.360 OA
HETATM   17  H7  UNL     1      25.667  -2.290  52.235  1.00  0.00     0.217 HD
ENDBRANCH  15  16
ENDBRANCH   5  10
ENDBRANCH   1   2
BRANCH   1  18
HETATM   18  C15 UNL     1      20.356   0.141  52.149  1.00  0.00     0.030 C 
BRANCH  18  19
HETATM   19  C16 UNL     1      19.112   0.160  51.382  1.00  0.00     0.035 C 
HETATM   20  C17 UNL     1      18.892   0.918  50.225  1.00  0.00    -0.025 C 
HETATM   21  C21 UNL     1      17.373   0.915  50.092  1.00  0.00    -0.053 C 
HETATM   22  C22 UNL     1      16.601   1.846  50.724  1.00  0.00    -0.017 C 
HETATM   23  C26 UNL     1      16.480  -0.167  49.434  1.00  0.00     0.041 C 
HETATM   24  C23 UNL     1      16.302   1.001  51.932  1.00  0.00     0.053 C 
HETATM   25  C24 UNL     1      16.642  -0.436  51.906  1.00  0.00     0.085 C 
HETATM   26  C25 UNL     1      16.101  -1.070  50.639  1.00  0.00     0.030 C 
HETATM   27  N1  UNL     1      18.102  -0.715  52.058  1.00  0.00    -0.385 N 
HETATM   28  H25 UNL     1      18.532  -1.514  52.638  1.00  0.00     0.160 HD
BRANCH  20  29
HETATM   29  C18 UNL     1      20.054   1.477  49.462  1.00  0.00     0.052 C 
BRANCH  29  30
HETATM   30  C19 UNL     1      20.056   2.963  49.438  1.00  0.00     0.115 C 
BRANCH  30  31
HETATM   31  C20 UNL     1      19.940   3.549  50.778  1.00  0.00     0.139 C 
HETATM   32  O3  UNL     1      20.879   4.394  50.943  1.00  0.00    -0.650 OA
BRANCH  31  33
HETATM   33  O4  UNL     1      19.416   3.765  52.040  1.00  0.00    -0.776 OA
HETATM   34  H16 UNL     1      18.529   4.248  52.087  1.00  0.00     0.167 HD
ENDBRANCH  31  33
ENDBRANCH  30  31
ENDBRANCH  29  30
ENDBRANCH  20  29
ENDBRANCH  18  19
ENDBRANCH   1  18
TORSDOF 10
ENDMDL
MODEL 8
REMARK VINA RESULT:      -8.8      1.861      3.305
REMARK  10 active torsions:
REMARK  status: ('A' for Active; 'I' for Inactive)
REMARK    1  A    between atoms: C1_2  and  C2_3 
REMARK    2  A    between atoms: C4_5  and  C5_6 
REMARK    3  A    between atoms: C10_11  and  O2_12 
REMARK    4  A    between atoms: C13_15  and  C14_16 
REMARK    5  A    between atoms: C14_16  and  C15_17 
REMARK    6  A    between atoms: C15_17  and  C16_18 
REMARK    7  A    between atoms: C17_19  and  C18_20 
REMARK    8  A    between atoms: C18_20  and  C19_21 
REMARK    9  A    between atoms: C19_21  and  C20_22 
REMARK   10  A    between atoms: C20_22  and  O4_24 
ROOT
HETATM    1  C14 UNL     1      24.130   4.104  51.307  1.00  0.00     0.014 C 
ENDROOT
BRANCH   1   2
HETATM    2  C13 UNL     1      25.096   4.775  50.455  1.00  0.00    -0.023 A 
HETATM    3  C2  UNL     1      25.067   6.139  50.423  1.00  0.00     0.013 A 
HETATM    4  C3  UNL     1      26.005   6.684  49.604  1.00  0.00     0.027 A 
HETATM    5  C4  UNL     1      26.897   5.928  48.877  1.00  0.00    -0.022 A 
HETATM    6  C11 UNL     1      26.888   4.553  48.941  1.00  0.00     0.013 A 
HETATM    7  C12 UNL     1      25.948   3.973  49.764  1.00  0.00     0.013 A 
BRANCH   3   8
HETATM    8  C1  UNL     1      24.155   6.998  51.161  1.00  0.00     0.271 C 
HETATM    9  O1  UNL     1      23.155   7.506  50.594  1.00  0.00    -0.301 OA
ENDBRANCH   3   8
BRANCH   5  10
HETATM   10  C5  UNL     1      27.864   6.610  48.027  1.00  0.00     0.007 A 
HETATM   11  C6  UNL     1      27.558   7.513  47.031  1.00  0.00     0.015 A 
HETATM   12  C7  UNL     1      28.546   8.108  46.279  1.00  0.00     0.001 A 
HETATM   13  C8  UNL     1      29.895   7.819  46.497  1.00  0.00     0.003 A 
HETATM   14  C9  UNL     1      30.224   6.918  47.490  1.00  0.00     0.037 A 
HETATM   15  C10 UNL     1      29.203   6.349  48.215  1.00  0.00     0.076 A 
BRANCH  15  16
HETATM   16  O2  UNL     1      29.640   5.450  49.196  1.00  0.00    -0.360 OA
HETATM   17  H7  UNL     1      29.570   5.608  50.186  1.00  0.00     0.217 HD
ENDBRANCH  15  16
ENDBRANCH   5  10
ENDBRANCH   1   2
BRANCH   1  18
HETATM   18  C15 UNL     1      23.687   2.913  51.603  1.00  0.00     0.030 C 
BRANCH  18  19
HETATM   19  C16 UNL     1      23.169   1.870  52.487  1.00  0.00     0.035 C 
HETATM   20  C17 UNL     1      23.949   0.903  53.135  1.00  0.00    -0.025 C 
HETATM   21  C21 UNL     1      22.926  -0.148  53.547  1.00  0.00    -0.053 C 
HETATM   22  C22 UNL     1      22.561  -1.157  52.704  1.00  0.00    -0.017 C 
HETATM   23  C26 UNL     1      22.035  -0.160  54.816  1.00  0.00     0.041 C 
HETATM   24  C23 UNL     1      21.342  -0.466  52.159  1.00  0.00     0.053 C 
HETATM   25  C24 UNL     1      20.850   0.757  52.825  1.00  0.00     0.085 C 
HETATM   26  C25 UNL     1      20.730   0.517  54.318  1.00  0.00     0.030 C 
HETATM   27  N1  UNL     1      21.676   1.970  52.548  1.00  0.00    -0.385 N 
HETATM   28  H25 UNL     1      21.295   2.962  52.367  1.00  0.00     0.160 HD
BRANCH  20  29
HETATM   29  C18 UNL     1      25.428   1.103  53.275  1.00  0.00     0.052 C 
BRANCH  29  30
HETATM   30  C19 UNL     1      26.211   0.153  52.443  1.00  0.00     0.115 C 
BRANCH  30  31
HETATM   31  C20 UNL     1      27.150  -0.650  53.235  1.00  0.00     0.139 C 
HETATM   32  O3  UNL     1      26.743  -1.856  53.259  1.00  0.00    -0.650 OA
BRANCH  31  33
HETATM   33  O4  UNL     1      28.260  -0.924  54.012  1.00  0.00    -0.776 OA
HETATM   34  H16 UNL     1      28.842  -0.136  54.267  1.00  0.00     0.167 HD
ENDBRANCH  31  33
ENDBRANCH  30  31
ENDBRANCH  29  30
ENDBRANCH  20  29
ENDBRANCH  18  19
ENDBRANCH   1  18
TORSDOF 10
ENDMDL
MODEL 9
REMARK VINA RESULT:      -8.7      5.253      8.224
REMARK  10 active torsions:
REMARK  status: ('A' for Active; 'I' for Inactive)
REMARK    1  A    between atoms: C1_2  and  C2_3 
REMARK    2  A    between atoms: C4_5  and  C5_6 
REMARK    3  A    between atoms: C10_11  and  O2_12 
REMARK    4  A    between atoms: C13_15  and  C14_16 
REMARK    5  A    between atoms: C14_16  and  C15_17 
REMARK    6  A    between atoms: C15_17  and  C16_18 
REMARK    7  A    between atoms: C17_19  and  C18_20 
REMARK    8  A    between atoms: C18_20  and  C19_21 
REMARK    9  A    between atoms: C19_21  and  C20_22 
REMARK   10  A    between atoms: C20_22  and  O4_24 
ROOT
HETATM    1  C14 UNL     1      21.479   0.754  52.644  1.00  0.00     0.014 C 
ENDROOT
BRANCH   1   2
HETATM    2  C13 UNL     1      22.901   0.515  52.819  1.00  0.00    -0.023 A 
HETATM    3  C2  UNL     1      23.757   1.156  51.970  1.00  0.00     0.013 A 
HETATM    4  C3  UNL     1      25.066   0.877  52.204  1.00  0.00     0.027 A 
HETATM    5  C4  UNL     1      25.485   0.029  53.204  1.00  0.00    -0.022 A 
HETATM    6  C11 UNL     1      24.585  -0.596  54.037  1.00  0.00     0.013 A 
HETATM    7  C12 UNL     1      23.250  -0.332  53.822  1.00  0.00     0.013 A 
BRANCH   3   8
HETATM    8  C1  UNL     1      23.384   2.062  50.895  1.00  0.00     0.271 C 
HETATM    9  O1  UNL     1      23.333   3.302  51.094  1.00  0.00    -0.301 OA
ENDBRANCH   3   8
BRANCH   5  10
HETATM   10  C5  UNL     1      26.914  -0.203  53.373  1.00  0.00     0.007 A 
HETATM   11  C6  UNL     1      27.596  -1.330  52.966  1.00  0.00     0.015 A 
HETATM   12  C7  UNL     1      28.951  -1.457  53.171  1.00  0.00     0.001 A 
HETATM   13  C8  UNL     1      29.686  -0.449  53.798  1.00  0.00     0.003 A 
HETATM   14  C9  UNL     1      29.023   0.690  54.214  1.00  0.00     0.037 A 
HETATM   15  C10 UNL     1      27.669   0.771  53.988  1.00  0.00     0.076 A 
BRANCH  15  16
HETATM   16  O2  UNL     1      27.090   1.961  54.446  1.00  0.00    -0.360 OA
HETATM   17  H7  UNL     1      26.420   2.019  55.192  1.00  0.00     0.217 HD
ENDBRANCH  15  16
ENDBRANCH   5  10
ENDBRANCH   1   2
BRANCH   1  18
HETATM   18  C15 UNL     1      20.412   0.214  52.122  1.00  0.00     0.030 C 
BRANCH  18  19
HETATM   19  C16 UNL     1      19.155   0.210  51.376  1.00  0.00     0.035 C 
HETATM   20  C17 UNL     1      18.924   0.909  50.184  1.00  0.00    -0.025 C 
HETATM   21  C21 UNL     1      17.403   0.919  50.078  1.00  0.00    -0.053 C 
HETATM   22  C22 UNL     1      16.654   1.891  50.672  1.00  0.00    -0.017 C 
HETATM   23  C26 UNL     1      16.485  -0.185  49.493  1.00  0.00     0.041 C 
HETATM   24  C23 UNL     1      16.366   1.116  51.928  1.00  0.00     0.053 C 
HETATM   25  C24 UNL     1      16.688  -0.325  51.972  1.00  0.00     0.085 C 
HETATM   26  C25 UNL     1      16.117  -1.018  50.750  1.00  0.00     0.030 C 
HETATM   27  N1  UNL     1      18.146  -0.615  52.114  1.00  0.00    -0.385 N 
HETATM   28  H25 UNL     1      18.576  -1.388  52.729  1.00  0.00     0.160 HD
BRANCH  20  29
HETATM   29  C18 UNL     1      20.079   1.412  49.373  1.00  0.00     0.052 C 
BRANCH  29  30
HETATM   30  C19 UNL     1      20.024   2.881  49.156  1.00  0.00     0.115 C 
BRANCH  30  31
HETATM   31  C20 UNL     1      20.002   3.637  50.413  1.00  0.00     0.139 C 
HETATM   32  O3  UNL     1      19.139   4.569  50.319  1.00  0.00    -0.650 OA
BRANCH  31  33
HETATM   33  O4  UNL     1      20.355   3.985  51.704  1.00  0.00    -0.776 OA
HETATM   34  H16 UNL     1      20.073   3.350  52.439  1.00  0.00     0.167 HD
ENDBRANCH  31  33
ENDBRANCH  30  31
ENDBRANCH  29  30
ENDBRANCH  20  29
ENDBRANCH  18  19
ENDBRANCH   1  18
TORSDOF 10
ENDMDL
