MODEL 1
REMARK VINA RESULT:      -9.6      0.000      0.000
REMARK  2 active torsions:
REMARK  status: ('A' for Active; 'I' for Inactive)
REMARK    1  A    between atoms: C7_7  and  N1_8 
REMARK    2  A    between atoms: N1_8  and  C8_9 
ROOT
HETATM    1  C1  UNL     1      30.394   5.515  47.825  1.00  0.00     0.018 C 
HETATM    2  C2  UNL     1      29.231   5.542  48.120  1.00  0.00    -0.078 C 
HETATM    3  C3  UNL     1      27.844   5.576  48.448  1.00  0.00     0.019 A 
HETATM    4  C4  UNL     1      27.093   6.697  48.171  1.00  0.00     0.021 A 
HETATM    5  C5  UNL     1      25.764   6.673  48.509  1.00  0.00     0.004 A 
HETATM    6  C6  UNL     1      25.223   5.556  49.104  1.00  0.00     0.029 A 
HETATM    7  C7  UNL     1      25.913   4.408  49.407  1.00  0.00     0.035 A 
HETATM    8  C19 UNL     1      27.239   4.493  49.044  1.00  0.00     0.050 A 
ENDROOT
BRANCH   7   9
HETATM    9  N1  UNL     1      25.330   3.292  50.019  1.00  0.00    -0.340 N 
HETATM   10  H5  UNL     1      24.424   3.066  49.568  1.00  0.00     0.167 HD
BRANCH   9  11
HETATM   11  C8  UNL     1      25.826   2.529  51.089  1.00  0.00     0.142 A 
HETATM   12  N2  UNL     1      27.097   2.485  51.499  1.00  0.00    -0.224 NA
HETATM   13  C9  UNL     1      27.515   1.740  52.526  1.00  0.00     0.236 A 
HETATM   14  N3  UNL     1      26.688   0.962  53.242  1.00  0.00    -0.241 NA
HETATM   15  C10 UNL     1      25.395   0.961  52.881  1.00  0.00     0.075 A 
HETATM   16  C11 UNL     1      24.569   0.155  53.633  1.00  0.00     0.072 A 
HETATM   17  C15 UNL     1      24.973   1.733  51.821  1.00  0.00     0.042 A 
HETATM   18  C12 UNL     1      23.239   0.089  53.341  1.00  0.00     0.107 A 
HETATM   19  C13 UNL     1      22.742   0.838  52.289  1.00  0.00     0.103 A 
HETATM   20  O3  UNL     1      22.626  -0.788  54.241  1.00  0.00    -0.323 OA
HETATM   21  C14 UNL     1      23.623   1.622  51.578  1.00  0.00     0.057 A 
HETATM   22  O1  UNL     1      21.473   0.992  51.747  1.00  0.00    -0.346 OA
HETATM   23  C16 UNL     1      20.357   0.150  51.713  1.00  0.00     0.202 C 
HETATM   24  C17 UNL     1      19.737  -0.170  53.028  1.00  0.00     0.197 C 
HETATM   25  O2  UNL     1      20.481   0.138  54.139  1.00  0.00    -0.364 OA
HETATM   26  C18 UNL     1      21.245  -0.956  54.607  1.00  0.00     0.345 C 
ENDBRANCH   9  11
ENDBRANCH   7   9
TORSDOF 2
ENDMDL
MODEL 2
REMARK VINA RESULT:      -9.3      3.869      5.443
REMARK  2 active torsions:
REMARK  status: ('A' for Active; 'I' for Inactive)
REMARK    1  A    between atoms: C7_7  and  N1_8 
REMARK    2  A    between atoms: N1_8  and  C8_9 
ROOT
HETATM    1  C1  UNL     1      29.695  -2.188  53.420  1.00  0.00     0.018 C 
HETATM    2  C2  UNL     1      28.972  -1.232  53.374  1.00  0.00    -0.078 C 
HETATM    3  C3  UNL     1      28.123  -0.089  53.301  1.00  0.00     0.019 A 
HETATM    4  C4  UNL     1      28.648   1.175  53.453  1.00  0.00     0.021 A 
HETATM    5  C5  UNL     1      27.784   2.238  53.373  1.00  0.00     0.004 A 
HETATM    6  C6  UNL     1      26.444   2.022  53.150  1.00  0.00     0.029 A 
HETATM    7  C7  UNL     1      25.856   0.792  52.991  1.00  0.00     0.035 A 
HETATM    8  C19 UNL     1      26.773  -0.232  53.080  1.00  0.00     0.050 A 
ENDROOT
BRANCH   7   9
HETATM    9  N1  UNL     1      24.486   0.610  52.772  1.00  0.00    -0.340 N 
HETATM   10  H5  UNL     1      24.190   1.106  51.910  1.00  0.00     0.167 HD
BRANCH   9  11
HETATM   11  C8  UNL     1      23.569  -0.118  53.549  1.00  0.00     0.142 A 
HETATM   12  N2  UNL     1      23.863  -0.850  54.627  1.00  0.00    -0.224 NA
HETATM   13  C9  UNL     1      22.949  -1.524  55.332  1.00  0.00     0.236 A 
HETATM   14  N3  UNL     1      21.644  -1.526  55.014  1.00  0.00    -0.241 NA
HETATM   15  C10 UNL     1      21.283  -0.808  53.939  1.00  0.00     0.075 A 
HETATM   16  C11 UNL     1      19.939  -0.826  53.638  1.00  0.00     0.072 A 
HETATM   17  C15 UNL     1      22.232  -0.115  53.219  1.00  0.00     0.042 A 
HETATM   18  C12 UNL     1      19.477  -0.126  52.563  1.00  0.00     0.107 A 
HETATM   19  C13 UNL     1      20.373   0.594  51.792  1.00  0.00     0.103 A 
HETATM   20  O3  UNL     1      18.093  -0.305  52.473  1.00  0.00    -0.323 OA
HETATM   21  C14 UNL     1      21.702   0.569  52.150  1.00  0.00     0.057 A 
HETATM   22  O1  UNL     1      20.230   1.391  50.664  1.00  0.00    -0.346 OA
HETATM   23  C16 UNL     1      19.291   1.395  49.629  1.00  0.00     0.202 C 
HETATM   24  C17 UNL     1      17.891   1.723  50.014  1.00  0.00     0.197 C 
HETATM   25  O2  UNL     1      17.610   1.693  51.357  1.00  0.00    -0.364 OA
HETATM   26  C18 UNL     1      17.084   0.449  51.778  1.00  0.00     0.345 C 
ENDBRANCH   9  11
ENDBRANCH   7   9
TORSDOF 2
ENDMDL
MODEL 3
REMARK VINA RESULT:      -9.1      2.816      4.786
REMARK  2 active torsions:
REMARK  status: ('A' for Active; 'I' for Inactive)
REMARK    1  A    between atoms: C7_7  and  N1_8 
REMARK    2  A    between atoms: N1_8  and  C8_9 
ROOT
HETATM    1  C1  UNL     1      27.522   5.174  48.538  1.00  0.00     0.018 C 
HETATM    2  C2  UNL     1      26.503   4.974  49.140  1.00  0.00    -0.078 C 
HETATM    3  C3  UNL     1      25.282   4.750  49.841  1.00  0.00     0.019 A 
HETATM    4  C4  UNL     1      24.674   5.782  50.521  1.00  0.00     0.021 A 
HETATM    5  C5  UNL     1      23.502   5.508  51.178  1.00  0.00     0.004 A 
HETATM    6  C6  UNL     1      22.972   4.239  51.145  1.00  0.00     0.029 A 
HETATM    7  C7  UNL     1      23.525   3.167  50.490  1.00  0.00     0.035 A 
HETATM    8  C19 UNL     1      24.698   3.505  49.850  1.00  0.00     0.050 A 
ENDROOT
BRANCH   7   9
HETATM    9  N1  UNL     1      22.961   1.887  50.483  1.00  0.00    -0.340 N 
HETATM   10  H5  UNL     1      22.619   1.648  49.534  1.00  0.00     0.167 HD
BRANCH   9  11
HETATM   11  C8  UNL     1      22.832   0.988  51.556  1.00  0.00     0.142 A 
HETATM   12  N2  UNL     1      21.729   0.310  51.884  1.00  0.00    -0.224 NA
HETATM   13  C9  UNL     1      21.662  -0.535  52.917  1.00  0.00     0.236 A 
HETATM   14  N3  UNL     1      22.708  -0.778  53.724  1.00  0.00    -0.241 NA
HETATM   15  C10 UNL     1      23.849  -0.127  53.448  1.00  0.00     0.075 A 
HETATM   16  C11 UNL     1      24.905  -0.396  54.291  1.00  0.00     0.072 A 
HETATM   17  C15 UNL     1      23.908   0.742  52.380  1.00  0.00     0.042 A 
HETATM   18  C12 UNL     1      26.105   0.218  54.089  1.00  0.00     0.107 A 
HETATM   19  C13 UNL     1      26.240   1.105  53.035  1.00  0.00     0.103 A 
HETATM   20  O3  UNL     1      27.002  -0.220  55.068  1.00  0.00    -0.323 OA
HETATM   21  C14 UNL     1      25.144   1.328  52.231  1.00  0.00     0.057 A 
HETATM   22  O1  UNL     1      27.298   1.873  52.568  1.00  0.00    -0.346 OA
HETATM   23  C16 UNL     1      28.419   2.414  53.205  1.00  0.00     0.202 C 
HETATM   24  C17 UNL     1      29.397   1.436  53.755  1.00  0.00     0.197 C 
HETATM   25  O2  UNL     1      28.966   0.136  53.848  1.00  0.00    -0.364 OA
HETATM   26  C18 UNL     1      28.439  -0.174  55.124  1.00  0.00     0.345 C 
ENDBRANCH   9  11
ENDBRANCH   7   9
TORSDOF 2
ENDMDL
MODEL 4
REMARK VINA RESULT:      -9.0      1.078      2.245
REMARK  2 active torsions:
REMARK  status: ('A' for Active; 'I' for Inactive)
REMARK    1  A    between atoms: C7_7  and  N1_8 
REMARK    2  A    between atoms: N1_8  and  C8_9 
ROOT
HETATM    1  C1  UNL     1      23.330   8.017  49.628  1.00  0.00     0.018 C 
HETATM    2  C2  UNL     1      24.271   7.304  49.410  1.00  0.00    -0.078 C 
HETATM    3  C3  UNL     1      25.401   6.471  49.166  1.00  0.00     0.019 A 
HETATM    4  C4  UNL     1      26.495   6.967  48.493  1.00  0.00     0.021 A 
HETATM    5  C5  UNL     1      27.554   6.120  48.286  1.00  0.00     0.004 A 
HETATM    6  C6  UNL     1      27.500   4.824  48.744  1.00  0.00     0.029 A 
HETATM    7  C7  UNL     1      26.443   4.266  49.420  1.00  0.00     0.035 A 
HETATM    8  C19 UNL     1      25.414   5.165  49.597  1.00  0.00     0.050 A 
ENDROOT
BRANCH   7   9
HETATM    9  N1  UNL     1      26.421   2.940  49.866  1.00  0.00    -0.340 N 
HETATM   10  H5  UNL     1      26.315   2.291  49.063  1.00  0.00     0.167 HD
BRANCH   9  11
HETATM   11  C8  UNL     1      26.522   2.464  51.184  1.00  0.00     0.142 A 
HETATM   12  N2  UNL     1      27.620   2.489  51.945  1.00  0.00    -0.224 NA
HETATM   13  C9  UNL     1      27.661   2.022  53.196  1.00  0.00     0.236 A 
HETATM   14  N3  UNL     1      26.592   1.480  53.803  1.00  0.00    -0.241 NA
HETATM   15  C10 UNL     1      25.456   1.425  53.091  1.00  0.00     0.075 A 
HETATM   16  C11 UNL     1      24.376   0.866  53.739  1.00  0.00     0.072 A 
HETATM   17  C15 UNL     1      25.423   1.909  51.802  1.00  0.00     0.042 A 
HETATM   18  C12 UNL     1      23.178   0.766  53.095  1.00  0.00     0.107 A 
HETATM   19  C13 UNL     1      23.070   1.233  51.797  1.00  0.00     0.103 A 
HETATM   20  O3  UNL     1      22.254   0.170  53.959  1.00  0.00    -0.323 OA
HETATM   21  C14 UNL     1      24.188   1.780  51.209  1.00  0.00     0.057 A 
HETATM   22  O1  UNL     1      22.021   1.280  50.888  1.00  0.00    -0.346 OA
HETATM   23  C16 UNL     1      20.877   0.492  50.731  1.00  0.00     0.202 C 
HETATM   24  C17 UNL     1      19.890   0.541  51.844  1.00  0.00     0.197 C 
HETATM   25  O2  UNL     1      20.327   1.103  53.017  1.00  0.00    -0.364 OA
HETATM   26  C18 UNL     1      20.816   0.143  53.934  1.00  0.00     0.345 C 
ENDBRANCH   9  11
ENDBRANCH   7   9
TORSDOF 2
ENDMDL
MODEL 5
REMARK VINA RESULT:      -8.9      2.652      7.730
REMARK  2 active torsions:
REMARK  status: ('A' for Active; 'I' for Inactive)
REMARK    1  A    between atoms: C7_7  and  N1_8 
REMARK    2  A    between atoms: N1_8  and  C8_9 
ROOT
HETATM    1  C1  UNL     1      17.715  -2.691  53.809  1.00  0.00     0.018 C 
HETATM    2  C2  UNL     1      18.409  -1.821  53.360  1.00  0.00    -0.078 C 
HETATM    3  C3  UNL     1      19.218  -0.773  52.831  1.00  0.00     0.019 A 
HETATM    4  C4  UNL     1      18.814  -0.086  51.708  1.00  0.00     0.021 A 
HETATM    5  C5  UNL     1      19.633   0.912  51.243  1.00  0.00     0.004 A 
HETATM    6  C6  UNL     1      20.810   1.198  51.895  1.00  0.00     0.029 A 
HETATM    7  C7  UNL     1      21.271   0.553  53.016  1.00  0.00     0.035 A 
HETATM    8  C19 UNL     1      20.408  -0.435  53.433  1.00  0.00     0.050 A 
ENDROOT
BRANCH   7   9
HETATM    9  N1  UNL     1      22.480   0.867  53.648  1.00  0.00    -0.340 N 
HETATM   10  H5  UNL     1      22.305   1.439  54.495  1.00  0.00     0.167 HD
BRANCH   9  11
HETATM   11  C8  UNL     1      23.782   0.504  53.265  1.00  0.00     0.142 A 
HETATM   12  N2  UNL     1      24.415  -0.622  53.605  1.00  0.00    -0.224 NA
HETATM   13  C9  UNL     1      25.657  -0.918  53.211  1.00  0.00     0.236 A 
HETATM   14  N3  UNL     1      26.385  -0.100  52.432  1.00  0.00    -0.241 NA
HETATM   15  C10 UNL     1      25.805   1.050  52.055  1.00  0.00     0.075 A 
HETATM   16  C11 UNL     1      26.574   1.868  51.256  1.00  0.00     0.072 A 
HETATM   17  C15 UNL     1      24.524   1.346  52.466  1.00  0.00     0.042 A 
HETATM   18  C12 UNL     1      26.070   3.058  50.823  1.00  0.00     0.107 A 
HETATM   19  C13 UNL     1      24.788   3.423  51.196  1.00  0.00     0.103 A 
HETATM   20  O3  UNL     1      27.035   3.693  50.036  1.00  0.00    -0.323 OA
HETATM   21  C14 UNL     1      24.075   2.558  51.995  1.00  0.00     0.057 A 
HETATM   22  O1  UNL     1      24.001   4.536  50.930  1.00  0.00    -0.346 OA
HETATM   23  C16 UNL     1      24.321   5.862  50.625  1.00  0.00     0.202 C 
HETATM   24  C17 UNL     1      25.036   6.085  49.339  1.00  0.00     0.197 C 
HETATM   25  O2  UNL     1      25.565   4.969  48.739  1.00  0.00    -0.364 OA
HETATM   26  C18 UNL     1      26.923   4.759  49.076  1.00  0.00     0.345 C 
ENDBRANCH   9  11
ENDBRANCH   7   9
TORSDOF 2
ENDMDL
MODEL 6
REMARK VINA RESULT:      -8.9      3.345      5.412
REMARK  2 active torsions:
REMARK  status: ('A' for Active; 'I' for Inactive)
REMARK    1  A    between atoms: C7_7  and  N1_8 
REMARK    2  A    between atoms: N1_8  and  C8_9 
ROOT
HETATM    1  C1  UNL     1      24.607   6.134  48.703  1.00  0.00     0.018 C 
HETATM    2  C2  UNL     1      23.994   5.132  48.948  1.00  0.00    -0.078 C 
HETATM    3  C3  UNL     1      23.284   3.929  49.232  1.00  0.00     0.019 A 
HETATM    4  C4  UNL     1      22.951   3.064  48.214  1.00  0.00     0.021 A 
HETATM    5  C5  UNL     1      22.267   1.922  48.546  1.00  0.00     0.004 A 
HETATM    6  C6  UNL     1      21.936   1.673  49.858  1.00  0.00     0.029 A 
HETATM    7  C7  UNL     1      22.236   2.491  50.919  1.00  0.00     0.035 A 
HETATM    8  C19 UNL     1      22.922   3.618  50.522  1.00  0.00     0.050 A 
ENDROOT
BRANCH   7   9
HETATM    9  N1  UNL     1      21.876   2.208  52.241  1.00  0.00    -0.340 N 
HETATM   10  H5  UNL     1      21.409   3.028  52.671  1.00  0.00     0.167 HD
BRANCH   9  11
HETATM   11  C8  UNL     1      22.079   1.019  52.962  1.00  0.00     0.142 A 
HETATM   12  N2  UNL     1      21.133   0.146  53.317  1.00  0.00    -0.224 NA
HETATM   13  C9  UNL     1      21.382  -0.973  54.004  1.00  0.00     0.236 A 
HETATM   14  N3  UNL     1      22.618  -1.320  54.402  1.00  0.00    -0.241 NA
HETATM   15  C10 UNL     1      23.615  -0.483  54.075  1.00  0.00     0.075 A 
HETATM   16  C11 UNL     1      24.871  -0.865  54.495  1.00  0.00     0.072 A 
HETATM   17  C15 UNL     1      23.348   0.668  53.367  1.00  0.00     0.042 A 
HETATM   18  C12 UNL     1      25.947  -0.078  54.210  1.00  0.00     0.107 A 
HETATM   19  C13 UNL     1      25.756   1.094  53.500  1.00  0.00     0.103 A 
HETATM   20  O3  UNL     1      27.093  -0.680  54.738  1.00  0.00    -0.323 OA
HETATM   21  C14 UNL     1      24.475   1.416  53.112  1.00  0.00     0.057 A 
HETATM   22  O1  UNL     1      26.617   2.090  53.059  1.00  0.00    -0.346 OA
HETATM   23  C16 UNL     1      27.850   2.545  53.535  1.00  0.00     0.202 C 
HETATM   24  C17 UNL     1      28.975   1.572  53.477  1.00  0.00     0.197 C 
HETATM   25  O2  UNL     1      28.632   0.262  53.250  1.00  0.00    -0.364 OA
HETATM   26  C18 UNL     1      28.488  -0.480  54.445  1.00  0.00     0.345 C 
ENDBRANCH   9  11
ENDBRANCH   7   9
TORSDOF 2
ENDMDL
MODEL 7
REMARK VINA RESULT:      -8.9      2.689      4.578
REMARK  2 active torsions:
REMARK  status: ('A' for Active; 'I' for Inactive)
REMARK    1  A    between atoms: C7_7  and  N1_8 
REMARK    2  A    between atoms: N1_8  and  C8_9 
ROOT
HETATM    1  C1  UNL     1      24.706   9.422  48.898  1.00  0.00     0.018 C 
HETATM    2  C2  UNL     1      25.526   8.559  48.752  1.00  0.00    -0.078 C 
HETATM    3  C3  UNL     1      26.512   7.541  48.595  1.00  0.00     0.019 A 
HETATM    4  C4  UNL     1      27.790   7.870  48.200  1.00  0.00     0.021 A 
HETATM    5  C5  UNL     1      28.697   6.849  48.066  1.00  0.00     0.004 A 
HETATM    6  C6  UNL     1      28.318   5.551  48.321  1.00  0.00     0.029 A 
HETATM    7  C7  UNL     1      27.064   5.155  48.715  1.00  0.00     0.035 A 
HETATM    8  C19 UNL     1      26.201   6.222  48.833  1.00  0.00     0.050 A 
ENDROOT
BRANCH   7   9
HETATM    9  N1  UNL     1      26.713   3.823  48.960  1.00  0.00    -0.340 N 
HETATM   10  H5  UNL     1      27.456   3.186  48.616  1.00  0.00     0.167 HD
BRANCH   9  11
HETATM   11  C8  UNL     1      25.550   3.328  49.574  1.00  0.00     0.142 A 
HETATM   12  N2  UNL     1      24.303   3.465  49.116  1.00  0.00    -0.224 NA
HETATM   13  C9  UNL     1      23.229   2.973  49.742  1.00  0.00     0.236 A 
HETATM   14  N3  UNL     1      23.311   2.294  50.897  1.00  0.00    -0.241 NA
HETATM   15  C10 UNL     1      24.539   2.121  51.411  1.00  0.00     0.075 A 
HETATM   16  C11 UNL     1      24.594   1.420  52.595  1.00  0.00     0.072 A 
HETATM   17  C15 UNL     1      25.640   2.632  50.759  1.00  0.00     0.042 A 
HETATM   18  C12 UNL     1      25.798   1.194  53.194  1.00  0.00     0.107 A 
HETATM   19  C13 UNL     1      26.948   1.677  52.596  1.00  0.00     0.103 A 
HETATM   20  O3  UNL     1      25.585   0.468  54.369  1.00  0.00    -0.323 OA
HETATM   21  C14 UNL     1      26.822   2.371  51.412  1.00  0.00     0.057 A 
HETATM   22  O1  UNL     1      28.293   1.620  52.936  1.00  0.00    -0.346 OA
HETATM   23  C16 UNL     1      28.947   1.503  54.166  1.00  0.00     0.202 C 
HETATM   24  C17 UNL     1      28.724   0.233  54.910  1.00  0.00     0.197 C 
HETATM   25  O2  UNL     1      27.687  -0.552  54.470  1.00  0.00    -0.364 OA
HETATM   26  C18 UNL     1      26.484  -0.314  55.175  1.00  0.00     0.345 C 
ENDBRANCH   9  11
ENDBRANCH   7   9
TORSDOF 2
ENDMDL
MODEL 8
REMARK VINA RESULT:      -8.8      4.613      8.874
REMARK  2 active torsions:
REMARK  status: ('A' for Active; 'I' for Inactive)
REMARK    1  A    between atoms: C7_7  and  N1_8 
REMARK    2  A    between atoms: N1_8  and  C8_9 
ROOT
HETATM    1  C1  UNL     1      27.993  -1.111  53.132  1.00  0.00     0.018 C 
HETATM    2  C2  UNL     1      27.301  -0.174  52.841  1.00  0.00    -0.078 C 
HETATM    3  C3  UNL     1      26.490   0.950  52.512  1.00  0.00     0.019 A 
HETATM    4  C4  UNL     1      25.581   1.440  53.423  1.00  0.00     0.021 A 
HETATM    5  C5  UNL     1      24.827   2.524  53.052  1.00  0.00     0.004 A 
HETATM    6  C6  UNL     1      24.990   3.084  51.806  1.00  0.00     0.029 A 
HETATM    7  C7  UNL     1      25.875   2.646  50.851  1.00  0.00     0.035 A 
HETATM    8  C19 UNL     1      26.602   1.558  51.283  1.00  0.00     0.050 A 
ENDROOT
BRANCH   7   9
HETATM    9  N1  UNL     1      26.009   3.237  49.590  1.00  0.00    -0.340 N 
HETATM   10  H5  UNL     1      26.366   2.547  48.904  1.00  0.00     0.167 HD
BRANCH   9  11
HETATM   11  C8  UNL     1      25.727   4.562  49.216  1.00  0.00     0.142 A 
HETATM   12  N2  UNL     1      24.528   5.150  49.255  1.00  0.00    -0.224 NA
HETATM   13  C9  UNL     1      24.315   6.417  48.888  1.00  0.00     0.236 A 
HETATM   14  N3  UNL     1      25.296   7.217  48.440  1.00  0.00    -0.241 NA
HETATM   15  C10 UNL     1      26.527   6.686  48.377  1.00  0.00     0.075 A 
HETATM   16  C11 UNL     1      27.514   7.529  47.916  1.00  0.00     0.072 A 
HETATM   17  C15 UNL     1      26.737   5.379  48.759  1.00  0.00     0.042 A 
HETATM   18  C12 UNL     1      28.797   7.079  47.816  1.00  0.00     0.107 A 
HETATM   19  C13 UNL     1      29.084   5.775  48.183  1.00  0.00     0.103 A 
HETATM   20  O3  UNL     1      29.599   8.115  47.330  1.00  0.00    -0.323 OA
HETATM   21  C14 UNL     1      28.050   4.986  48.635  1.00  0.00     0.057 A 
HETATM   22  O1  UNL     1      30.255   5.028  48.202  1.00  0.00    -0.346 OA
HETATM   23  C16 UNL     1      31.432   5.108  47.453  1.00  0.00     0.202 C 
HETATM   24  C17 UNL     1      32.241   6.345  47.631  1.00  0.00     0.197 C 
HETATM   25  O2  UNL     1      31.617   7.390  48.265  1.00  0.00    -0.364 OA
HETATM   26  C18 UNL     1      31.026   8.303  47.361  1.00  0.00     0.345 C 
ENDBRANCH   9  11
ENDBRANCH   7   9
TORSDOF 2
ENDMDL
MODEL 9
REMARK VINA RESULT:      -8.7      2.802      4.533
REMARK  2 active torsions:
REMARK  status: ('A' for Active; 'I' for Inactive)
REMARK    1  A    between atoms: C7_7  and  N1_8 
REMARK    2  A    between atoms: N1_8  and  C8_9 
ROOT
HETATM    1  C1  UNL     1      27.282   5.906  48.438  1.00  0.00     0.018 C 
HETATM    2  C2  UNL     1      26.227   6.187  48.934  1.00  0.00    -0.078 C 
HETATM    3  C3  UNL     1      24.962   6.514  49.506  1.00  0.00     0.019 A 
HETATM    4  C4  UNL     1      24.198   7.524  48.965  1.00  0.00     0.021 A 
HETATM    5  C5  UNL     1      22.990   7.795  49.556  1.00  0.00     0.004 A 
HETATM    6  C6  UNL     1      22.579   7.070  50.651  1.00  0.00     0.029 A 
HETATM    7  C7  UNL     1      23.290   6.053  51.239  1.00  0.00     0.035 A 
HETATM    8  C19 UNL     1      24.490   5.829  50.601  1.00  0.00     0.050 A 
ENDROOT
BRANCH   7   9
HETATM    9  N1  UNL     1      22.843   5.340  52.357  1.00  0.00    -0.340 N 
HETATM   10  H5  UNL     1      23.029   5.876  53.225  1.00  0.00     0.167 HD
BRANCH   9  11
HETATM   11  C8  UNL     1      22.221   4.080  52.393  1.00  0.00     0.142 A 
HETATM   12  N2  UNL     1      20.913   3.846  52.255  1.00  0.00    -0.224 NA
HETATM   13  C9  UNL     1      20.374   2.625  52.298  1.00  0.00     0.236 A 
HETATM   14  N3  UNL     1      21.107   1.514  52.487  1.00  0.00    -0.241 NA
HETATM   15  C10 UNL     1      22.431   1.682  52.632  1.00  0.00     0.075 A 
HETATM   16  C11 UNL     1      23.157   0.527  52.823  1.00  0.00     0.072 A 
HETATM   17  C15 UNL     1      22.978   2.946  52.587  1.00  0.00     0.042 A 
HETATM   18  C12 UNL     1      24.510   0.597  52.981  1.00  0.00     0.107 A 
HETATM   19  C13 UNL     1      25.130   1.833  52.946  1.00  0.00     0.103 A 
HETATM   20  O3  UNL     1      25.007  -0.698  53.155  1.00  0.00    -0.323 OA
HETATM   21  C14 UNL     1      24.344   2.947  52.752  1.00  0.00     0.057 A 
HETATM   22  O1  UNL     1      26.452   2.238  53.069  1.00  0.00    -0.346 OA
HETATM   23  C16 UNL     1      27.550   1.674  53.724  1.00  0.00     0.202 C 
HETATM   24  C17 UNL     1      28.021   0.361  53.205  1.00  0.00     0.197 C 
HETATM   25  O2  UNL     1      27.167  -0.294  52.353  1.00  0.00    -0.364 OA
HETATM   26  C18 UNL     1      26.339  -1.227  53.018  1.00  0.00     0.345 C 
ENDBRANCH   9  11
ENDBRANCH   7   9
TORSDOF 2
ENDMDL
