MODEL 1
REMARK VINA RESULT:      -7.7      0.000      0.000
REMARK  8 active torsions:
REMARK  status: ('A' for Active; 'I' for Inactive)
REMARK    1  A    between atoms: O1_2  and  C2_3 
REMARK    2  A    between atoms: C2_3  and  C3_4 
REMARK    3  A    between atoms: C3_4  and  O2_5 
REMARK    4  A    between atoms: O2_5  and  C4_6 
REMARK    5  A    between atoms: C5_7  and  O3_8 
REMARK    6  A    between atoms: O3_8  and  C6_9 
REMARK    7  A    between atoms: C6_9  and  C7_10 
REMARK    8  A    between atoms: C7_10  and  O4_11 
ROOT
HETATM    1  C4  UNL     1      22.775   0.752  51.902  1.00  0.00     0.102 A 
HETATM    2  C5  UNL     1      23.814   1.397  52.446  1.00  0.00     0.129 A 
HETATM    3  C9  UNL     1      24.262   2.605  51.664  1.00  0.00     0.182 A 
HETATM    4  C10 UNL     1      23.893   3.875  52.362  1.00  0.00     0.047 C 
HETATM    5  C11 UNL     1      23.250   5.057  52.399  1.00  0.00     0.088 C 
HETATM    6  N1  UNL     1      22.413   6.050  51.823  1.00  0.00    -0.371 N 
HETATM    7  C12 UNL     1      22.843   6.794  50.776  1.00  0.00     0.008 A 
HETATM    8  C13 UNL     1      22.964   7.749  49.941  1.00  0.00     0.072 A 
HETATM    9  C14 UNL     1      23.199   8.681  48.993  1.00  0.00    -0.014 A 
HETATM   10  C15 UNL     1      24.236   7.911  48.355  1.00  0.00     0.005 A 
HETATM   11  C16 UNL     1      24.670   6.735  48.706  1.00  0.00    -0.036 A 
HETATM   12  C17 UNL     1      23.901   6.307  49.908  1.00  0.00     0.096 A 
HETATM   13  C18 UNL     1      25.146   5.551  49.013  1.00  0.00    -0.021 A 
HETATM   14  C19 UNL     1      25.526   4.564  49.283  1.00  0.00     0.002 A 
HETATM   15  N2  UNL     1      25.955   3.395  49.619  1.00  0.00    -0.244 NA
HETATM   16  C20 UNL     1      26.513   2.593  50.532  1.00  0.00     0.243 C 
HETATM   17  N3  UNL     1      25.544   2.489  51.176  1.00  0.00    -0.422 NA
HETATM   18  C21 UNL     1      23.227   2.517  50.531  1.00  0.00     0.033 A 
HETATM   19  C22 UNL     1      22.418   1.477  50.693  1.00  0.00     0.040 A 
HETATM   20  H17 UNL     1      21.481   6.421  51.949  1.00  0.00     0.164 HD
HETATM   21  H22 UNL     1      26.180   4.198  50.313  1.00  0.00     0.188 HD
ENDROOT
BRANCH   2  22
HETATM   22  O3  UNL     1      24.365   0.925  53.624  1.00  0.00    -0.346 OA
BRANCH  22  23
HETATM   23  C6  UNL     1      25.434   0.019  53.678  1.00  0.00     0.201 C 
BRANCH  23  24
HETATM   24  C7  UNL     1      26.610   0.656  54.333  1.00  0.00     0.193 C 
BRANCH  24  25
HETATM   25  O4  UNL     1      27.445  -0.216  54.969  1.00  0.00    -0.394 OA
HETATM   26  C8  UNL     1      28.775   0.054  54.756  1.00  0.00     0.201 C 
ENDBRANCH  24  25
ENDBRANCH  23  24
ENDBRANCH  22  23
ENDBRANCH   2  22
BRANCH   1  27
HETATM   27  O2  UNL     1      22.100  -0.369  52.309  1.00  0.00    -0.346 OA
BRANCH  27  28
HETATM   28  C3  UNL     1      20.874  -0.227  53.042  1.00  0.00     0.201 C 
BRANCH  28  29
HETATM   29  C2  UNL     1      21.187  -0.172  54.530  1.00  0.00     0.193 C 
BRANCH  29  30
HETATM   30  O1  UNL     1      21.501  -1.432  54.985  1.00  0.00    -0.394 OA
HETATM   31  C1  UNL     1      22.777  -1.586  55.459  1.00  0.00     0.201 C 
ENDBRANCH  29  30
ENDBRANCH  28  29
ENDBRANCH  27  28
ENDBRANCH   1  27
TORSDOF 8
ENDMDL
MODEL 2
REMARK VINA RESULT:      -7.6      3.235      6.944
REMARK  8 active torsions:
REMARK  status: ('A' for Active; 'I' for Inactive)
REMARK    1  A    between atoms: O1_2  and  C2_3 
REMARK    2  A    between atoms: C2_3  and  C3_4 
REMARK    3  A    between atoms: C3_4  and  O2_5 
REMARK    4  A    between atoms: O2_5  and  C4_6 
REMARK    5  A    between atoms: C5_7  and  O3_8 
REMARK    6  A    between atoms: O3_8  and  C6_9 
REMARK    7  A    between atoms: C6_9  and  C7_10 
REMARK    8  A    between atoms: C7_10  and  O4_11 
ROOT
HETATM    1  C4  UNL     1      24.059   5.680  51.409  1.00  0.00     0.102 A 
HETATM    2  C5  UNL     1      24.464   4.661  50.642  1.00  0.00     0.129 A 
HETATM    3  C9  UNL     1      24.346   3.312  51.303  1.00  0.00     0.182 A 
HETATM    4  C10 UNL     1      23.228   2.511  50.715  1.00  0.00     0.047 C 
HETATM    5  C11 UNL     1      22.064   1.847  50.832  1.00  0.00     0.088 C 
HETATM    6  N1  UNL     1      20.961   1.370  51.589  1.00  0.00    -0.371 N 
HETATM    7  C12 UNL     1      21.126   0.391  52.511  1.00  0.00     0.008 A 
HETATM    8  C13 UNL     1      20.885  -0.581  53.299  1.00  0.00     0.072 A 
HETATM    9  C14 UNL     1      20.771  -1.606  54.170  1.00  0.00    -0.014 A 
HETATM   10  C15 UNL     1      22.160  -1.567  54.547  1.00  0.00     0.005 A 
HETATM   11  C16 UNL     1      23.073  -0.754  54.101  1.00  0.00    -0.036 A 
HETATM   12  C17 UNL     1      22.430   0.152  53.108  1.00  0.00     0.096 A 
HETATM   13  C18 UNL     1      24.034   0.040  53.688  1.00  0.00    -0.021 A 
HETATM   14  C19 UNL     1      24.818   0.712  53.333  1.00  0.00     0.002 A 
HETATM   15  N2  UNL     1      25.726   1.521  52.903  1.00  0.00    -0.244 NA
HETATM   16  C20 UNL     1      26.431   2.021  51.883  1.00  0.00     0.243 C 
HETATM   17  N3  UNL     1      25.560   2.688  51.480  1.00  0.00    -0.422 NA
HETATM   18  C21 UNL     1      23.765   3.786  52.645  1.00  0.00     0.033 A 
HETATM   19  C22 UNL     1      23.619   5.105  52.671  1.00  0.00     0.040 A 
HETATM   20  H17 UNL     1      19.971   1.553  51.685  1.00  0.00     0.164 HD
HETATM   21  H22 UNL     1      25.347   0.807  52.178  1.00  0.00     0.188 HD
ENDROOT
BRANCH   2  22
HETATM   22  O3  UNL     1      24.935   4.917  49.367  1.00  0.00    -0.346 OA
BRANCH  22  23
HETATM   23  C6  UNL     1      26.180   5.504  49.097  1.00  0.00     0.201 C 
BRANCH  23  24
HETATM   24  C7  UNL     1      27.208   4.447  48.889  1.00  0.00     0.193 C 
BRANCH  24  25
HETATM   25  O4  UNL     1      28.468   4.920  48.662  1.00  0.00    -0.394 OA
HETATM   26  C8  UNL     1      28.482   6.186  48.128  1.00  0.00     0.201 C 
ENDBRANCH  24  25
ENDBRANCH  23  24
ENDBRANCH  22  23
ENDBRANCH   2  22
BRANCH   1  27
HETATM   27  O2  UNL     1      24.018   7.028  51.166  1.00  0.00    -0.346 OA
BRANCH  27  28
HETATM   28  C3  UNL     1      23.062   7.547  50.230  1.00  0.00     0.201 C 
BRANCH  28  29
HETATM   29  C2  UNL     1      21.657   7.259  50.738  1.00  0.00     0.193 C 
BRANCH  29  30
HETATM   30  O1  UNL     1      21.022   6.394  49.878  1.00  0.00    -0.394 OA
HETATM   31  C1  UNL     1      20.520   5.255  50.453  1.00  0.00     0.201 C 
ENDBRANCH  29  30
ENDBRANCH  28  29
ENDBRANCH  27  28
ENDBRANCH   1  27
TORSDOF 8
ENDMDL
MODEL 3
REMARK VINA RESULT:      -7.5      1.384      1.729
REMARK  8 active torsions:
REMARK  status: ('A' for Active; 'I' for Inactive)
REMARK    1  A    between atoms: O1_2  and  C2_3 
REMARK    2  A    between atoms: C2_3  and  C3_4 
REMARK    3  A    between atoms: C3_4  and  O2_5 
REMARK    4  A    between atoms: O2_5  and  C4_6 
REMARK    5  A    between atoms: C5_7  and  O3_8 
REMARK    6  A    between atoms: O3_8  and  C6_9 
REMARK    7  A    between atoms: C6_9  and  C7_10 
REMARK    8  A    between atoms: C7_10  and  O4_11 
ROOT
HETATM    1  C4  UNL     1      22.353   0.905  51.410  1.00  0.00     0.102 A 
HETATM    2  C5  UNL     1      23.351   1.301  52.208  1.00  0.00     0.129 A 
HETATM    3  C9  UNL     1      24.176   2.428  51.642  1.00  0.00     0.182 A 
HETATM    4  C10 UNL     1      23.910   3.714  52.359  1.00  0.00     0.047 C 
HETATM    5  C11 UNL     1      23.508   4.998  52.368  1.00  0.00     0.088 C 
HETATM    6  N1  UNL     1      23.017   6.165  51.724  1.00  0.00    -0.371 N 
HETATM    7  C12 UNL     1      23.795   6.855  50.855  1.00  0.00     0.008 A 
HETATM    8  C13 UNL     1      24.271   7.802  50.148  1.00  0.00     0.072 A 
HETATM    9  C14 UNL     1      24.876   8.709  49.353  1.00  0.00    -0.014 A 
HETATM   10  C15 UNL     1      25.863   7.777  48.875  1.00  0.00     0.005 A 
HETATM   11  C16 UNL     1      25.982   6.522  49.201  1.00  0.00    -0.036 A 
HETATM   12  C17 UNL     1      24.905   6.203  50.180  1.00  0.00     0.096 A 
HETATM   13  C18 UNL     1      26.149   5.253  49.494  1.00  0.00    -0.021 A 
HETATM   14  C19 UNL     1      26.270   4.199  49.748  1.00  0.00     0.002 A 
HETATM   15  N2  UNL     1      26.389   2.953  50.060  1.00  0.00    -0.244 NA
HETATM   16  C20 UNL     1      26.575   2.014  50.994  1.00  0.00     0.243 C 
HETATM   17  N3  UNL     1      25.488   2.079  51.416  1.00  0.00    -0.422 NA
HETATM   18  C21 UNL     1      23.413   2.604  50.319  1.00  0.00     0.033 A 
HETATM   19  C22 UNL     1      22.407   1.742  50.221  1.00  0.00     0.040 A 
HETATM   20  H17 UNL     1      22.167   6.711  51.689  1.00  0.00     0.164 HD
HETATM   21  H22 UNL     1      26.605   3.661  50.854  1.00  0.00     0.188 HD
ENDROOT
BRANCH   2  22
HETATM   22  O3  UNL     1      23.536   0.674  53.427  1.00  0.00    -0.346 OA
BRANCH  22  23
HETATM   23  C6  UNL     1      24.276  -0.505  53.595  1.00  0.00     0.201 C 
BRANCH  23  24
HETATM   24  C7  UNL     1      25.527  -0.218  54.351  1.00  0.00     0.193 C 
BRANCH  24  25
HETATM   25  O4  UNL     1      26.596  -0.984  53.985  1.00  0.00    -0.394 OA
HETATM   26  C8  UNL     1      26.560  -1.371  52.668  1.00  0.00     0.201 C 
ENDBRANCH  24  25
ENDBRANCH  23  24
ENDBRANCH  22  23
ENDBRANCH   2  22
BRANCH   1  27
HETATM   27  O2  UNL     1      21.407  -0.074  51.571  1.00  0.00    -0.346 OA
BRANCH  27  28
HETATM   28  C3  UNL     1      20.111   0.274  52.080  1.00  0.00     0.201 C 
BRANCH  28  29
HETATM   29  C2  UNL     1      19.876  -0.461  53.392  1.00  0.00     0.193 C 
BRANCH  29  30
HETATM   30  O1  UNL     1      18.606  -0.990  53.405  1.00  0.00    -0.394 OA
HETATM   31  C1  UNL     1      17.870  -0.782  52.268  1.00  0.00     0.201 C 
ENDBRANCH  29  30
ENDBRANCH  28  29
ENDBRANCH  27  28
ENDBRANCH   1  27
TORSDOF 8
ENDMDL
MODEL 4
REMARK VINA RESULT:      -7.5      2.068      4.461
REMARK  8 active torsions:
REMARK  status: ('A' for Active; 'I' for Inactive)
REMARK    1  A    between atoms: O1_2  and  C2_3 
REMARK    2  A    between atoms: C2_3  and  C3_4 
REMARK    3  A    between atoms: C3_4  and  O2_5 
REMARK    4  A    between atoms: O2_5  and  C4_6 
REMARK    5  A    between atoms: C5_7  and  O3_8 
REMARK    6  A    between atoms: O3_8  and  C6_9 
REMARK    7  A    between atoms: C6_9  and  C7_10 
REMARK    8  A    between atoms: C7_10  and  O4_11 
ROOT
HETATM    1  C4  UNL     1      25.746   0.681  52.334  1.00  0.00     0.102 A 
HETATM    2  C5  UNL     1      24.540   1.109  52.726  1.00  0.00     0.129 A 
HETATM    3  C9  UNL     1      24.012   2.270  51.923  1.00  0.00     0.182 A 
HETATM    4  C10 UNL     1      22.894   1.849  51.024  1.00  0.00     0.047 C 
HETATM    5  C11 UNL     1      22.352   1.713  49.800  1.00  0.00     0.088 C 
HETATM    6  N1  UNL     1      22.392   1.852  48.387  1.00  0.00    -0.371 N 
HETATM    7  C12 UNL     1      22.343   3.077  47.810  1.00  0.00     0.008 A 
HETATM    8  C13 UNL     1      22.157   4.006  46.957  1.00  0.00     0.072 A 
HETATM    9  C14 UNL     1      22.006   5.082  46.158  1.00  0.00    -0.014 A 
HETATM   10  C15 UNL     1      22.467   6.010  47.156  1.00  0.00     0.005 A 
HETATM   11  C16 UNL     1      22.859   5.733  48.366  1.00  0.00    -0.036 A 
HETATM   12  C17 UNL     1      22.745   4.259  48.554  1.00  0.00     0.096 A 
HETATM   13  C18 UNL     1      23.264   5.512  49.595  1.00  0.00    -0.021 A 
HETATM   14  C19 UNL     1      23.601   5.306  50.613  1.00  0.00     0.002 A 
HETATM   15  N2  UNL     1      24.000   5.038  51.810  1.00  0.00    -0.244 NA
HETATM   16  C20 UNL     1      23.747   4.524  53.018  1.00  0.00     0.243 C 
HETATM   17  N3  UNL     1      23.839   3.412  52.673  1.00  0.00    -0.422 NA
HETATM   18  C21 UNL     1      25.199   2.415  50.958  1.00  0.00     0.033 A 
HETATM   19  C22 UNL     1      26.145   1.519  51.214  1.00  0.00     0.040 A 
HETATM   20  H17 UNL     1      22.464   1.262  47.569  1.00  0.00     0.164 HD
HETATM   21  H22 UNL     1      22.943   4.879  51.617  1.00  0.00     0.188 HD
ENDROOT
BRANCH   2  22
HETATM   22  O3  UNL     1      23.908   0.482  53.785  1.00  0.00    -0.346 OA
BRANCH  22  23
HETATM   23  C6  UNL     1      23.244  -0.748  53.680  1.00  0.00     0.201 C 
BRANCH  23  24
HETATM   24  C7  UNL     1      22.743  -1.172  55.017  1.00  0.00     0.193 C 
BRANCH  24  25
HETATM   25  O4  UNL     1      21.574  -1.876  54.986  1.00  0.00    -0.394 OA
HETATM   26  C8  UNL     1      20.662  -1.370  54.091  1.00  0.00     0.201 C 
ENDBRANCH  24  25
ENDBRANCH  23  24
ENDBRANCH  22  23
ENDBRANCH   2  22
BRANCH   1  27
HETATM   27  O2  UNL     1      26.540  -0.329  52.810  1.00  0.00    -0.346 OA
BRANCH  27  28
HETATM   28  C3  UNL     1      27.894  -0.043  53.191  1.00  0.00     0.201 C 
BRANCH  28  29
HETATM   29  C2  UNL     1      27.922   0.385  54.651  1.00  0.00     0.193 C 
BRANCH  29  30
HETATM   30  O1  UNL     1      28.746   1.477  54.798  1.00  0.00    -0.394 OA
HETATM   31  C1  UNL     1      28.758   2.351  53.743  1.00  0.00     0.201 C 
ENDBRANCH  29  30
ENDBRANCH  28  29
ENDBRANCH  27  28
ENDBRANCH   1  27
TORSDOF 8
ENDMDL
MODEL 5
REMARK VINA RESULT:      -7.4      4.091      7.849
REMARK  8 active torsions:
REMARK  status: ('A' for Active; 'I' for Inactive)
REMARK    1  A    between atoms: O1_2  and  C2_3 
REMARK    2  A    between atoms: C2_3  and  C3_4 
REMARK    3  A    between atoms: C3_4  and  O2_5 
REMARK    4  A    between atoms: O2_5  and  C4_6 
REMARK    5  A    between atoms: C5_7  and  O3_8 
REMARK    6  A    between atoms: O3_8  and  C6_9 
REMARK    7  A    between atoms: C6_9  and  C7_10 
REMARK    8  A    between atoms: C7_10  and  O4_11 
ROOT
HETATM    1  C4  UNL     1      26.726   5.567  48.898  1.00  0.00     0.102 A 
HETATM    2  C5  UNL     1      25.483   6.017  49.101  1.00  0.00     0.129 A 
HETATM    3  C9  UNL     1      24.491   4.937  49.450  1.00  0.00     0.182 A 
HETATM    4  C10 UNL     1      24.095   5.004  50.891  1.00  0.00     0.047 C 
HETATM    5  C11 UNL     1      24.004   4.455  52.116  1.00  0.00     0.088 C 
HETATM    6  N1  UNL     1      24.204   3.387  53.031  1.00  0.00    -0.371 N 
HETATM    7  C12 UNL     1      23.485   2.243  52.927  1.00  0.00     0.008 A 
HETATM    8  C13 UNL     1      22.906   1.147  53.224  1.00  0.00     0.072 A 
HETATM    9  C14 UNL     1      22.249  -0.018  53.399  1.00  0.00    -0.014 A 
HETATM   10  C15 UNL     1      21.811  -0.089  52.030  1.00  0.00     0.005 A 
HETATM   11  C16 UNL     1      22.059   0.765  51.080  1.00  0.00    -0.036 A 
HETATM   12  C17 UNL     1      22.888   1.860  51.658  1.00  0.00     0.096 A 
HETATM   13  C18 UNL     1      22.278   1.593  50.084  1.00  0.00    -0.021 A 
HETATM   14  C19 UNL     1      22.473   2.291  49.269  1.00  0.00     0.002 A 
HETATM   15  N2  UNL     1      22.723   3.129  48.320  1.00  0.00    -0.244 NA
HETATM   16  C20 UNL     1      22.643   4.372  47.833  1.00  0.00     0.243 C 
HETATM   17  N3  UNL     1      23.490   4.799  48.515  1.00  0.00    -0.422 NA
HETATM   18  C21 UNL     1      25.457   3.743  49.410  1.00  0.00     0.033 A 
HETATM   19  C22 UNL     1      26.690   4.127  49.100  1.00  0.00     0.040 A 
HETATM   20  H17 UNL     1      24.786   3.171  53.829  1.00  0.00     0.164 HD
HETATM   21  H22 UNL     1      22.075   3.491  49.112  1.00  0.00     0.188 HD
ENDROOT
BRANCH   2  22
HETATM   22  O3  UNL     1      25.222   7.370  48.979  1.00  0.00    -0.346 OA
BRANCH  22  23
HETATM   23  C6  UNL     1      25.289   8.277  50.046  1.00  0.00     0.201 C 
BRANCH  23  24
HETATM   24  C7  UNL     1      26.121   9.452  49.665  1.00  0.00     0.193 C 
BRANCH  24  25
HETATM   25  O4  UNL     1      27.242   9.621  50.424  1.00  0.00    -0.394 OA
HETATM   26  C8  UNL     1      28.407   9.450  49.715  1.00  0.00     0.201 C 
ENDBRANCH  24  25
ENDBRANCH  23  24
ENDBRANCH  22  23
ENDBRANCH   2  22
BRANCH   1  27
HETATM   27  O2  UNL     1      27.880   6.229  48.565  1.00  0.00    -0.346 OA
BRANCH  27  28
HETATM   28  C3  UNL     1      29.044   5.476  48.195  1.00  0.00     0.201 C 
BRANCH  28  29
HETATM   29  C2  UNL     1      30.289   6.276  48.550  1.00  0.00     0.193 C 
BRANCH  29  30
HETATM   30  O1  UNL     1      31.200   5.459  49.179  1.00  0.00    -0.394 OA
HETATM   31  C1  UNL     1      32.516   5.795  48.998  1.00  0.00     0.201 C 
ENDBRANCH  29  30
ENDBRANCH  28  29
ENDBRANCH  27  28
ENDBRANCH   1  27
TORSDOF 8
ENDMDL
MODEL 6
REMARK VINA RESULT:      -7.1      3.334      7.630
REMARK  8 active torsions:
REMARK  status: ('A' for Active; 'I' for Inactive)
REMARK    1  A    between atoms: O1_2  and  C2_3 
REMARK    2  A    between atoms: C2_3  and  C3_4 
REMARK    3  A    between atoms: C3_4  and  O2_5 
REMARK    4  A    between atoms: O2_5  and  C4_6 
REMARK    5  A    between atoms: C5_7  and  O3_8 
REMARK    6  A    between atoms: O3_8  and  C6_9 
REMARK    7  A    between atoms: C6_9  and  C7_10 
REMARK    8  A    between atoms: C7_10  and  O4_11 
ROOT
HETATM    1  C4  UNL     1      24.208   5.438  51.118  1.00  0.00     0.102 A 
HETATM    2  C5  UNL     1      24.750   4.369  50.523  1.00  0.00     0.129 A 
HETATM    3  C9  UNL     1      24.590   3.089  51.304  1.00  0.00     0.182 A 
HETATM    4  C10 UNL     1      23.592   2.179  50.661  1.00  0.00     0.047 C 
HETATM    5  C11 UNL     1      22.446   1.473  50.694  1.00  0.00     0.088 C 
HETATM    6  N1  UNL     1      21.268   1.022  51.346  1.00  0.00    -0.371 N 
HETATM    7  C12 UNL     1      21.340   0.150  52.380  1.00  0.00     0.008 A 
HETATM    8  C13 UNL     1      21.028  -0.748  53.228  1.00  0.00     0.072 A 
HETATM    9  C14 UNL     1      20.833  -1.684  54.181  1.00  0.00    -0.014 A 
HETATM   10  C15 UNL     1      22.155  -1.540  54.732  1.00  0.00     0.005 A 
HETATM   11  C16 UNL     1      23.091  -0.731  54.326  1.00  0.00    -0.036 A 
HETATM   12  C17 UNL     1      22.558   0.037  53.166  1.00  0.00     0.096 A 
HETATM   13  C18 UNL     1      24.071   0.063  53.961  1.00  0.00    -0.021 A 
HETATM   14  C19 UNL     1      24.872   0.733  53.643  1.00  0.00     0.002 A 
HETATM   15  N2  UNL     1      25.801   1.538  53.253  1.00  0.00    -0.244 NA
HETATM   16  C20 UNL     1      26.620   1.967  52.287  1.00  0.00     0.243 C 
HETATM   17  N3  UNL     1      25.790   2.546  51.704  1.00  0.00    -0.422 NA
HETATM   18  C21 UNL     1      23.815   3.666  52.498  1.00  0.00     0.033 A 
HETATM   19  C22 UNL     1      23.621   4.973  52.365  1.00  0.00     0.040 A 
HETATM   20  H17 UNL     1      20.268   1.164  51.290  1.00  0.00     0.164 HD
HETATM   21  H22 UNL     1      25.549   0.738  52.564  1.00  0.00     0.188 HD
ENDROOT
BRANCH   2  22
HETATM   22  O3  UNL     1      25.381   4.518  49.302  1.00  0.00    -0.346 OA
BRANCH  22  23
HETATM   23  C6  UNL     1      26.706   4.130  49.054  1.00  0.00     0.201 C 
BRANCH  23  24
HETATM   24  C7  UNL     1      27.496   5.295  48.567  1.00  0.00     0.193 C 
BRANCH  24  25
HETATM   25  O4  UNL     1      28.838   5.068  48.472  1.00  0.00    -0.394 OA
HETATM   26  C8  UNL     1      29.542   6.160  48.026  1.00  0.00     0.201 C 
ENDBRANCH  24  25
ENDBRANCH  23  24
ENDBRANCH  22  23
ENDBRANCH   2  22
BRANCH   1  27
HETATM   27  O2  UNL     1      24.153   6.752  50.729  1.00  0.00    -0.346 OA
BRANCH  27  28
HETATM   28  C3  UNL     1      25.367   7.513  50.640  1.00  0.00     0.201 C 
BRANCH  28  29
HETATM   29  C2  UNL     1      25.148   8.692  49.704  1.00  0.00     0.193 C 
BRANCH  29  30
HETATM   30  O1  UNL     1      26.336   9.361  49.517  1.00  0.00    -0.394 OA
HETATM   31  C1  UNL     1      26.269  10.468  48.712  1.00  0.00     0.201 C 
ENDBRANCH  29  30
ENDBRANCH  28  29
ENDBRANCH  27  28
ENDBRANCH   1  27
TORSDOF 8
ENDMDL
MODEL 7
REMARK VINA RESULT:      -7.0      3.384      7.531
REMARK  8 active torsions:
REMARK  status: ('A' for Active; 'I' for Inactive)
REMARK    1  A    between atoms: O1_2  and  C2_3 
REMARK    2  A    between atoms: C2_3  and  C3_4 
REMARK    3  A    between atoms: C3_4  and  O2_5 
REMARK    4  A    between atoms: O2_5  and  C4_6 
REMARK    5  A    between atoms: C5_7  and  O3_8 
REMARK    6  A    between atoms: O3_8  and  C6_9 
REMARK    7  A    between atoms: C6_9  and  C7_10 
REMARK    8  A    between atoms: C7_10  and  O4_11 
ROOT
HETATM    1  C4  UNL     1      22.986   6.020  49.964  1.00  0.00     0.102 A 
HETATM    2  C5  UNL     1      23.454   5.052  49.167  1.00  0.00     0.129 A 
HETATM    3  C9  UNL     1      24.284   4.018  49.884  1.00  0.00     0.182 A 
HETATM    4  C10 UNL     1      23.551   2.720  50.007  1.00  0.00     0.047 C 
HETATM    5  C11 UNL     1      23.018   1.732  50.749  1.00  0.00     0.088 C 
HETATM    6  N1  UNL     1      22.716   1.120  51.995  1.00  0.00    -0.371 N 
HETATM    7  C12 UNL     1      23.700   0.595  52.764  1.00  0.00     0.008 A 
HETATM    8  C13 UNL     1      24.310  -0.118  53.627  1.00  0.00     0.072 A 
HETATM    9  C14 UNL     1      25.078  -0.804  54.499  1.00  0.00    -0.014 A 
HETATM   10  C15 UNL     1      26.291  -0.135  54.107  1.00  0.00     0.005 A 
HETATM   11  C16 UNL     1      26.420   0.793  53.203  1.00  0.00    -0.036 A 
HETATM   12  C17 UNL     1      25.072   1.052  52.623  1.00  0.00     0.096 A 
HETATM   13  C18 UNL     1      26.608   1.730  52.303  1.00  0.00    -0.021 A 
HETATM   14  C19 UNL     1      26.743   2.511  51.553  1.00  0.00     0.002 A 
HETATM   15  N2  UNL     1      26.877   3.437  50.665  1.00  0.00    -0.244 NA
HETATM   16  C20 UNL     1      26.750   3.842  49.396  1.00  0.00     0.243 C 
HETATM   17  N3  UNL     1      25.591   3.980  49.454  1.00  0.00    -0.422 NA
HETATM   18  C21 UNL     1      24.182   4.610  51.299  1.00  0.00     0.033 A 
HETATM   19  C22 UNL     1      23.455   5.721  51.308  1.00  0.00     0.040 A 
HETATM   20  H17 UNL     1      21.907   0.935  52.572  1.00  0.00     0.164 HD
HETATM   21  H22 UNL     1      26.615   2.454  50.286  1.00  0.00     0.188 HD
ENDROOT
BRANCH   2  22
HETATM   22  O3  UNL     1      23.154   5.080  47.818  1.00  0.00    -0.346 OA
BRANCH  22  23
HETATM   23  C6  UNL     1      21.895   4.760  47.291  1.00  0.00     0.201 C 
BRANCH  23  24
HETATM   24  C7  UNL     1      21.906   3.373  46.747  1.00  0.00     0.193 C 
BRANCH  24  25
HETATM   25  O4  UNL     1      21.238   2.461  47.511  1.00  0.00    -0.394 OA
HETATM   26  C8  UNL     1      20.200   3.009  48.224  1.00  0.00     0.201 C 
ENDBRANCH  24  25
ENDBRANCH  23  24
ENDBRANCH  22  23
ENDBRANCH   2  22
BRANCH   1  27
HETATM   27  O2  UNL     1      22.211   7.117  49.688  1.00  0.00    -0.346 OA
BRANCH  27  28
HETATM   28  C3  UNL     1      22.791   8.427  49.764  1.00  0.00     0.201 C 
BRANCH  28  29
HETATM   29  C2  UNL     1      23.636   8.673  48.522  1.00  0.00     0.193 C 
BRANCH  29  30
HETATM   30  O1  UNL     1      24.792   9.331  48.872  1.00  0.00    -0.394 OA
HETATM   31  C1  UNL     1      25.491   8.781  49.915  1.00  0.00     0.201 C 
ENDBRANCH  29  30
ENDBRANCH  28  29
ENDBRANCH  27  28
ENDBRANCH   1  27
TORSDOF 8
ENDMDL
MODEL 8
REMARK VINA RESULT:      -6.8      3.918      7.498
REMARK  8 active torsions:
REMARK  status: ('A' for Active; 'I' for Inactive)
REMARK    1  A    between atoms: O1_2  and  C2_3 
REMARK    2  A    between atoms: C2_3  and  C3_4 
REMARK    3  A    between atoms: C3_4  and  O2_5 
REMARK    4  A    between atoms: O2_5  and  C4_6 
REMARK    5  A    between atoms: C5_7  and  O3_8 
REMARK    6  A    between atoms: O3_8  and  C6_9 
REMARK    7  A    between atoms: C6_9  and  C7_10 
REMARK    8  A    between atoms: C7_10  and  O4_11 
ROOT
HETATM    1  C4  UNL     1      19.968   1.744  49.721  1.00  0.00     0.102 A 
HETATM    2  C5  UNL     1      19.839   1.915  51.042  1.00  0.00     0.129 A 
HETATM    3  C9  UNL     1      21.006   1.395  51.843  1.00  0.00     0.182 A 
HETATM    4  C10 UNL     1      21.831   2.513  52.395  1.00  0.00     0.047 C 
HETATM    5  C11 UNL     1      22.999   3.172  52.511  1.00  0.00     0.088 C 
HETATM    6  N1  UNL     1      24.376   3.349  52.210  1.00  0.00    -0.371 N 
HETATM    7  C12 UNL     1      25.303   2.481  52.683  1.00  0.00     0.008 A 
HETATM    8  C13 UNL     1      26.414   1.992  53.072  1.00  0.00     0.072 A 
HETATM    9  C14 UNL     1      27.517   1.350  53.512  1.00  0.00    -0.014 A 
HETATM   10  C15 UNL     1      26.814   0.122  53.779  1.00  0.00     0.005 A 
HETATM   11  C16 UNL     1      25.547  -0.114  53.598  1.00  0.00    -0.036 A 
HETATM   12  C17 UNL     1      24.926   1.129  53.059  1.00  0.00     0.096 A 
HETATM   13  C18 UNL     1      24.277  -0.407  53.435  1.00  0.00    -0.021 A 
HETATM   14  C19 UNL     1      23.219  -0.632  53.291  1.00  0.00     0.002 A 
HETATM   15  N2  UNL     1      21.966  -0.876  53.105  1.00  0.00    -0.244 NA
HETATM   16  C20 UNL     1      20.687  -0.586  53.366  1.00  0.00     0.243 C 
HETATM   17  N3  UNL     1      20.664   0.368  52.693  1.00  0.00    -0.422 NA
HETATM   18  C21 UNL     1      21.855   0.884  50.669  1.00  0.00     0.033 A 
HETATM   19  C22 UNL     1      21.250   1.092  49.505  1.00  0.00     0.040 A 
HETATM   20  H17 UNL     1      24.963   3.983  51.686  1.00  0.00     0.164 HD
HETATM   21  H22 UNL     1      22.198  -0.163  53.890  1.00  0.00     0.188 HD
ENDROOT
BRANCH   2  22
HETATM   22  O3  UNL     1      18.702   2.525  51.541  1.00  0.00    -0.346 OA
BRANCH  22  23
HETATM   23  C6  UNL     1      18.466   3.905  51.480  1.00  0.00     0.201 C 
BRANCH  23  24
HETATM   24  C7  UNL     1      17.001   4.170  51.425  1.00  0.00     0.193 C 
BRANCH  24  25
HETATM   25  O4  UNL     1      16.424   4.414  52.637  1.00  0.00    -0.394 OA
HETATM   26  C8  UNL     1      15.204   3.802  52.789  1.00  0.00     0.201 C 
ENDBRANCH  24  25
ENDBRANCH  23  24
ENDBRANCH  22  23
ENDBRANCH   2  22
BRANCH   1  27
HETATM   27  O2  UNL     1      19.133   2.076  48.686  1.00  0.00    -0.346 OA
BRANCH  27  28
HETATM   28  C3  UNL     1      19.243   3.371  48.078  1.00  0.00     0.201 C 
BRANCH  28  29
HETATM   29  C2  UNL     1      19.862   3.222  46.696  1.00  0.00     0.193 C 
BRANCH  29  30
HETATM   30  O1  UNL     1      20.957   4.049  46.588  1.00  0.00    -0.394 OA
HETATM   31  C1  UNL     1      21.796   3.781  45.539  1.00  0.00     0.201 C 
ENDBRANCH  29  30
ENDBRANCH  28  29
ENDBRANCH  27  28
ENDBRANCH   1  27
TORSDOF 8
ENDMDL
MODEL 9
REMARK VINA RESULT:      -6.7      3.306      7.780
REMARK  8 active torsions:
REMARK  status: ('A' for Active; 'I' for Inactive)
REMARK    1  A    between atoms: O1_2  and  C2_3 
REMARK    2  A    between atoms: C2_3  and  C3_4 
REMARK    3  A    between atoms: C3_4  and  O2_5 
REMARK    4  A    between atoms: O2_5  and  C4_6 
REMARK    5  A    between atoms: C5_7  and  O3_8 
REMARK    6  A    between atoms: O3_8  and  C6_9 
REMARK    7  A    between atoms: C6_9  and  C7_10 
REMARK    8  A    between atoms: C7_10  and  O4_11 
ROOT
HETATM    1  C4  UNL     1      23.359   5.628  50.829  1.00  0.00     0.102 A 
HETATM    2  C5  UNL     1      23.728   4.590  50.069  1.00  0.00     0.129 A 
HETATM    3  C9  UNL     1      23.949   3.314  50.841  1.00  0.00     0.182 A 
HETATM    4  C10 UNL     1      22.855   2.326  50.587  1.00  0.00     0.047 C 
HETATM    5  C11 UNL     1      21.850   1.542  51.018  1.00  0.00     0.088 C 
HETATM    6  N1  UNL     1      21.016   1.019  52.042  1.00  0.00    -0.371 N 
HETATM    7  C12 UNL     1      21.515   0.170  52.973  1.00  0.00     0.008 A 
HETATM    8  C13 UNL     1      21.590  -0.735  53.867  1.00  0.00     0.072 A 
HETATM    9  C14 UNL     1      21.814  -1.668  54.816  1.00  0.00    -0.014 A 
HETATM   10  C15 UNL     1      23.232  -1.421  54.862  1.00  0.00     0.005 A 
HETATM   11  C16 UNL     1      23.902  -0.555  54.158  1.00  0.00    -0.036 A 
HETATM   12  C17 UNL     1      22.937   0.155  53.273  1.00  0.00     0.096 A 
HETATM   13  C18 UNL     1      24.628   0.301  53.476  1.00  0.00    -0.021 A 
HETATM   14  C19 UNL     1      25.213   1.020  52.901  1.00  0.00     0.002 A 
HETATM   15  N2  UNL     1      25.882   1.883  52.215  1.00  0.00    -0.244 NA
HETATM   16  C20 UNL     1      26.271   2.354  51.025  1.00  0.00     0.243 C 
HETATM   17  N3  UNL     1      25.248   2.864  50.782  1.00  0.00    -0.422 NA
HETATM   18  C21 UNL     1      23.611   3.854  52.240  1.00  0.00     0.033 A 
HETATM   19  C22 UNL     1      23.289   5.142  52.199  1.00  0.00     0.040 A 
HETATM   20  H17 UNL     1      20.055   1.089  52.347  1.00  0.00     0.164 HD
HETATM   21  H22 UNL     1      25.460   1.056  51.652  1.00  0.00     0.188 HD
ENDROOT
BRANCH   2  22
HETATM   22  O3  UNL     1      23.871   4.765  48.705  1.00  0.00    -0.346 OA
BRANCH  22  23
HETATM   23  C6  UNL     1      22.796   4.813  47.807  1.00  0.00     0.201 C 
BRANCH  23  24
HETATM   24  C7  UNL     1      22.799   6.111  47.076  1.00  0.00     0.193 C 
BRANCH  24  25
HETATM   25  O4  UNL     1      21.563   6.554  46.705  1.00  0.00    -0.394 OA
HETATM   26  C8  UNL     1      20.891   7.193  47.719  1.00  0.00     0.201 C 
ENDBRANCH  24  25
ENDBRANCH  23  24
ENDBRANCH  22  23
ENDBRANCH   2  22
BRANCH   1  27
HETATM   27  O2  UNL     1      23.075   6.928  50.500  1.00  0.00    -0.346 OA
BRANCH  27  28
HETATM   28  C3  UNL     1      24.023   7.958  50.816  1.00  0.00     0.201 C 
BRANCH  28  29
HETATM   29  C2  UNL     1      25.002   8.107  49.660  1.00  0.00     0.193 C 
BRANCH  29  30
HETATM   30  O1  UNL     1      26.190   7.492  49.978  1.00  0.00    -0.394 OA
HETATM   31  C1  UNL     1      26.739   6.722  48.985  1.00  0.00     0.201 C 
ENDBRANCH  29  30
ENDBRANCH  28  29
ENDBRANCH  27  28
ENDBRANCH   1  27
TORSDOF 8
ENDMDL
