MODEL 1
REMARK VINA RESULT:      -7.5      0.000      0.000
REMARK  6 active torsions:
REMARK  status: ('A' for Active; 'I' for Inactive)
REMARK    1  A    between atoms: O1_2  and  C2_3 
REMARK    2  A    between atoms: C2_3  and  C3_4 
REMARK    3  A    between atoms: C9_13  and  N3_14 
REMARK    4  A    between atoms: N3_14  and  C10_15 
REMARK    5  A    between atoms: C11_16  and  C12_17 
REMARK    6  A    between atoms: C13_18  and  C14_19 
ROOT
HETATM    1  C3  UNL     1      21.450  -0.614  53.405  1.00  0.00     0.177 C 
HETATM    2  C4  UNL     1      21.820  -0.998  54.814  1.00  0.00     0.210 C 
HETATM    3  O2  UNL     1      23.203  -1.299  54.824  1.00  0.00    -0.346 OA
HETATM    4  C5  UNL     1      24.016  -0.379  54.145  1.00  0.00     0.104 A 
HETATM    5  C6  UNL     1      25.394  -0.453  54.376  1.00  0.00     0.072 A 
HETATM    6  C7  UNL     1      26.182   0.466  53.695  1.00  0.00     0.075 A 
HETATM    7  N1  UNL     1      27.499   0.367  53.941  1.00  0.00    -0.241 NA
HETATM    8  C8  UNL     1      28.365   1.220  53.329  1.00  0.00     0.236 A 
HETATM    9  N2  UNL     1      27.862   2.146  52.487  1.00  0.00    -0.224 NA
HETATM   10  C9  UNL     1      26.571   2.293  52.204  1.00  0.00     0.141 A 
HETATM   11  C16 UNL     1      25.698   1.424  52.829  1.00  0.00     0.042 A 
HETATM   12  C17 UNL     1      24.336   1.474  52.623  1.00  0.00     0.057 A 
HETATM   13  C18 UNL     1      23.516   0.573  53.283  1.00  0.00     0.103 A 
HETATM   14  O3  UNL     1      22.139   0.593  53.101  1.00  0.00    -0.339 OA
ENDROOT
BRANCH  10  15
HETATM   15  N3  UNL     1      26.076   3.290  51.302  1.00  0.00    -0.350 N 
HETATM   16  H11 UNL     1      25.284   3.982  51.459  1.00  0.00     0.166 HD
BRANCH  15  17
HETATM   17  C10 UNL     1      26.630   3.486  49.981  1.00  0.00     0.086 C 
HETATM   18  C11 UNL     1      26.070   4.437  49.214  1.00  0.00    -0.004 C 
BRANCH  18  19
HETATM   19  C12 UNL     1      25.095   4.829  50.191  1.00  0.00     0.045 C 
HETATM   20  C13 UNL     1      24.088   5.679  50.162  1.00  0.00    -0.014 C 
BRANCH  20  21
HETATM   21  C14 UNL     1      23.758   5.347  51.571  1.00  0.00     0.042 C 
HETATM   22  C15 UNL     1      22.820   4.761  52.308  1.00  0.00     0.146 C 
HETATM   23  I1  UNL     1      21.073   3.907  51.537  1.00  0.00    -0.194 I 
ENDBRANCH  20  21
ENDBRANCH  18  19
ENDBRANCH  15  17
ENDBRANCH  10  15
BRANCH   1  24
HETATM   24  C2  UNL     1      19.955  -0.427  53.248  1.00  0.00     0.201 C 
BRANCH  24  25
HETATM   25  O1  UNL     1      19.652   0.266  52.086  1.00  0.00    -0.393 OA
HETATM   26  C1  UNL     1      18.415  -0.185  51.622  1.00  0.00     0.201 C 
ENDBRANCH  24  25
ENDBRANCH   1  24
TORSDOF 6
ENDMDL
MODEL 2
REMARK VINA RESULT:      -7.2      3.364      5.491
REMARK  6 active torsions:
REMARK  status: ('A' for Active; 'I' for Inactive)
REMARK    1  A    between atoms: O1_2  and  C2_3 
REMARK    2  A    between atoms: C2_3  and  C3_4 
REMARK    3  A    between atoms: C9_13  and  N3_14 
REMARK    4  A    between atoms: N3_14  and  C10_15 
REMARK    5  A    between atoms: C11_16  and  C12_17 
REMARK    6  A    between atoms: C13_18  and  C14_19 
ROOT
HETATM    1  C3  UNL     1      25.998   0.453  54.195  1.00  0.00     0.177 C 
HETATM    2  C4  UNL     1      25.647  -0.898  54.763  1.00  0.00     0.210 C 
HETATM    3  O2  UNL     1      24.254  -0.908  55.008  1.00  0.00    -0.346 OA
HETATM    4  C5  UNL     1      23.463  -0.393  53.969  1.00  0.00     0.104 A 
HETATM    5  C6  UNL     1      22.090  -0.654  54.023  1.00  0.00     0.072 A 
HETATM    6  C7  UNL     1      21.325  -0.136  52.986  1.00  0.00     0.075 A 
HETATM    7  N1  UNL     1      20.012  -0.406  53.068  1.00  0.00    -0.241 NA
HETATM    8  C8  UNL     1      19.167   0.050  52.104  1.00  0.00     0.236 A 
HETATM    9  N2  UNL     1      19.687   0.768  51.086  1.00  0.00    -0.224 NA
HETATM   10  C9  UNL     1      20.976   1.067  50.950  1.00  0.00     0.141 A 
HETATM   11  C16 UNL     1      21.826   0.599  51.932  1.00  0.00     0.042 A 
HETATM   12  C17 UNL     1      23.184   0.839  51.907  1.00  0.00     0.057 A 
HETATM   13  C18 UNL     1      23.981   0.340  52.924  1.00  0.00     0.103 A 
HETATM   14  O3  UNL     1      25.353   0.560  52.931  1.00  0.00    -0.339 OA
ENDROOT
BRANCH  10  15
HETATM   15  N3  UNL     1      21.490   1.832  49.854  1.00  0.00    -0.350 N 
HETATM   16  H11 UNL     1      21.874   2.823  49.868  1.00  0.00     0.166 HD
BRANCH  15  17
HETATM   17  C10 UNL     1      21.549   1.313  48.505  1.00  0.00     0.086 C 
HETATM   18  C11 UNL     1      22.336   1.963  47.630  1.00  0.00    -0.004 C 
BRANCH  18  19
HETATM   19  C12 UNL     1      22.773   2.956  48.568  1.00  0.00     0.045 C 
HETATM   20  C13 UNL     1      22.999   4.250  48.463  1.00  0.00    -0.014 C 
BRANCH  20  21
HETATM   21  C14 UNL     1      23.381   4.307  49.897  1.00  0.00     0.042 C 
HETATM   22  C15 UNL     1      24.408   4.080  50.708  1.00  0.00     0.146 C 
HETATM   23  I1  UNL     1      26.284   3.400  50.079  1.00  0.00    -0.194 I 
ENDBRANCH  20  21
ENDBRANCH  18  19
ENDBRANCH  15  17
ENDBRANCH  10  15
BRANCH   1  24
HETATM   24  C2  UNL     1      27.494   0.629  54.044  1.00  0.00     0.201 C 
BRANCH  24  25
HETATM   25  O1  UNL     1      28.187  -0.405  54.655  1.00  0.00    -0.393 OA
HETATM   26  C1  UNL     1      29.319  -0.682  53.887  1.00  0.00     0.201 C 
ENDBRANCH  24  25
ENDBRANCH   1  24
TORSDOF 6
ENDMDL
MODEL 3
REMARK VINA RESULT:      -7.0      2.542      5.610
REMARK  6 active torsions:
REMARK  status: ('A' for Active; 'I' for Inactive)
REMARK    1  A    between atoms: O1_2  and  C2_3 
REMARK    2  A    between atoms: C2_3  and  C3_4 
REMARK    3  A    between atoms: C9_13  and  N3_14 
REMARK    4  A    between atoms: N3_14  and  C10_15 
REMARK    5  A    between atoms: C11_16  and  C12_17 
REMARK    6  A    between atoms: C13_18  and  C14_19 
ROOT
HETATM    1  C3  UNL     1      24.836   4.190  49.787  1.00  0.00     0.177 C 
HETATM    2  C4  UNL     1      26.247   3.973  49.301  1.00  0.00     0.210 C 
HETATM    3  O2  UNL     1      27.037   3.640  50.427  1.00  0.00    -0.346 OA
HETATM    4  C5  UNL     1      26.473   2.688  51.289  1.00  0.00     0.104 A 
HETATM    5  C6  UNL     1      27.321   2.101  52.235  1.00  0.00     0.072 A 
HETATM    6  C7  UNL     1      26.744   1.161  53.079  1.00  0.00     0.075 A 
HETATM    7  N1  UNL     1      27.586   0.617  53.972  1.00  0.00    -0.241 NA
HETATM    8  C8  UNL     1      27.128  -0.318  54.849  1.00  0.00     0.236 A 
HETATM    9  N2  UNL     1      25.827  -0.668  54.787  1.00  0.00    -0.224 NA
HETATM   10  C9  UNL     1      24.946  -0.166  53.927  1.00  0.00     0.141 A 
HETATM   11  C16 UNL     1      25.419   0.781  53.041  1.00  0.00     0.042 A 
HETATM   12  C17 UNL     1      24.608   1.377  52.098  1.00  0.00     0.057 A 
HETATM   13  C18 UNL     1      25.147   2.320  51.237  1.00  0.00     0.103 A 
HETATM   14  O3  UNL     1      24.360   2.940  50.273  1.00  0.00    -0.339 OA
ENDROOT
BRANCH  10  15
HETATM   15  N3  UNL     1      23.570  -0.565  53.893  1.00  0.00    -0.350 N 
HETATM   16  H11 UNL     1      22.865  -0.424  53.110  1.00  0.00     0.166 HD
BRANCH  15  17
HETATM   17  C10 UNL     1      22.934  -1.249  54.997  1.00  0.00     0.086 C 
HETATM   18  C11 UNL     1      21.605  -1.437  54.919  1.00  0.00    -0.004 C 
BRANCH  18  19
HETATM   19  C12 UNL     1      21.462  -0.797  53.643  1.00  0.00     0.045 C 
HETATM   20  C13 UNL     1      20.446  -0.206  53.045  1.00  0.00    -0.014 C 
BRANCH  20  21
HETATM   21  C14 UNL     1      21.300   0.085  51.867  1.00  0.00     0.042 C 
HETATM   22  C15 UNL     1      21.260   0.669  50.674  1.00  0.00     0.146 C 
HETATM   23  I1  UNL     1      19.567   1.596  49.867  1.00  0.00    -0.194 I 
ENDBRANCH  20  21
ENDBRANCH  18  19
ENDBRANCH  15  17
ENDBRANCH  10  15
BRANCH   1  24
HETATM   24  C2  UNL     1      23.936   4.709  48.685  1.00  0.00     0.201 C 
BRANCH  24  25
HETATM   25  O1  UNL     1      22.842   3.880  48.495  1.00  0.00    -0.393 OA
HETATM   26  C1  UNL     1      21.774   4.665  48.056  1.00  0.00     0.201 C 
ENDBRANCH  24  25
ENDBRANCH   1  24
TORSDOF 6
ENDMDL
MODEL 4
REMARK VINA RESULT:      -7.0      3.309      5.453
REMARK  6 active torsions:
REMARK  status: ('A' for Active; 'I' for Inactive)
REMARK    1  A    between atoms: O1_2  and  C2_3 
REMARK    2  A    between atoms: C2_3  and  C3_4 
REMARK    3  A    between atoms: C9_13  and  N3_14 
REMARK    4  A    between atoms: N3_14  and  C10_15 
REMARK    5  A    between atoms: C11_16  and  C12_17 
REMARK    6  A    between atoms: C13_18  and  C14_19 
ROOT
HETATM    1  C3  UNL     1      25.064  -0.110  55.018  1.00  0.00     0.177 C 
HETATM    2  C4  UNL     1      24.596  -1.456  55.511  1.00  0.00     0.210 C 
HETATM    3  O2  UNL     1      23.185  -1.408  55.603  1.00  0.00    -0.346 OA
HETATM    4  C5  UNL     1      22.535  -0.837  54.499  1.00  0.00     0.104 A 
HETATM    5  C6  UNL     1      21.154  -1.037  54.397  1.00  0.00     0.072 A 
HETATM    6  C7  UNL     1      20.530  -0.464  53.297  1.00  0.00     0.075 A 
HETATM    7  N1  UNL     1      19.205  -0.676  53.231  1.00  0.00    -0.241 NA
HETATM    8  C8  UNL     1      18.491  -0.163  52.192  1.00  0.00     0.236 A 
HETATM    9  N2  UNL     1      19.149   0.551  51.255  1.00  0.00    -0.224 NA
HETATM   10  C9  UNL     1      20.456   0.795  51.267  1.00  0.00     0.141 A 
HETATM   11  C16 UNL     1      21.174   0.270  52.323  1.00  0.00     0.042 A 
HETATM   12  C17 UNL     1      22.535   0.449  52.450  1.00  0.00     0.057 A 
HETATM   13  C18 UNL     1      23.195  -0.107  53.534  1.00  0.00     0.103 A 
HETATM   14  O3  UNL     1      24.566   0.052  53.695  1.00  0.00    -0.339 OA
ENDROOT
BRANCH  10  15
HETATM   15  N3  UNL     1      21.119   1.559  50.252  1.00  0.00    -0.350 N 
HETATM   16  H11 UNL     1      21.640   2.479  50.358  1.00  0.00     0.166 HD
BRANCH  15  17
HETATM   17  C10 UNL     1      21.157   1.141  48.868  1.00  0.00     0.086 C 
HETATM   18  C11 UNL     1      22.115   1.676  48.091  1.00  0.00    -0.004 C 
BRANCH  18  19
HETATM   19  C12 UNL     1      22.685   2.482  49.131  1.00  0.00     0.045 C 
HETATM   20  C13 UNL     1      23.789   3.198  49.207  1.00  0.00    -0.014 C 
BRANCH  20  21
HETATM   21  C14 UNL     1      23.446   3.593  50.596  1.00  0.00     0.042 C 
HETATM   22  C15 UNL     1      23.429   4.650  51.401  1.00  0.00     0.146 C 
HETATM   23  I1  UNL     1      24.028   6.574  50.840  1.00  0.00    -0.194 I 
ENDBRANCH  20  21
ENDBRANCH  18  19
ENDBRANCH  15  17
ENDBRANCH  10  15
BRANCH   1  24
HETATM   24  C2  UNL     1      26.574   0.001  55.035  1.00  0.00     0.201 C 
BRANCH  24  25
HETATM   25  O1  UNL     1      26.991   1.278  54.694  1.00  0.00    -0.393 OA
HETATM   26  C1  UNL     1      28.061   1.163  53.804  1.00  0.00     0.201 C 
ENDBRANCH  24  25
ENDBRANCH   1  24
TORSDOF 6
ENDMDL
MODEL 5
REMARK VINA RESULT:      -6.9      2.234      3.915
REMARK  6 active torsions:
REMARK  status: ('A' for Active; 'I' for Inactive)
REMARK    1  A    between atoms: O1_2  and  C2_3 
REMARK    2  A    between atoms: C2_3  and  C3_4 
REMARK    3  A    between atoms: C9_13  and  N3_14 
REMARK    4  A    between atoms: N3_14  and  C10_15 
REMARK    5  A    between atoms: C11_16  and  C12_17 
REMARK    6  A    between atoms: C13_18  and  C14_19 
ROOT
HETATM    1  C3  UNL     1      19.670   0.500  50.840  1.00  0.00     0.177 C 
HETATM    2  C4  UNL     1      18.753   0.517  52.036  1.00  0.00     0.210 C 
HETATM    3  O2  UNL     1      19.256  -0.420  52.971  1.00  0.00    -0.346 OA
HETATM    4  C5  UNL     1      20.641  -0.359  53.187  1.00  0.00     0.104 A 
HETATM    5  C6  UNL     1      21.143  -1.037  54.303  1.00  0.00     0.072 A 
HETATM    6  C7  UNL     1      22.516  -0.964  54.500  1.00  0.00     0.075 A 
HETATM    7  N1  UNL     1      22.963  -1.625  55.581  1.00  0.00    -0.241 NA
HETATM    8  C8  UNL     1      24.293  -1.620  55.872  1.00  0.00     0.236 A 
HETATM    9  N2  UNL     1      25.124  -0.942  55.053  1.00  0.00    -0.224 NA
HETATM   10  C9  UNL     1      24.742  -0.270  53.971  1.00  0.00     0.141 A 
HETATM   11  C16 UNL     1      23.391  -0.280  53.683  1.00  0.00     0.042 A 
HETATM   12  C17 UNL     1      22.867   0.379  52.591  1.00  0.00     0.057 A 
HETATM   13  C18 UNL     1      21.501   0.330  52.360  1.00  0.00     0.103 A 
HETATM   14  O3  UNL     1      20.936   0.982  51.270  1.00  0.00    -0.339 OA
ENDROOT
BRANCH  10  15
HETATM   15  N3  UNL     1      25.656   0.438  53.126  1.00  0.00    -0.350 N 
HETATM   16  H11 UNL     1      25.444   0.971  52.231  1.00  0.00     0.166 HD
BRANCH  15  17
HETATM   17  C10 UNL     1      27.072   0.514  53.407  1.00  0.00     0.086 C 
HETATM   18  C11 UNL     1      27.791   1.408  52.706  1.00  0.00    -0.004 C 
BRANCH  18  19
HETATM   19  C12 UNL     1      26.677   1.896  51.945  1.00  0.00     0.045 C 
HETATM   20  C13 UNL     1      26.557   2.849  51.042  1.00  0.00    -0.014 C 
BRANCH  20  21
HETATM   21  C14 UNL     1      25.110   2.546  50.905  1.00  0.00     0.042 C 
HETATM   22  C15 UNL     1      24.003   3.004  50.331  1.00  0.00     0.146 C 
HETATM   23  I1  UNL     1      23.911   4.724  49.143  1.00  0.00    -0.194 I 
ENDBRANCH  20  21
ENDBRANCH  18  19
ENDBRANCH  15  17
ENDBRANCH  10  15
BRANCH   1  24
HETATM   24  C2  UNL     1      19.133   1.352  49.709  1.00  0.00     0.201 C 
BRANCH  24  25
HETATM   25  O1  UNL     1      19.910   2.482  49.515  1.00  0.00    -0.393 OA
HETATM   26  C1  UNL     1      20.520   2.382  48.263  1.00  0.00     0.201 C 
ENDBRANCH  24  25
ENDBRANCH   1  24
TORSDOF 6
ENDMDL
MODEL 6
REMARK VINA RESULT:      -6.9      3.168      6.366
REMARK  6 active torsions:
REMARK  status: ('A' for Active; 'I' for Inactive)
REMARK    1  A    between atoms: O1_2  and  C2_3 
REMARK    2  A    between atoms: C2_3  and  C3_4 
REMARK    3  A    between atoms: C9_13  and  N3_14 
REMARK    4  A    between atoms: N3_14  and  C10_15 
REMARK    5  A    between atoms: C11_16  and  C12_17 
REMARK    6  A    between atoms: C13_18  and  C14_19 
ROOT
HETATM    1  C3  UNL     1      26.779   0.580  52.645  1.00  0.00     0.177 C 
HETATM    2  C4  UNL     1      27.532   1.878  52.795  1.00  0.00     0.210 C 
HETATM    3  O2  UNL     1      27.318   2.632  51.617  1.00  0.00    -0.346 OA
HETATM    4  C5  UNL     1      25.989   2.677  51.173  1.00  0.00     0.104 A 
HETATM    5  C6  UNL     1      25.670   3.639  50.208  1.00  0.00     0.072 A 
HETATM    6  C7  UNL     1      24.349   3.668  49.781  1.00  0.00     0.075 A 
HETATM    7  N1  UNL     1      24.078   4.604  48.857  1.00  0.00    -0.241 NA
HETATM    8  C8  UNL     1      22.814   4.724  48.368  1.00  0.00     0.236 A 
HETATM    9  N2  UNL     1      21.866   3.886  48.837  1.00  0.00    -0.224 NA
HETATM   10  C9  UNL     1      22.072   2.942  49.750  1.00  0.00     0.141 A 
HETATM   11  C16 UNL     1      23.357   2.827  50.241  1.00  0.00     0.042 A 
HETATM   12  C17 UNL     1      23.701   1.890  51.192  1.00  0.00     0.057 A 
HETATM   13  C18 UNL     1      25.010   1.829  51.643  1.00  0.00     0.103 A 
HETATM   14  O3  UNL     1      25.394   0.898  52.601  1.00  0.00    -0.339 OA
ENDROOT
BRANCH  10  15
HETATM   15  N3  UNL     1      21.037   2.071  50.223  1.00  0.00    -0.350 N 
HETATM   16  H11 UNL     1      20.957   1.603  51.174  1.00  0.00     0.166 HD
BRANCH  15  17
HETATM   17  C10 UNL     1      19.904   1.698  49.406  1.00  0.00     0.086 C 
HETATM   18  C11 UNL     1      18.932   0.979  49.994  1.00  0.00    -0.004 C 
BRANCH  18  19
HETATM   19  C12 UNL     1      19.569   0.934  51.279  1.00  0.00     0.045 C 
HETATM   20  C13 UNL     1      19.356   0.211  52.360  1.00  0.00    -0.014 C 
BRANCH  20  21
HETATM   21  C14 UNL     1      20.478   0.898  53.049  1.00  0.00     0.042 C 
HETATM   22  C15 UNL     1      21.532   0.649  53.819  1.00  0.00     0.146 C 
HETATM   23  I1  UNL     1      22.093  -1.256  54.476  1.00  0.00    -0.194 I 
ENDBRANCH  20  21
ENDBRANCH  18  19
ENDBRANCH  15  17
ENDBRANCH  10  15
BRANCH   1  24
HETATM   24  C2  UNL     1      27.070  -0.373  53.786  1.00  0.00     0.201 C 
BRANCH  24  25
HETATM   25  O1  UNL     1      27.715  -1.514  53.338  1.00  0.00    -0.393 OA
HETATM   26  C1  UNL     1      29.092  -1.295  53.417  1.00  0.00     0.201 C 
ENDBRANCH  24  25
ENDBRANCH   1  24
TORSDOF 6
ENDMDL
MODEL 7
REMARK VINA RESULT:      -6.8      7.661     10.518
REMARK  6 active torsions:
REMARK  status: ('A' for Active; 'I' for Inactive)
REMARK    1  A    between atoms: O1_2  and  C2_3 
REMARK    2  A    between atoms: C2_3  and  C3_4 
REMARK    3  A    between atoms: C9_13  and  N3_14 
REMARK    4  A    between atoms: N3_14  and  C10_15 
REMARK    5  A    between atoms: C11_16  and  C12_17 
REMARK    6  A    between atoms: C13_18  and  C14_19 
ROOT
HETATM    1  C3  UNL     1      32.685   4.118  47.340  1.00  0.00     0.177 C 
HETATM    2  C4  UNL     1      34.056   4.697  47.578  1.00  0.00     0.210 C 
HETATM    3  O2  UNL     1      34.006   6.067  47.226  1.00  0.00    -0.346 OA
HETATM    4  C5  UNL     1      32.891   6.765  47.712  1.00  0.00     0.104 A 
HETATM    5  C6  UNL     1      32.940   8.163  47.658  1.00  0.00     0.072 A 
HETATM    6  C7  UNL     1      31.827   8.836  48.144  1.00  0.00     0.075 A 
HETATM    7  N1  UNL     1      31.909  10.175  48.079  1.00  0.00    -0.241 NA
HETATM    8  C8  UNL     1      30.875  10.937  48.530  1.00  0.00     0.236 A 
HETATM    9  N2  UNL     1      29.791  10.310  49.032  1.00  0.00    -0.224 NA
HETATM   10  C9  UNL     1      29.652   8.990  49.123  1.00  0.00     0.141 A 
HETATM   11  C16 UNL     1      30.706   8.225  48.664  1.00  0.00     0.042 A 
HETATM   12  C17 UNL     1      30.687   6.847  48.704  1.00  0.00     0.057 A 
HETATM   13  C18 UNL     1      31.779   6.139  48.229  1.00  0.00     0.103 A 
HETATM   14  O3  UNL     1      31.796   4.749  48.253  1.00  0.00    -0.339 OA
ENDROOT
BRANCH  10  15
HETATM   15  N3  UNL     1      28.484   8.362  49.664  1.00  0.00    -0.350 N 
HETATM   16  H11 UNL     1      28.268   7.323  49.730  1.00  0.00     0.166 HD
BRANCH  15  17
HETATM   17  C10 UNL     1      27.383   9.118  50.219  1.00  0.00     0.086 C 
HETATM   18  C11 UNL     1      26.148   8.610  50.062  1.00  0.00    -0.004 C 
BRANCH  18  19
HETATM   19  C12 UNL     1      26.581   7.446  49.345  1.00  0.00     0.045 C 
HETATM   20  C13 UNL     1      26.094   6.802  48.303  1.00  0.00    -0.014 C 
BRANCH  20  21
HETATM   21  C14 UNL     1      27.212   5.828  48.372  1.00  0.00     0.042 C 
HETATM   22  C15 UNL     1      27.517   4.629  48.856  1.00  0.00     0.146 C 
HETATM   23  I1  UNL     1      26.199   3.423  49.945  1.00  0.00    -0.194 I 
ENDBRANCH  20  21
ENDBRANCH  18  19
ENDBRANCH  15  17
ENDBRANCH  10  15
BRANCH   1  24
HETATM   24  C2  UNL     1      32.669   2.616  47.535  1.00  0.00     0.201 C 
BRANCH  24  25
HETATM   25  O1  UNL     1      31.886   1.992  46.576  1.00  0.00    -0.393 OA
HETATM   26  C1  UNL     1      32.031   0.611  46.729  1.00  0.00     0.201 C 
ENDBRANCH  24  25
ENDBRANCH   1  24
TORSDOF 6
ENDMDL
MODEL 8
REMARK VINA RESULT:      -6.8      2.495      5.440
REMARK  6 active torsions:
REMARK  status: ('A' for Active; 'I' for Inactive)
REMARK    1  A    between atoms: O1_2  and  C2_3 
REMARK    2  A    between atoms: C2_3  and  C3_4 
REMARK    3  A    between atoms: C9_13  and  N3_14 
REMARK    4  A    between atoms: N3_14  and  C10_15 
REMARK    5  A    between atoms: C11_16  and  C12_17 
REMARK    6  A    between atoms: C13_18  and  C14_19 
ROOT
HETATM    1  C3  UNL     1      22.873   4.399  49.972  1.00  0.00     0.177 C 
HETATM    2  C4  UNL     1      23.947   4.464  48.916  1.00  0.00     0.210 C 
HETATM    3  O2  UNL     1      25.193   4.303  49.566  1.00  0.00    -0.346 OA
HETATM    4  C5  UNL     1      25.243   3.264  50.508  1.00  0.00     0.104 A 
HETATM    5  C6  UNL     1      26.509   2.865  50.951  1.00  0.00     0.072 A 
HETATM    6  C7  UNL     1      26.537   1.835  51.883  1.00  0.00     0.075 A 
HETATM    7  N1  UNL     1      27.767   1.477  52.285  1.00  0.00    -0.241 NA
HETATM    8  C8  UNL     1      27.914   0.476  53.196  1.00  0.00     0.236 A 
HETATM    9  N2  UNL     1      26.803  -0.128  53.667  1.00  0.00    -0.224 NA
HETATM   10  C9  UNL     1      25.561   0.182  53.307  1.00  0.00     0.141 A 
HETATM   11  C16 UNL     1      25.420   1.198  52.383  1.00  0.00     0.042 A 
HETATM   12  C17 UNL     1      24.188   1.613  51.926  1.00  0.00     0.057 A 
HETATM   13  C18 UNL     1      24.117   2.639  50.996  1.00  0.00     0.103 A 
HETATM   14  O3  UNL     1      22.893   3.083  50.513  1.00  0.00    -0.339 OA
ENDROOT
BRANCH  10  15
HETATM   15  N3  UNL     1      24.405  -0.483  53.831  1.00  0.00    -0.350 N 
HETATM   16  H11 UNL     1      23.456  -0.609  53.370  1.00  0.00     0.166 HD
BRANCH  15  17
HETATM   17  C10 UNL     1      24.392  -1.101  55.138  1.00  0.00     0.086 C 
HETATM   18  C11 UNL     1      23.197  -1.470  55.631  1.00  0.00    -0.004 C 
BRANCH  18  19
HETATM   19  C12 UNL     1      22.447  -1.019  54.494  1.00  0.00     0.045 C 
HETATM   20  C13 UNL     1      21.185  -1.160  54.139  1.00  0.00    -0.014 C 
BRANCH  20  21
HETATM   21  C14 UNL     1      21.438  -0.376  52.904  1.00  0.00     0.042 C 
HETATM   22  C15 UNL     1      20.799   0.224  51.906  1.00  0.00     0.146 C 
HETATM   23  I1  UNL     1      18.718   0.273  51.694  1.00  0.00    -0.194 I 
ENDBRANCH  20  21
ENDBRANCH  18  19
ENDBRANCH  15  17
ENDBRANCH  10  15
BRANCH   1  24
HETATM   24  C2  UNL     1      21.507   4.720  49.404  1.00  0.00     0.201 C 
BRANCH  24  25
HETATM   25  O1  UNL     1      20.612   5.065  50.405  1.00  0.00    -0.393 OA
HETATM   26  C1  UNL     1      19.465   4.285  50.251  1.00  0.00     0.201 C 
ENDBRANCH  24  25
ENDBRANCH   1  24
TORSDOF 6
ENDMDL
MODEL 9
REMARK VINA RESULT:      -6.7      3.233      6.148
REMARK  6 active torsions:
REMARK  status: ('A' for Active; 'I' for Inactive)
REMARK    1  A    between atoms: O1_2  and  C2_3 
REMARK    2  A    between atoms: C2_3  and  C3_4 
REMARK    3  A    between atoms: C9_13  and  N3_14 
REMARK    4  A    between atoms: N3_14  and  C10_15 
REMARK    5  A    between atoms: C11_16  and  C12_17 
REMARK    6  A    between atoms: C13_18  and  C14_19 
ROOT
HETATM    1  C3  UNL     1      25.584   3.163  50.892  1.00  0.00     0.177 C 
HETATM    2  C4  UNL     1      26.597   2.063  51.083  1.00  0.00     0.210 C 
HETATM    3  O2  UNL     1      26.270   1.388  52.283  1.00  0.00    -0.346 OA
HETATM    4  C5  UNL     1      24.911   1.080  52.441  1.00  0.00     0.104 A 
HETATM    5  C6  UNL     1      24.576   0.160  53.440  1.00  0.00     0.072 A 
HETATM    6  C7  UNL     1      23.226  -0.131  53.581  1.00  0.00     0.075 A 
HETATM    7  N1  UNL     1      22.941  -1.019  54.548  1.00  0.00    -0.241 NA
HETATM    8  C8  UNL     1      21.648  -1.380  54.773  1.00  0.00     0.236 A 
HETATM    9  N2  UNL     1      20.687  -0.825  54.006  1.00  0.00    -0.224 NA
HETATM   10  C9  UNL     1      20.906   0.057  53.035  1.00  0.00     0.141 A 
HETATM   11  C16 UNL     1      22.221   0.418  52.813  1.00  0.00     0.042 A 
HETATM   12  C17 UNL     1      22.581   1.321  51.835  1.00  0.00     0.057 A 
HETATM   13  C18 UNL     1      23.919   1.638  51.664  1.00  0.00     0.103 A 
HETATM   14  O3  UNL     1      24.320   2.543  50.689  1.00  0.00    -0.339 OA
ENDROOT
BRANCH  10  15
HETATM   15  N3  UNL     1      19.857   0.624  52.241  1.00  0.00    -0.350 N 
HETATM   16  H11 UNL     1      19.659   1.651  52.052  1.00  0.00     0.166 HD
BRANCH  15  17
HETATM   17  C10 UNL     1      18.875  -0.189  51.559  1.00  0.00     0.086 C 
HETATM   18  C11 UNL     1      17.960   0.451  50.811  1.00  0.00    -0.004 C 
BRANCH  18  19
HETATM   19  C12 UNL     1      18.465   1.764  51.090  1.00  0.00     0.045 C 
HETATM   20  C13 UNL     1      18.094   2.968  50.704  1.00  0.00    -0.014 C 
BRANCH  20  21
HETATM   21  C14 UNL     1      19.192   3.570  51.501  1.00  0.00     0.042 C 
HETATM   22  C15 UNL     1      20.377   4.154  51.362  1.00  0.00     0.146 C 
HETATM   23  I1  UNL     1      21.316   4.502  49.525  1.00  0.00    -0.194 I 
ENDBRANCH  20  21
ENDBRANCH  18  19
ENDBRANCH  15  17
ENDBRANCH  10  15
BRANCH   1  24
HETATM   24  C2  UNL     1      25.935   4.053  49.718  1.00  0.00     0.201 C 
BRANCH  24  25
HETATM   25  O1  UNL     1      27.267   3.915  49.361  1.00  0.00    -0.393 OA
HETATM   26  C1  UNL     1      27.629   5.025  48.595  1.00  0.00     0.201 C 
ENDBRANCH  24  25
ENDBRANCH   1  24
TORSDOF 6
ENDMDL
