MODEL 1
REMARK VINA RESULT:      -9.8      0.000      0.000
REMARK  2 active torsions:
REMARK  status: ('A' for Active; 'I' for Inactive)
REMARK    1  A    between atoms: N1_7  and  C6_8 
REMARK    2  A    between atoms: C15_20  and  O2_21 
ROOT
HETATM    1  O1  UNL     1      18.447  -1.031  53.504  1.00  0.00    -0.289 OA
HETATM    2  C1  UNL     1      19.558  -0.495  53.290  1.00  0.00     0.168 C 
HETATM    3  C2  UNL     1      20.616  -1.199  54.135  1.00  0.00     0.034 C 
HETATM    4  C3  UNL     1      21.922  -1.457  54.534  1.00  0.00     0.059 C 
HETATM    5  C4  UNL     1      22.850  -0.626  53.710  1.00  0.00     0.021 C 
HETATM    6  C5  UNL     1      24.154  -0.338  53.512  1.00  0.00     0.090 C 
HETATM    7  N1  UNL     1      24.947   0.493  52.673  1.00  0.00    -0.271 N 
HETATM    8  N2  UNL     1      24.215   1.103  51.647  1.00  0.00    -0.294 N 
HETATM    9  C12 UNL     1      23.155   2.096  51.676  1.00  0.00     0.059 A 
HETATM   10  C13 UNL     1      24.001   3.180  51.735  1.00  0.00     0.034 A 
HETATM   11  C14 UNL     1      23.585   4.518  51.824  1.00  0.00     0.039 A 
HETATM   12  C15 UNL     1      22.246   4.827  51.858  1.00  0.00     0.066 A 
HETATM   13  C16 UNL     1      21.460   3.665  51.792  1.00  0.00     0.050 A 
HETATM   14  C17 UNL     1      21.798   2.287  51.702  1.00  0.00    -0.005 A 
HETATM   15  C18 UNL     1      20.494   1.638  51.706  1.00  0.00     0.018 C 
HETATM   16  C19 UNL     1      19.912   0.635  52.387  1.00  0.00     0.055 C 
HETATM   17  H8  UNL     1      24.641   0.699  50.800  1.00  0.00     0.187 HD
ENDROOT
BRANCH   7  18
HETATM   18  C6  UNL     1      26.295   0.548  53.022  1.00  0.00     0.057 A 
HETATM   19  C7  UNL     1      26.674   1.808  53.368  1.00  0.00     0.034 A 
HETATM   20  C8  UNL     1      28.008   2.011  53.749  1.00  0.00     0.046 A 
HETATM   21  C9  UNL     1      28.923   0.971  53.779  1.00  0.00     0.138 A 
HETATM   22  F1  UNL     1      30.215   1.136  54.142  1.00  0.00    -0.204 F 
HETATM   23  C10 UNL     1      28.475  -0.279  53.417  1.00  0.00     0.074 A 
HETATM   24 CL1  UNL     1      29.545  -1.661  53.418  1.00  0.00    -0.081 Cl
HETATM   25  C11 UNL     1      27.168  -0.507  53.038  1.00  0.00     0.058 A 
ENDBRANCH   7  18
BRANCH  12  26
HETATM   26  O2  UNL     1      21.810   6.137  51.946  1.00  0.00    -0.361 OA
HETATM   27  H11 UNL     1      21.929   6.691  52.795  1.00  0.00     0.217 HD
ENDBRANCH  12  26
TORSDOF 2
ENDMDL
MODEL 2
REMARK VINA RESULT:      -9.7      3.855      5.808
REMARK  2 active torsions:
REMARK  status: ('A' for Active; 'I' for Inactive)
REMARK    1  A    between atoms: N1_7  and  C6_8 
REMARK    2  A    between atoms: C15_20  and  O2_21 
ROOT
HETATM    1  O1  UNL     1      21.689  -2.090  54.740  1.00  0.00    -0.289 OA
HETATM    2  C1  UNL     1      22.519  -1.265  54.294  1.00  0.00     0.168 C 
HETATM    3  C2  UNL     1      21.952  -0.636  53.023  1.00  0.00     0.034 C 
HETATM    4  C3  UNL     1      21.958   0.280  51.978  1.00  0.00     0.059 C 
HETATM    5  C4  UNL     1      23.139   1.180  52.134  1.00  0.00     0.021 C 
HETATM    6  C5  UNL     1      23.778   2.229  51.573  1.00  0.00     0.090 C 
HETATM    7  N1  UNL     1      24.928   3.030  51.816  1.00  0.00    -0.271 N 
HETATM    8  N2  UNL     1      25.522   2.783  53.059  1.00  0.00    -0.294 N 
HETATM    9  C12 UNL     1      26.192   1.610  53.593  1.00  0.00     0.059 A 
HETATM   10  C13 UNL     1      27.421   1.910  53.051  1.00  0.00     0.034 A 
HETATM   11  C14 UNL     1      28.568   1.109  53.172  1.00  0.00     0.039 A 
HETATM   12  C15 UNL     1      28.519  -0.073  53.874  1.00  0.00     0.066 A 
HETATM   13  C16 UNL     1      27.231  -0.296  54.390  1.00  0.00     0.050 A 
HETATM   14  C17 UNL     1      26.028   0.456  54.315  1.00  0.00    -0.005 A 
HETATM   15  C18 UNL     1      25.084  -0.378  55.046  1.00  0.00     0.018 C 
HETATM   16  C19 UNL     1      23.855  -0.876  54.823  1.00  0.00     0.055 C 
HETATM   17  H8  UNL     1      25.411   3.686  53.542  1.00  0.00     0.187 HD
ENDROOT
BRANCH   7  18
HETATM   18  C6  UNL     1      25.252   3.906  50.780  1.00  0.00     0.057 A 
HETATM   19  C7  UNL     1      24.209   4.722  50.468  1.00  0.00     0.034 A 
HETATM   20  C8  UNL     1      24.395   5.661  49.444  1.00  0.00     0.046 A 
HETATM   21  C9  UNL     1      25.596   5.767  48.762  1.00  0.00     0.138 A 
HETATM   22  F1  UNL     1      25.805   6.662  47.771  1.00  0.00    -0.204 F 
HETATM   23  C10 UNL     1      26.610   4.911  49.127  1.00  0.00     0.074 A 
HETATM   24 CL1  UNL     1      28.166   4.958  48.332  1.00  0.00    -0.081 Cl
HETATM   25  C11 UNL     1      26.455   3.978  50.131  1.00  0.00     0.058 A 
ENDBRANCH   7  18
BRANCH  12  26
HETATM   26  O2  UNL     1      29.634  -0.880  54.007  1.00  0.00    -0.361 OA
HETATM   27  H11 UNL     1      29.669  -1.648  54.679  1.00  0.00     0.217 HD
ENDBRANCH  12  26
TORSDOF 2
ENDMDL
MODEL 3
REMARK VINA RESULT:      -9.6      3.902      5.661
REMARK  2 active torsions:
REMARK  status: ('A' for Active; 'I' for Inactive)
REMARK    1  A    between atoms: N1_7  and  C6_8 
REMARK    2  A    between atoms: C15_20  and  O2_21 
ROOT
HETATM    1  O1  UNL     1      19.540  -0.665  53.073  1.00  0.00    -0.289 OA
HETATM    2  C1  UNL     1      20.647  -0.136  52.824  1.00  0.00     0.168 C 
HETATM    3  C2  UNL     1      20.479   0.832  51.657  1.00  0.00     0.034 C 
HETATM    4  C3  UNL     1      20.916   1.828  50.791  1.00  0.00     0.059 C 
HETATM    5  C4  UNL     1      22.309   2.212  51.166  1.00  0.00     0.021 C 
HETATM    6  C5  UNL     1      23.329   3.033  50.834  1.00  0.00     0.090 C 
HETATM    7  N1  UNL     1      24.650   3.324  51.276  1.00  0.00    -0.271 N 
HETATM    8  N2  UNL     1      24.979   2.702  52.485  1.00  0.00    -0.294 N 
HETATM    9  C12 UNL     1      25.139   1.302  52.839  1.00  0.00     0.059 A 
HETATM   10  C13 UNL     1      26.450   1.218  52.425  1.00  0.00     0.034 A 
HETATM   11  C14 UNL     1      27.229   0.051  52.463  1.00  0.00     0.039 A 
HETATM   12  C15 UNL     1      26.698  -1.123  52.941  1.00  0.00     0.066 A 
HETATM   13  C16 UNL     1      25.363  -0.944  53.341  1.00  0.00     0.050 A 
HETATM   14  C17 UNL     1      24.508   0.191  53.335  1.00  0.00    -0.005 A 
HETATM   15  C18 UNL     1      23.259  -0.347  53.857  1.00  0.00     0.018 C 
HETATM   16  C19 UNL     1      21.967  -0.333  53.485  1.00  0.00     0.055 C 
HETATM   17  H8  UNL     1      25.132   3.504  53.113  1.00  0.00     0.187 HD
ENDROOT
BRANCH   7  18
HETATM   18  C6  UNL     1      25.369   4.168  50.429  1.00  0.00     0.057 A 
HETATM   19  C7  UNL     1      26.407   3.519  49.836  1.00  0.00     0.034 A 
HETATM   20  C8  UNL     1      27.215   4.246  48.951  1.00  0.00     0.046 A 
HETATM   21  C9  UNL     1      26.978   5.583  48.679  1.00  0.00     0.138 A 
HETATM   22  F1  UNL     1      27.739   6.311  47.831  1.00  0.00    -0.204 F 
HETATM   23  C10 UNL     1      25.912   6.180  49.313  1.00  0.00     0.074 A 
HETATM   24 CL1  UNL     1      25.522   7.862  49.043  1.00  0.00    -0.081 Cl
HETATM   25  C11 UNL     1      25.099   5.488  50.188  1.00  0.00     0.058 A 
ENDBRANCH   7  18
BRANCH  12  26
HETATM   26  O2  UNL     1      27.444  -2.286  52.989  1.00  0.00    -0.361 OA
HETATM   27  H11 UNL     1      28.215  -2.462  52.343  1.00  0.00     0.217 HD
ENDBRANCH  12  26
TORSDOF 2
ENDMDL
MODEL 4
REMARK VINA RESULT:      -9.6      1.962      4.746
REMARK  2 active torsions:
REMARK  status: ('A' for Active; 'I' for Inactive)
REMARK    1  A    between atoms: N1_7  and  C6_8 
REMARK    2  A    between atoms: C15_20  and  O2_21 
ROOT
HETATM    1  O1  UNL     1      23.329   6.476  48.467  1.00  0.00    -0.289 OA
HETATM    2  C1  UNL     1      23.635   5.545  49.247  1.00  0.00     0.168 C 
HETATM    3  C2  UNL     1      25.072   5.117  48.963  1.00  0.00     0.034 C 
HETATM    4  C3  UNL     1      26.235   4.405  49.230  1.00  0.00     0.059 C 
HETATM    5  C4  UNL     1      26.036   3.609  50.477  1.00  0.00     0.021 C 
HETATM    6  C5  UNL     1      26.646   2.742  51.314  1.00  0.00     0.090 C 
HETATM    7  N1  UNL     1      26.352   2.029  52.509  1.00  0.00    -0.271 N 
HETATM    8  N2  UNL     1      25.143   2.412  53.100  1.00  0.00    -0.294 N 
HETATM    9  C12 UNL     1      23.767   2.284  52.653  1.00  0.00     0.059 A 
HETATM   10  C13 UNL     1      23.602   1.000  53.120  1.00  0.00     0.034 A 
HETATM   11  C14 UNL     1      22.435   0.235  52.968  1.00  0.00     0.039 A 
HETATM   12  C15 UNL     1      21.343   0.756  52.315  1.00  0.00     0.066 A 
HETATM   13  C16 UNL     1      21.599   2.066  51.875  1.00  0.00     0.050 A 
HETATM   14  C17 UNL     1      22.741   2.904  51.986  1.00  0.00    -0.005 A 
HETATM   15  C18 UNL     1      22.322   4.109  51.284  1.00  0.00     0.018 C 
HETATM   16  C19 UNL     1      22.826   4.890  50.311  1.00  0.00     0.055 C 
HETATM   17  H8  UNL     1      25.450   2.801  54.004  1.00  0.00     0.187 HD
ENDROOT
BRANCH   7  18
HETATM   18  C6  UNL     1      27.314   1.086  52.870  1.00  0.00     0.057 A 
HETATM   19  C7  UNL     1      28.393   1.668  53.459  1.00  0.00     0.034 A 
HETATM   20  C8  UNL     1      29.440   0.836  53.880  1.00  0.00     0.046 A 
HETATM   21  C9  UNL     1      29.392  -0.538  53.709  1.00  0.00     0.138 A 
HETATM   22  F1  UNL     1      30.385  -1.366  54.104  1.00  0.00    -0.204 F 
HETATM   23  C10 UNL     1      28.272  -1.063  53.105  1.00  0.00     0.074 A 
HETATM   24 CL1  UNL     1      28.107  -2.783  52.840  1.00  0.00    -0.081 Cl
HETATM   25  C11 UNL     1      27.227  -0.268  52.682  1.00  0.00     0.058 A 
ENDBRANCH   7  18
BRANCH  12  26
HETATM   26  O2  UNL     1      20.182   0.023  52.152  1.00  0.00    -0.361 OA
HETATM   27  H11 UNL     1      20.024  -0.565  51.332  1.00  0.00     0.217 HD
ENDBRANCH  12  26
TORSDOF 2
ENDMDL
MODEL 5
REMARK VINA RESULT:      -9.2      1.638      4.160
REMARK  2 active torsions:
REMARK  status: ('A' for Active; 'I' for Inactive)
REMARK    1  A    between atoms: N1_7  and  C6_8 
REMARK    2  A    between atoms: C15_20  and  O2_21 
ROOT
HETATM    1  O1  UNL     1      19.959   4.091  48.852  1.00  0.00    -0.289 OA
HETATM    2  C1  UNL     1      20.662   3.435  49.654  1.00  0.00     0.168 C 
HETATM    3  C2  UNL     1      22.067   3.295  49.076  1.00  0.00     0.034 C 
HETATM    4  C3  UNL     1      23.409   2.936  49.136  1.00  0.00     0.059 C 
HETATM    5  C4  UNL     1      23.700   2.390  50.495  1.00  0.00     0.021 C 
HETATM    6  C5  UNL     1      24.684   1.876  51.264  1.00  0.00     0.090 C 
HETATM    7  N1  UNL     1      24.853   1.377  52.586  1.00  0.00    -0.271 N 
HETATM    8  N2  UNL     1      23.738   1.590  53.405  1.00  0.00    -0.294 N 
HETATM    9  C12 UNL     1      22.385   1.064  53.350  1.00  0.00     0.059 A 
HETATM   10  C13 UNL     1      22.676  -0.100  54.026  1.00  0.00     0.034 A 
HETATM   11  C14 UNL     1      21.754  -1.124  54.292  1.00  0.00     0.039 A 
HETATM   12  C15 UNL     1      20.449  -1.010  53.872  1.00  0.00     0.066 A 
HETATM   13  C16 UNL     1      20.244   0.204  53.196  1.00  0.00     0.050 A 
HETATM   14  C17 UNL     1      21.114   1.284  52.886  1.00  0.00    -0.005 A 
HETATM   15  C18 UNL     1      20.247   2.191  52.146  1.00  0.00     0.018 C 
HETATM   16  C19 UNL     1      20.304   2.848  50.974  1.00  0.00     0.055 C 
HETATM   17  H8  UNL     1      24.113   2.215  54.132  1.00  0.00     0.187 HD
ENDROOT
BRANCH   7  18
HETATM   18  C6  UNL     1      26.087   0.772  52.821  1.00  0.00     0.057 A 
HETATM   19  C7  UNL     1      27.026   1.678  53.206  1.00  0.00     0.034 A 
HETATM   20  C8  UNL     1      28.317   1.207  53.483  1.00  0.00     0.046 A 
HETATM   21  C9  UNL     1      28.643  -0.135  53.372  1.00  0.00     0.138 A 
HETATM   22  F1  UNL     1      29.878  -0.618  53.632  1.00  0.00    -0.204 F 
HETATM   23  C10 UNL     1      27.647  -0.998  52.976  1.00  0.00     0.074 A 
HETATM   24 CL1  UNL     1      27.948  -2.711  52.804  1.00  0.00    -0.081 Cl
HETATM   25  C11 UNL     1      26.367  -0.563  52.699  1.00  0.00     0.058 A 
ENDBRANCH   7  18
BRANCH  12  26
HETATM   26  O2  UNL     1      19.521  -2.005  54.122  1.00  0.00    -0.361 OA
HETATM   27  H11 UNL     1      18.742  -2.190  53.488  1.00  0.00     0.217 HD
ENDBRANCH  12  26
TORSDOF 2
ENDMDL
MODEL 6
REMARK VINA RESULT:      -9.1      2.190      4.462
REMARK  2 active torsions:
REMARK  status: ('A' for Active; 'I' for Inactive)
REMARK    1  A    between atoms: N1_7  and  C6_8 
REMARK    2  A    between atoms: C15_20  and  O2_21 
ROOT
HETATM    1  O1  UNL     1      18.996   2.913  47.810  1.00  0.00    -0.289 OA
HETATM    2  C1  UNL     1      19.717   2.510  48.751  1.00  0.00     0.168 C 
HETATM    3  C2  UNL     1      21.165   2.456  48.273  1.00  0.00     0.034 C 
HETATM    4  C3  UNL     1      22.533   2.295  48.460  1.00  0.00     0.059 C 
HETATM    5  C4  UNL     1      22.794   2.044  49.908  1.00  0.00     0.021 C 
HETATM    6  C5  UNL     1      23.778   1.810  50.803  1.00  0.00     0.090 C 
HETATM    7  N1  UNL     1      23.916   1.582  52.200  1.00  0.00    -0.271 N 
HETATM    8  N2  UNL     1      22.730   1.787  52.914  1.00  0.00    -0.294 N 
HETATM    9  C12 UNL     1      21.458   1.085  52.897  1.00  0.00     0.059 A 
HETATM   10  C13 UNL     1      21.841   0.110  53.789  1.00  0.00     0.034 A 
HETATM   11  C14 UNL     1      21.034  -0.963  54.199  1.00  0.00     0.039 A 
HETATM   12  C15 UNL     1      19.758  -1.100  53.707  1.00  0.00     0.066 A 
HETATM   13  C16 UNL     1      19.453  -0.064  52.808  1.00  0.00     0.050 A 
HETATM   14  C17 UNL     1      20.205   1.049  52.343  1.00  0.00    -0.005 A 
HETATM   15  C18 UNL     1      19.286   1.687  51.409  1.00  0.00     0.018 C 
HETATM   16  C19 UNL     1      19.343   2.126  50.140  1.00  0.00     0.055 C 
HETATM   17  H8  UNL     1      22.975   2.577  53.529  1.00  0.00     0.187 HD
ENDROOT
BRANCH   7  18
HETATM   18  C6  UNL     1      25.195   1.197  52.599  1.00  0.00     0.057 A 
HETATM   19  C7  UNL     1      25.319  -0.156  52.657  1.00  0.00     0.034 A 
HETATM   20  C8  UNL     1      26.559  -0.686  53.040  1.00  0.00     0.046 A 
HETATM   21  C9  UNL     1      27.634   0.129  53.353  1.00  0.00     0.138 A 
HETATM   22  F1  UNL     1      28.842  -0.352  53.725  1.00  0.00    -0.204 F 
HETATM   23  C10 UNL     1      27.442   1.490  53.275  1.00  0.00     0.074 A 
HETATM   24 CL1  UNL     1      28.731   2.610  53.647  1.00  0.00    -0.081 Cl
HETATM   25  C11 UNL     1      26.233   2.039  52.900  1.00  0.00     0.058 A 
ENDBRANCH   7  18
BRANCH  12  26
HETATM   26  O2  UNL     1      18.943  -2.148  54.094  1.00  0.00    -0.361 OA
HETATM   27  H11 UNL     1      18.340  -2.638  53.433  1.00  0.00     0.217 HD
ENDBRANCH  12  26
TORSDOF 2
ENDMDL
MODEL 7
REMARK VINA RESULT:      -8.8      4.093      6.944
REMARK  2 active torsions:
REMARK  status: ('A' for Active; 'I' for Inactive)
REMARK    1  A    between atoms: N1_7  and  C6_8 
REMARK    2  A    between atoms: C15_20  and  O2_21 
ROOT
HETATM    1  O1  UNL     1      28.387   7.284  48.085  1.00  0.00    -0.289 OA
HETATM    2  C1  UNL     1      27.449   6.753  48.722  1.00  0.00     0.168 C 
HETATM    3  C2  UNL     1      27.582   5.236  48.620  1.00  0.00     0.034 C 
HETATM    4  C3  UNL     1      27.239   3.930  48.951  1.00  0.00     0.059 C 
HETATM    5  C4  UNL     1      26.155   3.964  49.977  1.00  0.00     0.021 C 
HETATM    6  C5  UNL     1      25.360   3.177  50.734  1.00  0.00     0.090 C 
HETATM    7  N1  UNL     1      24.334   3.322  51.708  1.00  0.00    -0.271 N 
HETATM    8  N2  UNL     1      24.161   4.642  52.138  1.00  0.00    -0.294 N 
HETATM    9  C12 UNL     1      23.706   5.833  51.442  1.00  0.00     0.059 A 
HETATM   10  C13 UNL     1      22.365   5.583  51.629  1.00  0.00     0.034 A 
HETATM   11  C14 UNL     1      21.324   6.386  51.138  1.00  0.00     0.039 A 
HETATM   12  C15 UNL     1      21.604   7.519  50.411  1.00  0.00     0.066 A 
HETATM   13  C16 UNL     1      22.991   7.695  50.271  1.00  0.00     0.050 A 
HETATM   14  C17 UNL     1      24.101   6.937  50.732  1.00  0.00    -0.005 A 
HETATM   15  C18 UNL     1      25.237   7.678  50.200  1.00  0.00     0.018 C 
HETATM   16  C19 UNL     1      26.341   7.384  49.491  1.00  0.00     0.055 C 
HETATM   17  H8  UNL     1      24.406   4.584  53.137  1.00  0.00     0.187 HD
ENDROOT
BRANCH   7  18
HETATM   18  C6  UNL     1      23.692   2.132  52.052  1.00  0.00     0.057 A 
HETATM   19  C7  UNL     1      24.517   1.296  52.737  1.00  0.00     0.034 A 
HETATM   20  C8  UNL     1      24.002   0.060  53.153  1.00  0.00     0.046 A 
HETATM   21  C9  UNL     1      22.695  -0.311  52.883  1.00  0.00     0.138 A 
HETATM   22  F1  UNL     1      22.169  -1.495  53.271  1.00  0.00    -0.204 F 
HETATM   23  C10 UNL     1      21.913   0.581  52.186  1.00  0.00     0.074 A 
HETATM   24 CL1  UNL     1      20.250   0.214  51.791  1.00  0.00    -0.081 Cl
HETATM   25  C11 UNL     1      22.394   1.804  51.765  1.00  0.00     0.058 A 
ENDBRANCH   7  18
BRANCH  12  26
HETATM   26  O2  UNL     1      20.597   8.327  49.916  1.00  0.00    -0.361 OA
HETATM   27  H11 UNL     1      20.514   8.541  48.921  1.00  0.00     0.217 HD
ENDBRANCH  12  26
TORSDOF 2
ENDMDL
MODEL 8
REMARK VINA RESULT:      -8.7      5.138      7.641
REMARK  2 active torsions:
REMARK  status: ('A' for Active; 'I' for Inactive)
REMARK    1  A    between atoms: N1_7  and  C6_8 
REMARK    2  A    between atoms: C15_20  and  O2_21 
ROOT
HETATM    1  O1  UNL     1      26.163   0.352  54.687  1.00  0.00    -0.289 OA
HETATM    2  C1  UNL     1      25.027   0.312  54.161  1.00  0.00     0.168 C 
HETATM    3  C2  UNL     1      24.257  -0.870  54.743  1.00  0.00     0.034 C 
HETATM    4  C3  UNL     1      23.117  -1.643  54.931  1.00  0.00     0.059 C 
HETATM    5  C4  UNL     1      21.984  -1.016  54.188  1.00  0.00     0.021 C 
HETATM    6  C5  UNL     1      20.670  -1.155  53.904  1.00  0.00     0.090 C 
HETATM    7  N1  UNL     1      19.663  -0.476  53.165  1.00  0.00    -0.271 N 
HETATM    8  N2  UNL     1      20.071   0.776  52.692  1.00  0.00    -0.294 N 
HETATM    9  C12 UNL     1      21.080   1.159  51.721  1.00  0.00     0.059 A 
HETATM   10  C13 UNL     1      20.265   0.997  50.623  1.00  0.00     0.034 A 
HETATM   11  C14 UNL     1      20.667   1.184  49.291  1.00  0.00     0.039 A 
HETATM   12  C15 UNL     1      21.958   1.560  49.002  1.00  0.00     0.066 A 
HETATM   13  C16 UNL     1      22.714   1.703  50.177  1.00  0.00     0.050 A 
HETATM   14  C17 UNL     1      22.388   1.533  51.549  1.00  0.00    -0.005 A 
HETATM   15  C18 UNL     1      23.653   1.814  52.215  1.00  0.00     0.018 C 
HETATM   16  C19 UNL     1      24.418   1.208  53.140  1.00  0.00     0.055 C 
HETATM   17  H8  UNL     1      19.434   1.419  53.186  1.00  0.00     0.187 HD
ENDROOT
BRANCH   7  18
HETATM   18  C6  UNL     1      18.463  -1.177  53.047  1.00  0.00     0.057 A 
HETATM   19  C7  UNL     1      17.552  -0.493  52.303  1.00  0.00     0.034 A 
HETATM   20  C8  UNL     1      16.298  -1.083  52.096  1.00  0.00     0.046 A 
HETATM   21  C9  UNL     1      15.980  -2.323  52.625  1.00  0.00     0.138 A 
HETATM   22  F1  UNL     1      14.779  -2.918  52.443  1.00  0.00    -0.204 F 
HETATM   23  C10 UNL     1      16.946  -2.962  53.369  1.00  0.00     0.074 A 
HETATM   24 CL1  UNL     1      16.651  -4.529  54.084  1.00  0.00    -0.081 Cl
HETATM   25  C11 UNL     1      18.189  -2.405  53.589  1.00  0.00     0.058 A 
ENDBRANCH   7  18
BRANCH  12  26
HETATM   26  O2  UNL     1      22.378   1.751  47.698  1.00  0.00    -0.361 OA
HETATM   27  H11 UNL     1      22.748   0.986  47.131  1.00  0.00     0.217 HD
ENDBRANCH  12  26
TORSDOF 2
ENDMDL
MODEL 9
REMARK VINA RESULT:      -8.5      8.028      9.871
REMARK  2 active torsions:
REMARK  status: ('A' for Active; 'I' for Inactive)
REMARK    1  A    between atoms: N1_7  and  C6_8 
REMARK    2  A    between atoms: C15_20  and  O2_21 
ROOT
HETATM    1  O1  UNL     1      24.116   6.951  48.826  1.00  0.00    -0.289 OA
HETATM    2  C1  UNL     1      25.351   7.047  48.645  1.00  0.00     0.168 C 
HETATM    3  C2  UNL     1      26.000   5.701  48.956  1.00  0.00     0.034 C 
HETATM    4  C3  UNL     1      27.067   4.811  48.990  1.00  0.00     0.059 C 
HETATM    5  C4  UNL     1      28.267   5.477  48.402  1.00  0.00     0.021 C 
HETATM    6  C5  UNL     1      29.571   5.286  48.105  1.00  0.00     0.090 C 
HETATM    7  N1  UNL     1      30.649   6.011  47.526  1.00  0.00    -0.271 N 
HETATM    8  N2  UNL     1      30.256   7.229  46.959  1.00  0.00    -0.294 N 
HETATM    9  C12 UNL     1      29.722   8.442  47.552  1.00  0.00     0.059 A 
HETATM   10  C13 UNL     1      30.950   8.975  47.875  1.00  0.00     0.034 A 
HETATM   11  C14 UNL     1      31.146  10.194  48.543  1.00  0.00     0.039 A 
HETATM   12  C15 UNL     1      30.067  10.956  48.926  1.00  0.00     0.066 A 
HETATM   13  C16 UNL     1      28.860  10.339  48.557  1.00  0.00     0.050 A 
HETATM   14  C17 UNL     1      28.578   9.119  47.885  1.00  0.00    -0.005 A 
HETATM   15  C18 UNL     1      27.121   9.095  47.866  1.00  0.00     0.018 C 
HETATM   16  C19 UNL     1      26.161   8.215  48.200  1.00  0.00     0.055 C 
HETATM   17  H8  UNL     1      30.475   7.090  45.962  1.00  0.00     0.187 HD
ENDROOT
BRANCH   7  18
HETATM   18  C6  UNL     1      31.889   5.382  47.630  1.00  0.00     0.057 A 
HETATM   19  C7  UNL     1      31.884   4.159  47.034  1.00  0.00     0.034 A 
HETATM   20  C8  UNL     1      33.070   3.413  47.056  1.00  0.00     0.046 A 
HETATM   21  C9  UNL     1      34.221   3.892  47.661  1.00  0.00     0.138 A 
HETATM   22  F1  UNL     1      35.379   3.197  47.699  1.00  0.00    -0.204 F 
HETATM   23  C10 UNL     1      34.158   5.136  48.247  1.00  0.00     0.074 A 
HETATM   24 CL1  UNL     1      35.550   5.837  49.038  1.00  0.00    -0.081 Cl
HETATM   25  C11 UNL     1      33.004   5.892  48.239  1.00  0.00     0.058 A 
ENDBRANCH   7  18
BRANCH  12  26
HETATM   26  O2  UNL     1      30.232  12.160  49.586  1.00  0.00    -0.361 OA
HETATM   27  H11 UNL     1      29.603  12.459  50.332  1.00  0.00     0.217 HD
ENDBRANCH  12  26
TORSDOF 2
ENDMDL
