MODEL 1
REMARK VINA RESULT:      -8.3      0.000      0.000
REMARK  4 active torsions:
REMARK  status: ('A' for Active; 'I' for Inactive)
REMARK    1  A    between atoms: N1_2  and  C2_3 
REMARK    2  A    between atoms: C3_5  and  N3_6 
REMARK    3  A    between atoms: N3_6  and  C4_7 
REMARK    4  A    between atoms: C17_23  and  O2_24 
ROOT
HETATM    1  C2  UNL     1      23.485   5.012  51.427  1.00  0.00     0.712 C 
HETATM    2  N2  UNL     1      23.079   4.164  52.308  1.00  0.00    -0.065 NA
HETATM    3  C3  UNL     1      23.260   2.720  52.195  1.00  0.00     0.214 C 
HETATM    4  C10 UNL     1      23.559   2.457  50.708  1.00  0.00     0.207 C 
HETATM    5  N4  UNL     1      22.766   3.389  49.987  1.00  0.00    -0.309 N 
HETATM    6  C11 UNL     1      22.028   3.038  48.862  1.00  0.00     0.147 C 
HETATM    7  C12 UNL     1      21.509   1.615  48.787  1.00  0.00     0.055 C 
HETATM    8  C13 UNL     1      20.723   1.383  50.061  1.00  0.00    -0.074 C 
HETATM    9  C14 UNL     1      19.778   2.331  50.283  1.00  0.00     0.003 C 
HETATM   10  C15 UNL     1      19.467   2.786  51.694  1.00  0.00     0.203 C 
HETATM   11  O1  UNL     1      20.632   2.773  52.540  1.00  0.00    -0.345 OA
HETATM   12  C16 UNL     1      21.869   2.088  52.336  1.00  0.00     0.129 C 
HETATM   13  C17 UNL     1      21.541   0.776  52.290  1.00  0.00     0.083 C 
HETATM   14  C19 UNL     1      21.052   0.217  50.968  1.00  0.00     0.101 C 
HETATM   15  N5  UNL     1      23.328   4.655  50.037  1.00  0.00    -0.133 N 
HETATM   16  H24 UNL     1      23.647   5.369  49.380  1.00  0.00     0.205 HD
ENDROOT
BRANCH   3  17
HETATM   17  N3  UNL     1      24.138   2.131  53.106  1.00  0.00    -0.355 N 
HETATM   18  H5  UNL     1      23.834   2.535  54.045  1.00  0.00     0.162 HD
BRANCH  17  19
HETATM   19  C4  UNL     1      25.217   1.243  53.212  1.00  0.00     0.031 A 
HETATM   20  C5  UNL     1      25.161  -0.113  52.971  1.00  0.00     0.029 A 
HETATM   21  C6  UNL     1      26.206  -1.001  53.076  1.00  0.00     0.004 A 
HETATM   22  C7  UNL     1      27.393  -0.437  53.459  1.00  0.00     0.019 A 
HETATM   23  C8  UNL     1      27.568   0.902  53.725  1.00  0.00     0.013 A 
HETATM   24 BR1  UNL     1      29.254   1.606  54.253  1.00  0.00    -0.051 Br
HETATM   25  C9  UNL     1      26.462   1.703  53.591  1.00  0.00     0.048 A 
ENDBRANCH  17  19
ENDBRANCH   3  17
BRANCH   1  26
HETATM   26  N1  UNL     1      24.057   6.240  51.865  1.00  0.00    -0.228 N 
HETATM   27  C1  UNL     1      24.135   7.442  51.058  1.00  0.00     0.165 C 
HETATM   28  H4  UNL     1      24.430   6.210  52.844  1.00  0.00     0.177 HD
ENDBRANCH   1  26
BRANCH  13  29
HETATM   29  O2  UNL     1      21.531  -0.266  53.202  1.00  0.00    -0.357 OA
HETATM   30  C18 UNL     1      21.340  -0.003  54.593  1.00  0.00     0.209 C 
ENDBRANCH  13  29
TORSDOF 4
ENDMDL
MODEL 2
REMARK VINA RESULT:      -8.1      8.772     11.130
REMARK  4 active torsions:
REMARK  status: ('A' for Active; 'I' for Inactive)
REMARK    1  A    between atoms: N1_2  and  C2_3 
REMARK    2  A    between atoms: C3_5  and  N3_6 
REMARK    3  A    between atoms: N3_6  and  C4_7 
REMARK    4  A    between atoms: C17_23  and  O2_24 
ROOT
HETATM    1  C2  UNL     1      32.275   7.709  47.578  1.00  0.00     0.712 C 
HETATM    2  N2  UNL     1      31.677   6.753  46.954  1.00  0.00    -0.065 NA
HETATM    3  C3  UNL     1      31.444   5.428  47.520  1.00  0.00     0.214 C 
HETATM    4  C10 UNL     1      32.421   5.309  48.705  1.00  0.00     0.207 C 
HETATM    5  N4  UNL     1      33.599   5.991  48.300  1.00  0.00    -0.309 N 
HETATM    6  C11 UNL     1      34.874   5.474  48.499  1.00  0.00     0.147 C 
HETATM    7  C12 UNL     1      35.019   3.965  48.507  1.00  0.00     0.055 C 
HETATM    8  C13 UNL     1      34.421   3.475  47.204  1.00  0.00    -0.074 C 
HETATM    9  C14 UNL     1      34.935   4.099  46.115  1.00  0.00     0.003 C 
HETATM   10  C15 UNL     1      34.055   4.402  44.919  1.00  0.00     0.203 C 
HETATM   11  O1  UNL     1      32.700   4.703  45.302  1.00  0.00    -0.345 OA
HETATM   12  C16 UNL     1      32.042   4.415  46.537  1.00  0.00     0.129 C 
HETATM   13  C17 UNL     1      32.070   3.066  46.643  1.00  0.00     0.083 C 
HETATM   14  C19 UNL     1      33.327   2.429  47.204  1.00  0.00     0.101 C 
HETATM   15  N5  UNL     1      33.425   7.364  48.380  1.00  0.00    -0.133 N 
HETATM   16  H24 UNL     1      33.874   8.159  48.837  1.00  0.00     0.205 HD
ENDROOT
BRANCH   3  17
HETATM   17  N3  UNL     1      30.116   5.094  47.791  1.00  0.00    -0.355 N 
HETATM   18  H5  UNL     1      30.109   4.029  47.734  1.00  0.00     0.162 HD
BRANCH  17  19
HETATM   19  C4  UNL     1      28.861   5.638  48.096  1.00  0.00     0.031 A 
HETATM   20  C5  UNL     1      28.510   6.963  47.954  1.00  0.00     0.029 A 
HETATM   21  C6  UNL     1      27.286   7.516  48.254  1.00  0.00     0.004 A 
HETATM   22  C7  UNL     1      26.365   6.627  48.737  1.00  0.00     0.019 A 
HETATM   23  C8  UNL     1      26.603   5.284  48.921  1.00  0.00     0.013 A 
HETATM   24 BR1  UNL     1      25.265   4.114  49.598  1.00  0.00    -0.051 Br
HETATM   25  C9  UNL     1      27.855   4.832  48.591  1.00  0.00     0.048 A 
ENDBRANCH  17  19
ENDBRANCH   3  17
BRANCH   1  26
HETATM   26  N1  UNL     1      31.779   9.036  47.443  1.00  0.00    -0.228 N 
HETATM   27  C1  UNL     1      31.034   9.741  48.467  1.00  0.00     0.165 C 
HETATM   28  H4  UNL     1      31.997   9.480  46.519  1.00  0.00     0.177 HD
ENDBRANCH   1  26
BRANCH  13  29
HETATM   29  O2  UNL     1      31.189   2.039  46.352  1.00  0.00    -0.357 OA
HETATM   30  C18 UNL     1      31.623   0.679  46.416  1.00  0.00     0.209 C 
ENDBRANCH  13  29
TORSDOF 4
ENDMDL
MODEL 3
REMARK VINA RESULT:      -8.0      3.062      5.113
REMARK  4 active torsions:
REMARK  status: ('A' for Active; 'I' for Inactive)
REMARK    1  A    between atoms: N1_2  and  C2_3 
REMARK    2  A    between atoms: C3_5  and  N3_6 
REMARK    3  A    between atoms: N3_6  and  C4_7 
REMARK    4  A    between atoms: C17_23  and  O2_24 
ROOT
HETATM    1  C2  UNL     1      25.986   2.175  53.331  1.00  0.00     0.712 C 
HETATM    2  N2  UNL     1      24.727   2.388  53.158  1.00  0.00    -0.065 NA
HETATM    3  C3  UNL     1      24.013   2.099  51.918  1.00  0.00     0.214 C 
HETATM    4  C10 UNL     1      25.101   1.973  50.836  1.00  0.00     0.207 C 
HETATM    5  N4  UNL     1      26.093   2.931  51.177  1.00  0.00    -0.309 N 
HETATM    6  C11 UNL     1      26.678   3.775  50.240  1.00  0.00     0.147 C 
HETATM    7  C12 UNL     1      25.837   4.173  49.042  1.00  0.00     0.055 C 
HETATM    8  C13 UNL     1      24.558   4.765  49.600  1.00  0.00    -0.074 C 
HETATM    9  C14 UNL     1      24.779   5.752  50.504  1.00  0.00     0.003 C 
HETATM   10  C15 UNL     1      23.861   5.915  51.698  1.00  0.00     0.203 C 
HETATM   11  O1  UNL     1      23.356   4.654  52.175  1.00  0.00    -0.345 OA
HETATM   12  C16 UNL     1      23.319   3.399  51.493  1.00  0.00     0.129 C 
HETATM   13  C17 UNL     1      22.548   3.615  50.402  1.00  0.00     0.083 C 
HETATM   14  C19 UNL     1      23.211   4.220  49.179  1.00  0.00     0.101 C 
HETATM   15  N5  UNL     1      26.870   2.479  52.232  1.00  0.00    -0.133 N 
HETATM   16  H24 UNL     1      27.858   2.311  52.427  1.00  0.00     0.205 HD
ENDROOT
BRANCH   3  17
HETATM   17  N3  UNL     1      23.080   1.061  51.966  1.00  0.00    -0.355 N 
HETATM   18  H5  UNL     1      22.834   0.897  50.941  1.00  0.00     0.162 HD
BRANCH  17  19
HETATM   19  C4  UNL     1      22.394   0.208  52.841  1.00  0.00     0.031 A 
HETATM   20  C5  UNL     1      22.961  -0.479  53.893  1.00  0.00     0.029 A 
HETATM   21  C6  UNL     1      22.306  -1.326  54.757  1.00  0.00     0.004 A 
HETATM   22  C7  UNL     1      20.968  -1.467  54.507  1.00  0.00     0.019 A 
HETATM   23  C8  UNL     1      20.296  -0.833  53.488  1.00  0.00     0.013 A 
HETATM   24 BR1  UNL     1      18.431  -1.085  53.209  1.00  0.00    -0.051 Br
HETATM   25  C9  UNL     1      21.041  -0.010  52.681  1.00  0.00     0.048 A 
ENDBRANCH  17  19
ENDBRANCH   3  17
BRANCH   1  26
HETATM   26  N1  UNL     1      26.431   1.660  54.582  1.00  0.00    -0.228 N 
HETATM   27  C1  UNL     1      26.779   0.273  54.820  1.00  0.00     0.165 C 
HETATM   28  H4  UNL     1      26.489   2.380  55.341  1.00  0.00     0.177 HD
ENDBRANCH   1  26
BRANCH  13  29
HETATM   29  O2  UNL     1      21.215   3.416  50.086  1.00  0.00    -0.357 OA
HETATM   30  C18 UNL     1      20.231   3.359  51.122  1.00  0.00     0.209 C 
ENDBRANCH  13  29
TORSDOF 4
ENDMDL
MODEL 4
REMARK VINA RESULT:      -7.8      2.571      4.673
REMARK  4 active torsions:
REMARK  status: ('A' for Active; 'I' for Inactive)
REMARK    1  A    between atoms: N1_2  and  C2_3 
REMARK    2  A    between atoms: C3_5  and  N3_6 
REMARK    3  A    between atoms: N3_6  and  C4_7 
REMARK    4  A    between atoms: C17_23  and  O2_24 
ROOT
HETATM    1  C2  UNL     1      22.844   1.305  52.208  1.00  0.00     0.712 C 
HETATM    2  N2  UNL     1      23.849   1.672  51.491  1.00  0.00    -0.065 NA
HETATM    3  C3  UNL     1      24.563   2.933  51.670  1.00  0.00     0.214 C 
HETATM    4  C10 UNL     1      23.614   3.830  52.486  1.00  0.00     0.207 C 
HETATM    5  N4  UNL     1      22.305   3.519  52.031  1.00  0.00    -0.309 N 
HETATM    6  C11 UNL     1      21.355   4.494  51.746  1.00  0.00     0.147 C 
HETATM    7  C12 UNL     1      21.863   5.838  51.262  1.00  0.00     0.055 C 
HETATM    8  C13 UNL     1      22.740   5.553  50.061  1.00  0.00    -0.074 C 
HETATM    9  C14 UNL     1      22.123   4.796  49.119  1.00  0.00     0.003 C 
HETATM   10  C15 UNL     1      22.908   3.773  48.324  1.00  0.00     0.203 C 
HETATM   11  O1  UNL     1      23.962   3.172  49.099  1.00  0.00    -0.345 OA
HETATM   12  C16 UNL     1      24.552   3.645  50.312  1.00  0.00     0.129 C 
HETATM   13  C17 UNL     1      25.086   4.847  49.996  1.00  0.00     0.083 C 
HETATM   14  C19 UNL     1      24.167   6.054  50.013  1.00  0.00     0.101 C 
HETATM   15  N5  UNL     1      21.873   2.314  52.561  1.00  0.00    -0.133 N 
HETATM   16  H24 UNL     1      21.087   1.967  53.112  1.00  0.00     0.205 HD
ENDROOT
BRANCH   3  17
HETATM   17  N3  UNL     1      25.873   2.843  52.144  1.00  0.00    -0.355 N 
HETATM   18  H5  UNL     1      26.216   3.853  52.125  1.00  0.00     0.162 HD
BRANCH  17  19
HETATM   19  C4  UNL     1      26.839   1.941  52.610  1.00  0.00     0.031 A 
HETATM   20  C5  UNL     1      28.006   2.286  53.258  1.00  0.00     0.029 A 
HETATM   21  C6  UNL     1      28.968   1.417  53.717  1.00  0.00     0.004 A 
HETATM   22  C7  UNL     1      28.696   0.096  53.484  1.00  0.00     0.019 A 
HETATM   23  C8  UNL     1      27.566  -0.365  52.849  1.00  0.00     0.013 A 
HETATM   24 BR1  UNL     1      27.264  -2.221  52.565  1.00  0.00    -0.051 Br
HETATM   25  C9  UNL     1      26.668   0.584  52.429  1.00  0.00     0.048 A 
ENDBRANCH  17  19
ENDBRANCH   3  17
BRANCH   1  26
HETATM   26  N1  UNL     1      22.743  -0.059  52.605  1.00  0.00    -0.228 N 
HETATM   27  C1  UNL     1      23.445  -0.638  53.733  1.00  0.00     0.165 C 
HETATM   28  H4  UNL     1      22.105  -0.631  52.002  1.00  0.00     0.177 HD
ENDBRANCH   1  26
BRANCH  13  29
HETATM   29  O2  UNL     1      26.344   5.299  49.633  1.00  0.00    -0.357 OA
HETATM   30  C18 UNL     1      27.246   4.434  48.940  1.00  0.00     0.209 C 
ENDBRANCH  13  29
TORSDOF 4
ENDMDL
MODEL 5
REMARK VINA RESULT:      -7.8      3.023      5.990
REMARK  4 active torsions:
REMARK  status: ('A' for Active; 'I' for Inactive)
REMARK    1  A    between atoms: N1_2  and  C2_3 
REMARK    2  A    between atoms: C3_5  and  N3_6 
REMARK    3  A    between atoms: N3_6  and  C4_7 
REMARK    4  A    between atoms: C17_23  and  O2_24 
ROOT
HETATM    1  C2  UNL     1      26.237   2.656  50.863  1.00  0.00     0.712 C 
HETATM    2  N2  UNL     1      25.418   1.773  51.320  1.00  0.00    -0.065 NA
HETATM    3  C3  UNL     1      25.044   1.657  52.727  1.00  0.00     0.214 C 
HETATM    4  C10 UNL     1      26.128   2.425  53.505  1.00  0.00     0.207 C 
HETATM    5  N4  UNL     1      27.342   2.187  52.808  1.00  0.00    -0.309 N 
HETATM    6  C11 UNL     1      28.531   1.865  53.453  1.00  0.00     0.147 C 
HETATM    7  C12 UNL     1      28.427   1.111  54.764  1.00  0.00     0.055 C 
HETATM    8  C13 UNL     1      27.600  -0.125  54.478  1.00  0.00    -0.074 C 
HETATM    9  C14 UNL     1      28.069  -0.849  53.431  1.00  0.00     0.003 C 
HETATM   10  C15 UNL     1      27.108  -1.556  52.497  1.00  0.00     0.203 C 
HETATM   11  O1  UNL     1      25.879  -0.827  52.326  1.00  0.00    -0.345 OA
HETATM   12  C16 UNL     1      25.342   0.212  53.146  1.00  0.00     0.129 C 
HETATM   13  C17 UNL     1      25.163  -0.357  54.361  1.00  0.00     0.083 C 
HETATM   14  C19 UNL     1      26.359  -0.426  55.291  1.00  0.00     0.101 C 
HETATM   15  N5  UNL     1      27.405   2.955  51.656  1.00  0.00    -0.133 N 
HETATM   16  H24 UNL     1      28.031   3.647  51.240  1.00  0.00     0.205 HD
ENDROOT
BRANCH   3  17
HETATM   17  N3  UNL     1      23.723   1.977  53.046  1.00  0.00    -0.355 N 
HETATM   18  H5  UNL     1      23.592   1.556  54.018  1.00  0.00     0.162 HD
BRANCH  17  19
HETATM   19  C4  UNL     1      22.576   2.622  52.565  1.00  0.00     0.031 A 
HETATM   20  C5  UNL     1      21.312   2.073  52.516  1.00  0.00     0.029 A 
HETATM   21  C6  UNL     1      20.177   2.688  52.042  1.00  0.00     0.004 A 
HETATM   22  C7  UNL     1      20.372   3.963  51.585  1.00  0.00     0.019 A 
HETATM   23  C8  UNL     1      21.585   4.612  51.585  1.00  0.00     0.013 A 
HETATM   24 BR1  UNL     1      21.769   6.389  50.931  1.00  0.00    -0.051 Br
HETATM   25  C9  UNL     1      22.656   3.911  52.079  1.00  0.00     0.048 A 
ENDBRANCH  17  19
ENDBRANCH   3  17
BRANCH   1  26
HETATM   26  N1  UNL     1      25.950   3.279  49.615  1.00  0.00    -0.228 N 
HETATM   27  C1  UNL     1      26.265   4.658  49.296  1.00  0.00     0.165 C 
HETATM   28  H4  UNL     1      25.480   2.648  48.923  1.00  0.00     0.177 HD
ENDBRANCH   1  26
BRANCH  13  29
HETATM   29  O2  UNL     1      24.096  -0.938  55.026  1.00  0.00    -0.357 OA
HETATM   30  C18 UNL     1      22.807  -0.990  54.411  1.00  0.00     0.209 C 
ENDBRANCH  13  29
TORSDOF 4
ENDMDL
MODEL 6
REMARK VINA RESULT:      -7.5      2.244      4.167
REMARK  4 active torsions:
REMARK  status: ('A' for Active; 'I' for Inactive)
REMARK    1  A    between atoms: N1_2  and  C2_3 
REMARK    2  A    between atoms: C3_5  and  N3_6 
REMARK    3  A    between atoms: N3_6  and  C4_7 
REMARK    4  A    between atoms: C17_23  and  O2_24 
ROOT
HETATM    1  C2  UNL     1      20.923   2.300  52.402  1.00  0.00     0.712 C 
HETATM    2  N2  UNL     1      22.091   2.001  51.946  1.00  0.00    -0.065 NA
HETATM    3  C3  UNL     1      23.255   2.876  52.044  1.00  0.00     0.214 C 
HETATM    4  C10 UNL     1      22.691   4.280  52.330  1.00  0.00     0.207 C 
HETATM    5  N4  UNL     1      21.479   4.365  51.594  1.00  0.00    -0.309 N 
HETATM    6  C11 UNL     1      21.134   5.480  50.839  1.00  0.00     0.147 C 
HETATM    7  C12 UNL     1      22.266   6.292  50.240  1.00  0.00     0.055 C 
HETATM    8  C13 UNL     1      23.107   5.320  49.439  1.00  0.00    -0.074 C 
HETATM    9  C14 UNL     1      22.382   4.596  48.549  1.00  0.00     0.003 C 
HETATM   10  C15 UNL     1      22.743   3.153  48.262  1.00  0.00     0.203 C 
HETATM   11  O1  UNL     1      23.266   2.481  49.422  1.00  0.00    -0.345 OA
HETATM   12  C16 UNL     1      23.793   3.057  50.619  1.00  0.00     0.129 C 
HETATM   13  C17 UNL     1      24.857   3.790  50.216  1.00  0.00     0.083 C 
HETATM   14  C19 UNL     1      24.592   5.191  49.699  1.00  0.00     0.101 C 
HETATM   15  N5  UNL     1      20.469   3.660  52.227  1.00  0.00    -0.133 N 
HETATM   16  H24 UNL     1      19.530   3.840  52.588  1.00  0.00     0.205 HD
ENDROOT
BRANCH   3  17
HETATM   17  N3  UNL     1      24.284   2.450  52.886  1.00  0.00    -0.355 N 
HETATM   18  H5  UNL     1      24.305   3.193  53.651  1.00  0.00     0.162 HD
BRANCH  17  19
HETATM   19  C4  UNL     1      25.241   1.443  53.067  1.00  0.00     0.031 A 
HETATM   20  C5  UNL     1      25.027   0.095  52.877  1.00  0.00     0.029 A 
HETATM   21  C6  UNL     1      25.951  -0.908  53.056  1.00  0.00     0.004 A 
HETATM   22  C7  UNL     1      27.185  -0.476  53.463  1.00  0.00     0.019 A 
HETATM   23  C8  UNL     1      27.513   0.842  53.685  1.00  0.00     0.013 A 
HETATM   24 BR1  UNL     1      29.254   1.358  54.250  1.00  0.00    -0.051 Br
HETATM   25  C9  UNL     1      26.519   1.765  53.477  1.00  0.00     0.048 A 
ENDBRANCH  17  19
ENDBRANCH   3  17
BRANCH   1  26
HETATM   26  N1  UNL     1      20.154   1.288  53.042  1.00  0.00    -0.228 N 
HETATM   27  C1  UNL     1      20.701   0.055  53.573  1.00  0.00     0.165 C 
HETATM   28  H4  UNL     1      19.131   1.507  53.103  1.00  0.00     0.177 HD
ENDBRANCH   1  26
BRANCH  13  29
HETATM   29  O2  UNL     1      26.224   3.581  50.145  1.00  0.00    -0.357 OA
HETATM   30  C18 UNL     1      27.005   4.264  49.162  1.00  0.00     0.209 C 
ENDBRANCH  13  29
TORSDOF 4
ENDMDL
MODEL 7
REMARK VINA RESULT:      -7.5      3.000      5.393
REMARK  4 active torsions:
REMARK  status: ('A' for Active; 'I' for Inactive)
REMARK    1  A    between atoms: N1_2  and  C2_3 
REMARK    2  A    between atoms: C3_5  and  N3_6 
REMARK    3  A    between atoms: N3_6  and  C4_7 
REMARK    4  A    between atoms: C17_23  and  O2_24 
ROOT
HETATM    1  C2  UNL     1      25.081   0.821  52.161  1.00  0.00     0.712 C 
HETATM    2  N2  UNL     1      24.854   1.618  51.175  1.00  0.00    -0.065 NA
HETATM    3  C3  UNL     1      24.130   2.880  51.295  1.00  0.00     0.214 C 
HETATM    4  C10 UNL     1      23.356   2.786  52.623  1.00  0.00     0.207 C 
HETATM    5  N4  UNL     1      22.954   1.429  52.737  1.00  0.00    -0.309 N 
HETATM    6  C11 UNL     1      21.673   1.053  53.127  1.00  0.00     0.147 C 
HETATM    7  C12 UNL     1      20.537   1.995  52.780  1.00  0.00     0.055 C 
HETATM    8  C13 UNL     1      20.616   2.223  51.285  1.00  0.00    -0.074 C 
HETATM    9  C14 UNL     1      20.647   1.069  50.572  1.00  0.00     0.003 C 
HETATM   10  C15 UNL     1      21.475   0.974  49.306  1.00  0.00     0.203 C 
HETATM   11  O1  UNL     1      22.676   1.762  49.380  1.00  0.00    -0.345 OA
HETATM   12  C16 UNL     1      22.983   2.831  50.278  1.00  0.00     0.129 C 
HETATM   13  C17 UNL     1      22.043   3.774  50.034  1.00  0.00     0.083 C 
HETATM   14  C19 UNL     1      20.700   3.626  50.723  1.00  0.00     0.101 C 
HETATM   15  N5  UNL     1      24.020   0.630  53.121  1.00  0.00    -0.133 N 
HETATM   16  H24 UNL     1      24.243  -0.025  53.871  1.00  0.00     0.205 HD
ENDROOT
BRANCH   3  17
HETATM   17  N3  UNL     1      24.876   4.045  51.107  1.00  0.00    -0.355 N 
HETATM   18  H5  UNL     1      24.739   4.580  52.019  1.00  0.00     0.162 HD
BRANCH  17  19
HETATM   19  C4  UNL     1      25.697   4.717  50.191  1.00  0.00     0.031 A 
HETATM   20  C5  UNL     1      26.773   4.164  49.530  1.00  0.00     0.029 A 
HETATM   21  C6  UNL     1      27.594   4.808  48.634  1.00  0.00     0.004 A 
HETATM   22  C7  UNL     1      27.272   6.120  48.411  1.00  0.00     0.019 A 
HETATM   23  C8  UNL     1      26.223   6.775  49.013  1.00  0.00     0.013 A 
HETATM   24 BR1  UNL     1      25.843   8.603  48.647  1.00  0.00    -0.051 Br
HETATM   25  C9  UNL     1      25.465   6.043  49.891  1.00  0.00     0.048 A 
ENDBRANCH  17  19
ENDBRANCH   3  17
BRANCH   1  26
HETATM   26  N1  UNL     1      26.347   0.177  52.248  1.00  0.00    -0.228 N 
HETATM   27  C1  UNL     1      26.620  -0.988  53.067  1.00  0.00     0.165 C 
HETATM   28  H4  UNL     1      27.091   0.621  51.658  1.00  0.00     0.177 HD
ENDBRANCH   1  26
BRANCH  13  29
HETATM   29  O2  UNL     1      21.980   4.922  49.262  1.00  0.00    -0.357 OA
HETATM   30  C18 UNL     1      22.498   4.922  47.930  1.00  0.00     0.209 C 
ENDBRANCH  13  29
TORSDOF 4
ENDMDL
MODEL 8
REMARK VINA RESULT:      -7.4      2.748      4.783
REMARK  4 active torsions:
REMARK  status: ('A' for Active; 'I' for Inactive)
REMARK    1  A    between atoms: N1_2  and  C2_3 
REMARK    2  A    between atoms: C3_5  and  N3_6 
REMARK    3  A    between atoms: N3_6  and  C4_7 
REMARK    4  A    between atoms: C17_23  and  O2_24 
ROOT
HETATM    1  C2  UNL     1      21.553   3.409  52.044  1.00  0.00     0.712 C 
HETATM    2  N2  UNL     1      22.594   3.013  51.395  1.00  0.00    -0.065 NA
HETATM    3  C3  UNL     1      23.896   3.671  51.459  1.00  0.00     0.214 C 
HETATM    4  C10 UNL     1      23.618   5.079  52.020  1.00  0.00     0.207 C 
HETATM    5  N4  UNL     1      22.365   5.468  51.475  1.00  0.00    -0.309 N 
HETATM    6  C11 UNL     1      22.136   6.732  50.942  1.00  0.00     0.147 C 
HETATM    7  C12 UNL     1      23.318   7.448  50.319  1.00  0.00     0.055 C 
HETATM    8  C13 UNL     1      23.886   6.504  49.279  1.00  0.00    -0.074 C 
HETATM    9  C14 UNL     1      22.953   6.057  48.401  1.00  0.00     0.003 C 
HETATM   10  C15 UNL     1      23.025   4.643  47.862  1.00  0.00     0.203 C 
HETATM   11  O1  UNL     1      23.549   3.716  48.831  1.00  0.00    -0.345 OA
HETATM   12  C16 UNL     1      24.297   3.999  50.015  1.00  0.00     0.129 C 
HETATM   13  C17 UNL     1      25.420   4.617  49.582  1.00  0.00     0.083 C 
HETATM   14  C19 UNL     1      25.346   6.108  49.314  1.00  0.00     0.101 C 
HETATM   15  N5  UNL     1      21.324   4.832  52.131  1.00  0.00    -0.133 N 
HETATM   16  H24 UNL     1      20.477   5.091  52.638  1.00  0.00     0.205 HD
ENDROOT
BRANCH   3  17
HETATM   17  N3  UNL     1      24.922   2.960  52.083  1.00  0.00    -0.355 N 
HETATM   18  H5  UNL     1      25.591   3.722  52.412  1.00  0.00     0.162 HD
BRANCH  17  19
HETATM   19  C4  UNL     1      25.353   1.667  52.411  1.00  0.00     0.031 A 
HETATM   20  C5  UNL     1      26.364   0.978  51.775  1.00  0.00     0.029 A 
HETATM   21  C6  UNL     1      26.797  -0.292  52.077  1.00  0.00     0.004 A 
HETATM   22  C7  UNL     1      26.130  -0.886  53.114  1.00  0.00     0.019 A 
HETATM   23  C8  UNL     1      25.107  -0.296  53.821  1.00  0.00     0.013 A 
HETATM   24 BR1  UNL     1      24.231  -1.193  55.251  1.00  0.00    -0.051 Br
HETATM   25  C9  UNL     1      24.751   0.973  53.440  1.00  0.00     0.048 A 
ENDBRANCH  17  19
ENDBRANCH   3  17
BRANCH   1  26
HETATM   26  N1  UNL     1      20.696   2.435  52.630  1.00  0.00    -0.228 N 
HETATM   27  C1  UNL     1      21.096   1.080  52.955  1.00  0.00     0.165 C 
HETATM   28  H4  UNL     1      19.724   2.780  52.814  1.00  0.00     0.177 HD
ENDBRANCH   1  26
BRANCH  13  29
HETATM   29  O2  UNL     1      26.714   4.216  49.296  1.00  0.00    -0.357 OA
HETATM   30  C18 UNL     1      27.596   5.087  48.585  1.00  0.00     0.209 C 
ENDBRANCH  13  29
TORSDOF 4
ENDMDL
MODEL 9
REMARK VINA RESULT:      -7.3      9.176     11.978
REMARK  4 active torsions:
REMARK  status: ('A' for Active; 'I' for Inactive)
REMARK    1  A    between atoms: N1_2  and  C2_3 
REMARK    2  A    between atoms: C3_5  and  N3_6 
REMARK    3  A    between atoms: N3_6  and  C4_7 
REMARK    4  A    between atoms: C17_23  and  O2_24 
ROOT
HETATM    1  C2  UNL     1      28.890   7.835  48.724  1.00  0.00     0.712 C 
HETATM    2  N2  UNL     1      30.005   7.632  48.111  1.00  0.00    -0.065 NA
HETATM    3  C3  UNL     1      31.279   8.217  48.518  1.00  0.00     0.214 C 
HETATM    4  C10 UNL     1      30.915   9.398  49.436  1.00  0.00     0.207 C 
HETATM    5  N4  UNL     1      29.727   9.955  48.891  1.00  0.00    -0.309 N 
HETATM    6  C11 UNL     1      29.540  11.325  48.737  1.00  0.00     0.147 C 
HETATM    7  C12 UNL     1      30.774  12.172  48.495  1.00  0.00     0.055 C 
HETATM    8  C13 UNL     1      31.473  11.570  47.294  1.00  0.00    -0.074 C 
HETATM    9  C14 UNL     1      30.656  11.422  46.221  1.00  0.00     0.003 C 
HETATM   10  C15 UNL     1      30.813  10.231  45.298  1.00  0.00     0.203 C 
HETATM   11  O1  UNL     1      31.238   9.049  46.001  1.00  0.00    -0.345 OA
HETATM   12  C16 UNL     1      31.839   8.953  47.293  1.00  0.00     0.129 C 
HETATM   13  C17 UNL     1      32.994   9.650  47.196  1.00  0.00     0.083 C 
HETATM   14  C19 UNL     1      32.926  11.155  47.377  1.00  0.00     0.101 C 
HETATM   15  N5  UNL     1      28.628   9.172  49.204  1.00  0.00    -0.133 N 
HETATM   16  H24 UNL     1      27.724   9.284  49.664  1.00  0.00     0.205 HD
ENDROOT
BRANCH   3  17
HETATM   17  N3  UNL     1      32.239   7.333  49.015  1.00  0.00    -0.355 N 
HETATM   18  H5  UNL     1      32.320   7.604  50.043  1.00  0.00     0.162 HD
BRANCH  17  19
HETATM   19  C4  UNL     1      33.082   6.273  48.655  1.00  0.00     0.031 A 
HETATM   20  C5  UNL     1      34.452   6.254  48.814  1.00  0.00     0.029 A 
HETATM   21  C6  UNL     1      35.296   5.227  48.462  1.00  0.00     0.004 A 
HETATM   22  C7  UNL     1      34.671   4.145  47.904  1.00  0.00     0.019 A 
HETATM   23  C8  UNL     1      33.314   4.053  47.696  1.00  0.00     0.013 A 
HETATM   24 BR1  UNL     1      32.524   2.510  46.913  1.00  0.00    -0.051 Br
HETATM   25  C9  UNL     1      32.560   5.132  48.083  1.00  0.00     0.048 A 
ENDBRANCH  17  19
ENDBRANCH   3  17
BRANCH   1  26
HETATM   26  N1  UNL     1      27.988   6.747  48.891  1.00  0.00    -0.228 N 
HETATM   27  C1  UNL     1      28.233   5.399  48.417  1.00  0.00     0.165 C 
HETATM   28  H4  UNL     1      27.105   7.000  49.396  1.00  0.00     0.177 HD
ENDBRANCH   1  26
BRANCH  13  29
HETATM   29  O2  UNL     1      34.319   9.329  46.954  1.00  0.00    -0.357 OA
HETATM   30  C18 UNL     1      34.829   9.337  45.619  1.00  0.00     0.209 C 
ENDBRANCH  13  29
TORSDOF 4
ENDMDL
