MODEL 1
REMARK VINA RESULT:      -8.0      0.000      0.000
REMARK  4 active torsions:
REMARK  status: ('A' for Active; 'I' for Inactive)
REMARK    1  A    between atoms: C2_2  and  O1_3 
REMARK    2  A    between atoms: C3_4  and  C4_5 
REMARK    3  A    between atoms: C8_10  and  N2_11 
REMARK    4  A    between atoms: N2_11  and  C9_12 
ROOT
HETATM    1  C4  UNL     1      26.086   7.679  49.735  1.00  0.00     0.036 C 
HETATM    2  C5  UNL     1      25.722   6.421  49.537  1.00  0.00     0.064 C 
HETATM    3  C6  UNL     1      26.522   5.419  48.808  1.00  0.00     0.179 C 
HETATM    4  N1  UNL     1      26.773   4.307  49.742  1.00  0.00    -0.405 N 
HETATM    5  C7  UNL     1      25.792   3.363  50.251  1.00  0.00     0.250 C 
HETATM    6  C8  UNL     1      24.699   3.414  51.062  1.00  0.00     0.125 C 
HETATM    7  N3  UNL     1      23.631   3.890  51.936  1.00  0.00    -0.275 NA
HETATM    8  C15 UNL     1      23.480   5.164  52.085  1.00  0.00     0.112 C 
HETATM    9  C16 UNL     1      24.261   6.262  51.477  1.00  0.00     0.221 C 
HETATM   10  O2  UNL     1      24.484   6.049  50.075  1.00  0.00    -0.349 OA
HETATM   11  H9  UNL     1      27.755   4.137  50.099  1.00  0.00     0.154 HD
ENDROOT
BRANCH   6  12
HETATM   12  N2  UNL     1      24.272   2.056  51.075  1.00  0.00    -0.365 N 
HETATM   13  H11 UNL     1      23.836   1.675  50.183  1.00  0.00     0.162 HD
BRANCH  12  14
HETATM   14  C9  UNL     1      24.393   1.195  52.188  1.00  0.00     0.031 A 
HETATM   15  C10 UNL     1      23.348   0.427  52.627  1.00  0.00     0.032 A 
HETATM   16  C11 UNL     1      23.470  -0.414  53.720  1.00  0.00     0.046 A 
HETATM   17  C12 UNL     1      24.648  -0.529  54.431  1.00  0.00     0.138 A 
HETATM   18  F1  UNL     1      24.865  -1.316  55.499  1.00  0.00    -0.204 F 
HETATM   19  C13 UNL     1      25.715   0.253  53.984  1.00  0.00     0.074 A 
HETATM   20 CL1  UNL     1      27.270   0.203  54.797  1.00  0.00    -0.081 Cl
HETATM   21  C14 UNL     1      25.558   1.087  52.885  1.00  0.00     0.056 A 
ENDBRANCH  12  14
ENDBRANCH   6  12
BRANCH   1  22
HETATM   22  C3  UNL     1      27.333   8.286  49.268  1.00  0.00     0.034 C 
HETATM   23  C2  UNL     1      27.997   9.212  49.912  1.00  0.00     0.039 C 
HETATM   24  C1  UNL     1      29.254   9.821  49.437  1.00  0.00     0.076 C 
BRANCH  23  25
HETATM   25  O1  UNL     1      27.452   9.630  51.131  1.00  0.00    -0.365 OA
HETATM   26  H4  UNL     1      26.478   9.406  51.327  1.00  0.00     0.217 HD
ENDBRANCH  23  25
ENDBRANCH   1  22
TORSDOF 4
ENDMDL
MODEL 2
REMARK VINA RESULT:      -7.6      2.459      2.891
REMARK  4 active torsions:
REMARK  status: ('A' for Active; 'I' for Inactive)
REMARK    1  A    between atoms: C2_2  and  O1_3 
REMARK    2  A    between atoms: C3_4  and  C4_5 
REMARK    3  A    between atoms: C8_10  and  N2_11 
REMARK    4  A    between atoms: N2_11  and  C9_12 
ROOT
HETATM    1  C4  UNL     1      25.905   7.485  49.771  1.00  0.00     0.036 C 
HETATM    2  C5  UNL     1      25.628   6.191  49.699  1.00  0.00     0.064 C 
HETATM    3  C6  UNL     1      26.510   5.175  49.095  1.00  0.00     0.179 C 
HETATM    4  N1  UNL     1      26.806   4.185  50.146  1.00  0.00    -0.405 N 
HETATM    5  C7  UNL     1      25.873   3.235  50.731  1.00  0.00     0.250 C 
HETATM    6  C8  UNL     1      24.758   3.298  51.509  1.00  0.00     0.125 C 
HETATM    7  N3  UNL     1      23.638   3.789  52.307  1.00  0.00    -0.275 NA
HETATM    8  C15 UNL     1      23.403   5.059  52.318  1.00  0.00     0.112 C 
HETATM    9  C16 UNL     1      24.128   6.137  51.614  1.00  0.00     0.221 C 
HETATM   10  O2  UNL     1      24.401   5.796  50.247  1.00  0.00    -0.349 OA
HETATM   11  H9  UNL     1      27.786   4.118  50.538  1.00  0.00     0.154 HD
ENDROOT
BRANCH   6  12
HETATM   12  N2  UNL     1      24.418   1.923  51.656  1.00  0.00    -0.365 N 
HETATM   13  H11 UNL     1      25.206   1.251  51.899  1.00  0.00     0.162 HD
BRANCH  12  14
HETATM   14  C9  UNL     1      23.113   1.405  51.503  1.00  0.00     0.031 A 
HETATM   15  C10 UNL     1      22.433   1.494  50.319  1.00  0.00     0.032 A 
HETATM   16  C11 UNL     1      21.152   0.987  50.174  1.00  0.00     0.046 A 
HETATM   17  C12 UNL     1      20.487   0.363  51.211  1.00  0.00     0.138 A 
HETATM   18  F1  UNL     1      19.250  -0.160  51.168  1.00  0.00    -0.204 F 
HETATM   19  C13 UNL     1      21.180   0.271  52.419  1.00  0.00     0.074 A 
HETATM   20 CL1  UNL     1      20.451  -0.498  53.818  1.00  0.00    -0.081 Cl
HETATM   21  C14 UNL     1      22.463   0.791  52.531  1.00  0.00     0.056 A 
ENDBRANCH  12  14
ENDBRANCH   6  12
BRANCH   1  22
HETATM   22  C3  UNL     1      27.123   8.121  49.268  1.00  0.00     0.034 C 
HETATM   23  C2  UNL     1      27.751   9.102  49.866  1.00  0.00     0.039 C 
HETATM   24  C1  UNL     1      28.979   9.741  49.355  1.00  0.00     0.076 C 
BRANCH  23  25
HETATM   25  O1  UNL     1      27.196   9.551  51.069  1.00  0.00    -0.365 OA
HETATM   26  H4  UNL     1      27.808   9.650  51.877  1.00  0.00     0.217 HD
ENDBRANCH  23  25
ENDBRANCH   1  22
TORSDOF 4
ENDMDL
MODEL 3
REMARK VINA RESULT:      -7.5      1.906      2.086
REMARK  4 active torsions:
REMARK  status: ('A' for Active; 'I' for Inactive)
REMARK    1  A    between atoms: C2_2  and  O1_3 
REMARK    2  A    between atoms: C3_4  and  C4_5 
REMARK    3  A    between atoms: C8_10  and  N2_11 
REMARK    4  A    between atoms: N2_11  and  C9_12 
ROOT
HETATM    1  C4  UNL     1      25.433   7.580  49.305  1.00  0.00     0.036 C 
HETATM    2  C5  UNL     1      25.524   6.261  49.235  1.00  0.00     0.064 C 
HETATM    3  C6  UNL     1      26.649   5.527  48.626  1.00  0.00     0.179 C 
HETATM    4  N1  UNL     1      27.215   4.660  49.676  1.00  0.00    -0.405 N 
HETATM    5  C7  UNL     1      26.585   3.491  50.268  1.00  0.00     0.250 C 
HETATM    6  C8  UNL     1      25.501   3.244  51.054  1.00  0.00     0.125 C 
HETATM    7  N3  UNL     1      24.294   3.409  51.859  1.00  0.00    -0.275 NA
HETATM    8  C15 UNL     1      23.716   4.564  51.871  1.00  0.00     0.112 C 
HETATM    9  C16 UNL     1      24.110   5.799  51.161  1.00  0.00     0.221 C 
HETATM   10  O2  UNL     1      24.459   5.543  49.792  1.00  0.00    -0.349 OA
HETATM   11  H9  UNL     1      28.177   4.868  50.061  1.00  0.00     0.154 HD
ENDROOT
BRANCH   6  12
HETATM   12  N2  UNL     1      25.556   1.830  51.205  1.00  0.00    -0.365 N 
HETATM   13  H11 UNL     1      24.830   1.256  50.679  1.00  0.00     0.162 HD
BRANCH  12  14
HETATM   14  C9  UNL     1      26.506   1.150  51.998  1.00  0.00     0.031 A 
HETATM   15  C10 UNL     1      26.562  -0.217  52.050  1.00  0.00     0.032 A 
HETATM   16  C11 UNL     1      27.494  -0.880  52.832  1.00  0.00     0.046 A 
HETATM   17  C12 UNL     1      28.419  -0.204  53.603  1.00  0.00     0.138 A 
HETATM   18  F1  UNL     1      29.359  -0.755  54.390  1.00  0.00    -0.204 F 
HETATM   19  C13 UNL     1      28.363   1.190  53.551  1.00  0.00     0.074 A 
HETATM   20 CL1  UNL     1      29.481   2.170  54.483  1.00  0.00    -0.081 Cl
HETATM   21  C14 UNL     1      27.415   1.822  52.757  1.00  0.00     0.056 A 
ENDBRANCH  12  14
ENDBRANCH   6  12
BRANCH   1  22
HETATM   22  C3  UNL     1      26.424   8.528  48.792  1.00  0.00     0.034 C 
HETATM   23  C2  UNL     1      27.273   9.191  49.537  1.00  0.00     0.039 C 
HETATM   24  C1  UNL     1      28.271  10.146  49.016  1.00  0.00     0.076 C 
BRANCH  23  25
HETATM   25  O1  UNL     1      27.205   8.956  50.914  1.00  0.00    -0.365 OA
HETATM   26  H4  UNL     1      27.155   7.992  51.238  1.00  0.00     0.217 HD
ENDBRANCH  23  25
ENDBRANCH   1  22
TORSDOF 4
ENDMDL
MODEL 4
REMARK VINA RESULT:      -7.2      3.413      3.962
REMARK  4 active torsions:
REMARK  status: ('A' for Active; 'I' for Inactive)
REMARK    1  A    between atoms: C2_2  and  O1_3 
REMARK    2  A    between atoms: C3_4  and  C4_5 
REMARK    3  A    between atoms: C8_10  and  N2_11 
REMARK    4  A    between atoms: N2_11  and  C9_12 
ROOT
HETATM    1  C4  UNL     1      26.980   5.522  48.727  1.00  0.00     0.036 C 
HETATM    2  C5  UNL     1      26.209   4.601  49.286  1.00  0.00     0.064 C 
HETATM    3  C6  UNL     1      26.624   3.212  49.562  1.00  0.00     0.179 C 
HETATM    4  N1  UNL     1      26.475   3.000  51.013  1.00  0.00    -0.405 N 
HETATM    5  C7  UNL     1      25.227   2.927  51.755  1.00  0.00     0.250 C 
HETATM    6  C8  UNL     1      24.213   3.779  52.069  1.00  0.00     0.125 C 
HETATM    7  N3  UNL     1      23.366   4.964  52.170  1.00  0.00    -0.275 NA
HETATM    8  C15 UNL     1      23.659   5.992  51.443  1.00  0.00     0.112 C 
HETATM    9  C16 UNL     1      24.771   6.156  50.484  1.00  0.00     0.221 C 
HETATM   10  O2  UNL     1      24.915   5.011  49.630  1.00  0.00    -0.349 OA
HETATM   11  H9  UNL     1      27.337   2.875  51.613  1.00  0.00     0.154 HD
ENDROOT
BRANCH   6  12
HETATM   12  N2  UNL     1      23.347   2.946  52.834  1.00  0.00    -0.365 N 
HETATM   13  H11 UNL     1      23.541   2.872  53.877  1.00  0.00     0.162 HD
BRANCH  12  14
HETATM   14  C9  UNL     1      22.259   2.223  52.297  1.00  0.00     0.031 A 
HETATM   15  C10 UNL     1      22.403   0.949  51.817  1.00  0.00     0.032 A 
HETATM   16  C11 UNL     1      21.334   0.244  51.289  1.00  0.00     0.046 A 
HETATM   17  C12 UNL     1      20.064   0.782  51.215  1.00  0.00     0.138 A 
HETATM   18  F1  UNL     1      18.967   0.179  50.724  1.00  0.00    -0.204 F 
HETATM   19  C13 UNL     1      19.916   2.081  51.705  1.00  0.00     0.074 A 
HETATM   20 CL1  UNL     1      18.356   2.883  51.672  1.00  0.00    -0.081 Cl
HETATM   21  C14 UNL     1      21.010   2.760  52.227  1.00  0.00     0.056 A 
ENDBRANCH  12  14
ENDBRANCH   6  12
BRANCH   1  22
HETATM   22  C3  UNL     1      28.362   5.321  48.289  1.00  0.00     0.034 C 
HETATM   23  C2  UNL     1      29.332   6.182  48.469  1.00  0.00     0.039 C 
HETATM   24  C1  UNL     1      30.724   5.975  48.026  1.00  0.00     0.076 C 
BRANCH  23  25
HETATM   25  O1  UNL     1      28.993   7.368  49.129  1.00  0.00    -0.365 OA
HETATM   26  H4  UNL     1      29.660   8.137  49.113  1.00  0.00     0.217 HD
ENDBRANCH  23  25
ENDBRANCH   1  22
TORSDOF 4
ENDMDL
MODEL 5
REMARK VINA RESULT:      -7.1      4.270      7.194
REMARK  4 active torsions:
REMARK  status: ('A' for Active; 'I' for Inactive)
REMARK    1  A    between atoms: C2_2  and  O1_3 
REMARK    2  A    between atoms: C3_4  and  C4_5 
REMARK    3  A    between atoms: C8_10  and  N2_11 
REMARK    4  A    between atoms: N2_11  and  C9_12 
ROOT
HETATM    1  C4  UNL     1      20.227   1.243  50.964  1.00  0.00     0.036 C 
HETATM    2  C5  UNL     1      21.183   1.633  51.793  1.00  0.00     0.064 C 
HETATM    3  C6  UNL     1      21.391   1.096  53.150  1.00  0.00     0.179 C 
HETATM    4  N1  UNL     1      22.756   0.542  53.189  1.00  0.00    -0.405 N 
HETATM    5  C7  UNL     1      23.999   1.294  53.142  1.00  0.00     0.250 C 
HETATM    6  C8  UNL     1      24.651   2.068  52.231  1.00  0.00     0.125 C 
HETATM    7  N3  UNL     1      25.000   2.805  51.019  1.00  0.00    -0.275 NA
HETATM    8  C15 UNL     1      24.108   2.917  50.092  1.00  0.00     0.112 C 
HETATM    9  C16 UNL     1      22.728   2.389  50.070  1.00  0.00     0.221 C 
HETATM   10  O2  UNL     1      22.044   2.627  51.310  1.00  0.00    -0.349 OA
HETATM   11  H9  UNL     1      22.892  -0.504  53.267  1.00  0.00     0.154 HD
ENDROOT
BRANCH   6  12
HETATM   12  N2  UNL     1      25.822   2.449  52.946  1.00  0.00    -0.365 N 
HETATM   13  H11 UNL     1      25.850   3.436  53.343  1.00  0.00     0.162 HD
BRANCH  12  14
HETATM   14  C9  UNL     1      26.935   1.606  53.158  1.00  0.00     0.031 A 
HETATM   15  C10 UNL     1      28.131   2.087  53.618  1.00  0.00     0.032 A 
HETATM   16  C11 UNL     1      29.221   1.256  53.822  1.00  0.00     0.046 A 
HETATM   17  C12 UNL     1      29.167  -0.101  53.574  1.00  0.00     0.138 A 
HETATM   18  F1  UNL     1      30.166  -0.985  53.742  1.00  0.00    -0.204 F 
HETATM   19  C13 UNL     1      27.948  -0.593  53.105  1.00  0.00     0.074 A 
HETATM   20 CL1  UNL     1      27.743  -2.299  52.749  1.00  0.00    -0.081 Cl
HETATM   21  C14 UNL     1      26.875   0.268  52.910  1.00  0.00     0.056 A 
ENDBRANCH  12  14
ENDBRANCH   6  12
BRANCH   1  22
HETATM   22  C3  UNL     1      19.219   0.221  51.252  1.00  0.00     0.034 C 
HETATM   23  C2  UNL     1      17.943   0.462  51.422  1.00  0.00     0.039 C 
HETATM   24  C1  UNL     1      16.930  -0.572  51.713  1.00  0.00     0.076 C 
BRANCH  23  25
HETATM   25  O1  UNL     1      17.545   1.798  51.314  1.00  0.00    -0.365 OA
HETATM   26  H4  UNL     1      17.356   2.317  52.170  1.00  0.00     0.217 HD
ENDBRANCH  23  25
ENDBRANCH   1  22
TORSDOF 4
ENDMDL
MODEL 6
REMARK VINA RESULT:      -7.0      4.369      6.966
REMARK  4 active torsions:
REMARK  status: ('A' for Active; 'I' for Inactive)
REMARK    1  A    between atoms: C2_2  and  O1_3 
REMARK    2  A    between atoms: C3_4  and  C4_5 
REMARK    3  A    between atoms: C8_10  and  N2_11 
REMARK    4  A    between atoms: N2_11  and  C9_12 
ROOT
HETATM    1  C4  UNL     1      26.620   1.609  51.621  1.00  0.00     0.036 C 
HETATM    2  C5  UNL     1      25.460   2.234  51.757  1.00  0.00     0.064 C 
HETATM    3  C6  UNL     1      24.617   2.189  52.967  1.00  0.00     0.179 C 
HETATM    4  N1  UNL     1      24.453   3.580  53.427  1.00  0.00    -0.405 N 
HETATM    5  C7  UNL     1      23.696   4.629  52.764  1.00  0.00     0.250 C 
HETATM    6  C8  UNL     1      23.790   5.331  51.601  1.00  0.00     0.125 C 
HETATM    7  N3  UNL     1      24.236   5.828  50.303  1.00  0.00    -0.275 NA
HETATM    8  C15 UNL     1      25.184   5.195  49.696  1.00  0.00     0.112 C 
HETATM    9  C16 UNL     1      25.919   3.991  50.137  1.00  0.00     0.221 C 
HETATM   10  O2  UNL     1      25.035   2.984  50.653  1.00  0.00    -0.349 OA
HETATM   11  H9  UNL     1      24.908   3.887  54.331  1.00  0.00     0.154 HD
ENDROOT
BRANCH   6  12
HETATM   12  N2  UNL     1      22.657   6.190  51.677  1.00  0.00    -0.365 N 
HETATM   13  H11 UNL     1      22.727   7.031  52.325  1.00  0.00     0.162 HD
BRANCH  12  14
HETATM   14  C9  UNL     1      21.461   5.995  50.952  1.00  0.00     0.031 A 
HETATM   15  C10 UNL     1      20.949   6.961  50.128  1.00  0.00     0.032 A 
HETATM   16  C11 UNL     1      19.774   6.767  49.420  1.00  0.00     0.046 A 
HETATM   17  C12 UNL     1      19.051   5.594  49.502  1.00  0.00     0.138 A 
HETATM   18  F1  UNL     1      17.907   5.312  48.856  1.00  0.00    -0.204 F 
HETATM   19  C13 UNL     1      19.572   4.608  50.342  1.00  0.00     0.074 A 
HETATM   20 CL1  UNL     1      18.754   3.068  50.539  1.00  0.00    -0.081 Cl
HETATM   21  C14 UNL     1      20.753   4.835  51.038  1.00  0.00     0.056 A 
ENDBRANCH  12  14
ENDBRANCH   6  12
BRANCH   1  22
HETATM   22  C3  UNL     1      27.258   0.773  52.640  1.00  0.00     0.034 C 
HETATM   23  C2  UNL     1      28.340   1.101  53.300  1.00  0.00     0.039 C 
HETATM   24  C1  UNL     1      28.981   0.255  54.326  1.00  0.00     0.076 C 
BRANCH  23  25
HETATM   25  O1  UNL     1      28.903   2.343  52.989  1.00  0.00    -0.365 OA
HETATM   26  H4  UNL     1      29.883   2.374  52.713  1.00  0.00     0.217 HD
ENDBRANCH  23  25
ENDBRANCH   1  22
TORSDOF 4
ENDMDL
MODEL 7
REMARK VINA RESULT:      -7.0      4.123      6.802
REMARK  4 active torsions:
REMARK  status: ('A' for Active; 'I' for Inactive)
REMARK    1  A    between atoms: C2_2  and  O1_3 
REMARK    2  A    between atoms: C3_4  and  C4_5 
REMARK    3  A    between atoms: C8_10  and  N2_11 
REMARK    4  A    between atoms: N2_11  and  C9_12 
ROOT
HETATM    1  C4  UNL     1      19.025   2.812  51.494  1.00  0.00     0.036 C 
HETATM    2  C5  UNL     1      20.084   2.695  52.281  1.00  0.00     0.064 C 
HETATM    3  C6  UNL     1      20.434   1.482  53.043  1.00  0.00     0.179 C 
HETATM    4  N1  UNL     1      21.778   1.069  52.600  1.00  0.00    -0.405 N 
HETATM    5  C7  UNL     1      23.028   1.765  52.856  1.00  0.00     0.250 C 
HETATM    6  C8  UNL     1      23.590   2.951  52.495  1.00  0.00     0.125 C 
HETATM    7  N3  UNL     1      23.815   4.267  51.903  1.00  0.00    -0.275 NA
HETATM    8  C15 UNL     1      22.823   4.855  51.320  1.00  0.00     0.112 C 
HETATM    9  C16 UNL     1      21.435   4.375  51.153  1.00  0.00     0.221 C 
HETATM   10  O2  UNL     1      20.910   3.822  52.369  1.00  0.00    -0.349 OA
HETATM   11  H9  UNL     1      21.891   0.178  52.042  1.00  0.00     0.154 HD
ENDROOT
BRANCH   6  12
HETATM   12  N2  UNL     1      24.848   2.901  53.160  1.00  0.00    -0.365 N 
HETATM   13  H11 UNL     1      25.102   3.727  53.782  1.00  0.00     0.162 HD
BRANCH  12  14
HETATM   14  C9  UNL     1      25.766   1.834  53.047  1.00  0.00     0.031 A 
HETATM   15  C10 UNL     1      25.783   1.006  51.958  1.00  0.00     0.032 A 
HETATM   16  C11 UNL     1      26.684  -0.042  51.852  1.00  0.00     0.046 A 
HETATM   17  C12 UNL     1      27.615  -0.311  52.835  1.00  0.00     0.138 A 
HETATM   18  F1  UNL     1      28.528  -1.298  52.823  1.00  0.00    -0.204 F 
HETATM   19  C13 UNL     1      27.600   0.533  53.946  1.00  0.00     0.074 A 
HETATM   20 CL1  UNL     1      28.731   0.302  55.268  1.00  0.00    -0.081 Cl
HETATM   21  C14 UNL     1      26.682   1.574  54.021  1.00  0.00     0.056 A 
ENDBRANCH  12  14
ENDBRANCH   6  12
BRANCH   1  22
HETATM   22  C3  UNL     1      18.028   1.768  51.249  1.00  0.00     0.034 C 
HETATM   23  C2  UNL     1      18.056   0.936  50.239  1.00  0.00     0.039 C 
HETATM   24  C1  UNL     1      17.049  -0.115  49.996  1.00  0.00     0.076 C 
BRANCH  23  25
HETATM   25  O1  UNL     1      19.124   1.080  49.347  1.00  0.00    -0.365 OA
HETATM   26  H4  UNL     1      20.072   1.027  49.715  1.00  0.00     0.217 HD
ENDBRANCH  23  25
ENDBRANCH   1  22
TORSDOF 4
ENDMDL
MODEL 8
REMARK VINA RESULT:      -6.9      4.326      5.330
REMARK  4 active torsions:
REMARK  status: ('A' for Active; 'I' for Inactive)
REMARK    1  A    between atoms: C2_2  and  O1_3 
REMARK    2  A    between atoms: C3_4  and  C4_5 
REMARK    3  A    between atoms: C8_10  and  N2_11 
REMARK    4  A    between atoms: N2_11  and  C9_12 
ROOT
HETATM    1  C4  UNL     1      21.527   2.853  47.696  1.00  0.00     0.036 C 
HETATM    2  C5  UNL     1      22.409   2.651  48.664  1.00  0.00     0.064 C 
HETATM    3  C6  UNL     1      23.441   3.620  49.076  1.00  0.00     0.179 C 
HETATM    4  N1  UNL     1      23.213   3.909  50.504  1.00  0.00    -0.405 N 
HETATM    5  C7  UNL     1      23.420   2.997  51.617  1.00  0.00     0.250 C 
HETATM    6  C8  UNL     1      22.863   1.838  52.061  1.00  0.00     0.125 C 
HETATM    7  N3  UNL     1      22.023   0.649  52.182  1.00  0.00    -0.275 NA
HETATM    8  C15 UNL     1      21.244   0.345  51.198  1.00  0.00     0.112 C 
HETATM    9  C16 UNL     1      21.066   1.049  49.911  1.00  0.00     0.221 C 
HETATM   10  O2  UNL     1      22.323   1.419  49.324  1.00  0.00    -0.349 OA
HETATM   11  H9  UNL     1      22.872   4.867  50.794  1.00  0.00     0.154 HD
ENDROOT
BRANCH   6  12
HETATM   12  N2  UNL     1      23.628   1.565  53.230  1.00  0.00    -0.365 N 
HETATM   13  H11 UNL     1      23.150   1.710  54.169  1.00  0.00     0.162 HD
BRANCH  12  14
HETATM   14  C9  UNL     1      24.967   1.117  53.218  1.00  0.00     0.031 A 
HETATM   15  C10 UNL     1      26.006   1.929  53.588  1.00  0.00     0.032 A 
HETATM   16  C11 UNL     1      27.319   1.486  53.572  1.00  0.00     0.046 A 
HETATM   17  C12 UNL     1      27.657   0.205  53.184  1.00  0.00     0.138 A 
HETATM   18  F1  UNL     1      28.896  -0.315  53.137  1.00  0.00    -0.204 F 
HETATM   19  C13 UNL     1      26.600  -0.623  52.806  1.00  0.00     0.074 A 
HETATM   20 CL1  UNL     1      26.890  -2.275  52.290  1.00  0.00    -0.081 Cl
HETATM   21  C14 UNL     1      25.295  -0.147  52.833  1.00  0.00     0.056 A 
ENDBRANCH  12  14
ENDBRANCH   6  12
BRANCH   1  22
HETATM   22  C3  UNL     1      21.428   4.062  46.876  1.00  0.00     0.034 C 
HETATM   23  C2  UNL     1      21.844   4.157  45.639  1.00  0.00     0.039 C 
HETATM   24  C1  UNL     1      21.743   5.378  44.815  1.00  0.00     0.076 C 
BRANCH  23  25
HETATM   25  O1  UNL     1      22.419   3.006  45.088  1.00  0.00    -0.365 OA
HETATM   26  H4  UNL     1      21.927   2.536  44.329  1.00  0.00     0.217 HD
ENDBRANCH  23  25
ENDBRANCH   1  22
TORSDOF 4
ENDMDL
MODEL 9
REMARK VINA RESULT:      -6.9      6.198     10.425
REMARK  4 active torsions:
REMARK  status: ('A' for Active; 'I' for Inactive)
REMARK    1  A    between atoms: C2_2  and  O1_3 
REMARK    2  A    between atoms: C3_4  and  C4_5 
REMARK    3  A    between atoms: C8_10  and  N2_11 
REMARK    4  A    between atoms: N2_11  and  C9_12 
ROOT
HETATM    1  C4  UNL     1      27.193   5.349  48.604  1.00  0.00     0.036 C 
HETATM    2  C5  UNL     1      27.389   6.659  48.581  1.00  0.00     0.064 C 
HETATM    3  C6  UNL     1      26.446   7.659  49.116  1.00  0.00     0.179 C 
HETATM    4  N1  UNL     1      27.171   8.425  50.146  1.00  0.00    -0.405 N 
HETATM    5  C7  UNL     1      28.261   9.361  49.923  1.00  0.00     0.250 C 
HETATM    6  C8  UNL     1      29.547   9.293  49.482  1.00  0.00     0.125 C 
HETATM    7  N3  UNL     1      30.823   8.802  48.969  1.00  0.00    -0.275 NA
HETATM    8  C15 UNL     1      30.888   7.580  48.554  1.00  0.00     0.112 C 
HETATM    9  C16 UNL     1      29.819   6.560  48.519  1.00  0.00     0.221 C 
HETATM   10  O2  UNL     1      28.589   7.090  48.003  1.00  0.00    -0.349 OA
HETATM   11  H9  UNL     1      26.899   8.320  51.162  1.00  0.00     0.154 HD
ENDROOT
BRANCH   6  12
HETATM   12  N2  UNL     1      29.961  10.654  49.552  1.00  0.00    -0.365 N 
HETATM   13  H11 UNL     1      30.589  10.929  50.365  1.00  0.00     0.162 HD
BRANCH  12  14
HETATM   14  C9  UNL     1      29.593  11.647  48.619  1.00  0.00     0.031 A 
HETATM   15  C10 UNL     1      28.645  12.593  48.904  1.00  0.00     0.032 A 
HETATM   16  C11 UNL     1      28.285  13.564  47.984  1.00  0.00     0.046 A 
HETATM   17  C12 UNL     1      28.857  13.637  46.730  1.00  0.00     0.138 A 
HETATM   18  F1  UNL     1      28.577  14.539  45.773  1.00  0.00    -0.204 F 
HETATM   19  C13 UNL     1      29.824  12.673  46.438  1.00  0.00     0.074 A 
HETATM   20 CL1  UNL     1      30.631  12.650  44.879  1.00  0.00    -0.081 Cl
HETATM   21  C14 UNL     1      30.161  11.712  47.383  1.00  0.00     0.056 A 
ENDBRANCH  12  14
ENDBRANCH   6  12
BRANCH   1  22
HETATM   22  C3  UNL     1      26.017   4.675  49.158  1.00  0.00     0.034 C 
HETATM   23  C2  UNL     1      26.046   3.835  50.162  1.00  0.00     0.039 C 
HETATM   24  C1  UNL     1      24.858   3.158  50.717  1.00  0.00     0.076 C 
BRANCH  23  25
HETATM   25  O1  UNL     1      27.302   3.583  50.723  1.00  0.00    -0.365 OA
HETATM   26  H4  UNL     1      27.927   2.940  50.241  1.00  0.00     0.217 HD
ENDBRANCH  23  25
ENDBRANCH   1  22
TORSDOF 4
ENDMDL
