MODEL 1
REMARK VINA RESULT:      -8.7      0.000      0.000
REMARK  7 active torsions:
REMARK  status: ('A' for Active; 'I' for Inactive)
REMARK    1  A    between atoms: C5_5  and  C6_6 
REMARK    2  A    between atoms: C6_6  and  C7_7 
REMARK    3  A    between atoms: C6_6  and  N1_14 
REMARK    4  A    between atoms: C7_7  and  C8_8 
REMARK    5  A    between atoms: N1_14  and  N2_15 
REMARK    6  A    between atoms: N1_14  and  C14_16 
REMARK    7  A    between atoms: C15_18  and  O1_19 
ROOT
HETATM    1  C6  UNL     1      25.351   1.645  53.018  1.00  0.00     0.142 C 
ENDROOT
BRANCH   1   2
HETATM    2  C5  UNL     1      25.530   2.559  51.828  1.00  0.00    -0.034 A 
HETATM    3  C4  UNL     1      24.554   3.555  51.795  1.00  0.00     0.010 A 
HETATM    4  C3  UNL     1      24.527   4.521  50.810  1.00  0.00     0.007 A 
HETATM    5  C2  UNL     1      25.481   4.522  49.824  1.00  0.00    -0.062 A 
HETATM    6  C1  UNL     1      25.469   5.556  48.752  1.00  0.00     0.048 C 
HETATM    7  C18 UNL     1      26.453   3.532  49.855  1.00  0.00     0.007 A 
HETATM    8  C17 UNL     1      26.483   2.566  50.837  1.00  0.00     0.010 A 
ENDBRANCH   1   2
BRANCH   1   9
HETATM    9  C7  UNL     1      24.594   0.456  52.513  1.00  0.00     0.070 C 
BRANCH   9  10
HETATM   10  C8  UNL     1      23.319   0.187  53.229  1.00  0.00    -0.056 A 
HETATM   11  C9  UNL     1      22.222   0.970  52.868  1.00  0.00     0.007 A 
HETATM   12  C10 UNL     1      20.957   0.821  53.456  1.00  0.00     0.001 A 
HETATM   13  C11 UNL     1      20.775  -0.134  54.429  1.00  0.00     0.000 A 
HETATM   14  C12 UNL     1      21.872  -0.905  54.780  1.00  0.00     0.001 A 
HETATM   15  C13 UNL     1      23.105  -0.758  54.206  1.00  0.00     0.007 A 
ENDBRANCH   9  10
ENDBRANCH   1   9
BRANCH   1  16
HETATM   16  N1  UNL     1      26.672   1.289  53.473  1.00  0.00    -0.283 N 
BRANCH  16  17
HETATM   17  N2  UNL     1      27.200   2.384  54.162  1.00  0.00    -0.245 NA
HETATM   18  H14 UNL     1      27.642   2.056  55.063  1.00  0.00     0.143 HD
HETATM   19  H15 UNL     1      27.867   2.942  53.621  1.00  0.00     0.143 HD
ENDBRANCH  16  17
BRANCH  16  20
HETATM   20  C14 UNL     1      27.593   0.190  53.464  1.00  0.00     0.186 A 
HETATM   21  N3  UNL     1      27.492  -0.952  53.292  1.00  0.00    -0.199 NA
HETATM   22  C15 UNL     1      28.485  -1.844  53.306  1.00  0.00     0.171 A 
HETATM   23  C16 UNL     1      29.767  -1.390  53.547  1.00  0.00     0.111 A 
HETATM   24  S1  UNL     1      29.458   0.410  53.751  1.00  0.00    -0.058 SA
BRANCH  22  25
HETATM   25  O1  UNL     1      28.531  -3.238  53.121  1.00  0.00    -0.344 OA
HETATM   26  H16 UNL     1      28.509  -3.843  53.935  1.00  0.00     0.219 HD
ENDBRANCH  22  25
ENDBRANCH  16  20
ENDBRANCH   1  16
TORSDOF 7
ENDMDL
MODEL 2
REMARK VINA RESULT:      -8.6      0.776      5.052
REMARK  7 active torsions:
REMARK  status: ('A' for Active; 'I' for Inactive)
REMARK    1  A    between atoms: C5_5  and  C6_6 
REMARK    2  A    between atoms: C6_6  and  C7_7 
REMARK    3  A    between atoms: C6_6  and  N1_14 
REMARK    4  A    between atoms: C7_7  and  C8_8 
REMARK    5  A    between atoms: N1_14  and  N2_15 
REMARK    6  A    between atoms: N1_14  and  C14_16 
REMARK    7  A    between atoms: C15_18  and  O1_19 
ROOT
HETATM    1  C6  UNL     1      25.285   1.144  52.316  1.00  0.00     0.142 C 
ENDROOT
BRANCH   1   2
HETATM    2  C5  UNL     1      24.107   0.415  52.917  1.00  0.00    -0.034 A 
HETATM    3  C4  UNL     1      22.927   0.688  52.225  1.00  0.00     0.010 A 
HETATM    4  C3  UNL     1      21.722   0.116  52.579  1.00  0.00     0.007 A 
HETATM    5  C2  UNL     1      21.660  -0.751  53.640  1.00  0.00    -0.062 A 
HETATM    6  C1  UNL     1      20.369  -1.378  54.038  1.00  0.00     0.048 C 
HETATM    7  C18 UNL     1      22.833  -1.025  54.330  1.00  0.00     0.007 A 
HETATM    8  C17 UNL     1      24.038  -0.456  53.979  1.00  0.00     0.010 A 
ENDBRANCH   1   2
BRANCH   1   9
HETATM    9  C7  UNL     1      24.930   2.599  52.352  1.00  0.00     0.070 C 
BRANCH   9  10
HETATM   10  C8  UNL     1      25.379   3.372  51.164  1.00  0.00    -0.056 A 
HETATM   11  C9  UNL     1      24.557   4.422  50.754  1.00  0.00     0.007 A 
HETATM   12  C10 UNL     1      24.860   5.239  49.654  1.00  0.00     0.001 A 
HETATM   13  C11 UNL     1      26.013   5.007  48.941  1.00  0.00     0.000 A 
HETATM   14  C12 UNL     1      26.821   3.962  49.357  1.00  0.00     0.001 A 
HETATM   15  C13 UNL     1      26.524   3.166  50.430  1.00  0.00     0.007 A 
ENDBRANCH   9  10
ENDBRANCH   1   9
BRANCH   1  16
HETATM   16  N1  UNL     1      26.428   0.848  53.145  1.00  0.00    -0.283 N 
BRANCH  16  17
HETATM   17  N2  UNL     1      26.516   1.841  54.126  1.00  0.00    -0.245 NA
HETATM   18  H14 UNL     1      25.673   2.473  54.066  1.00  0.00     0.143 HD
HETATM   19  H15 UNL     1      26.627   1.483  55.079  1.00  0.00     0.143 HD
ENDBRANCH  16  17
BRANCH  16  20
HETATM   20  C14 UNL     1      27.470  -0.124  53.296  1.00  0.00     0.186 A 
HETATM   21  N3  UNL     1      27.515  -1.281  53.239  1.00  0.00    -0.199 NA
HETATM   22  C15 UNL     1      28.603  -2.039  53.396  1.00  0.00     0.171 A 
HETATM   23  C16 UNL     1      29.805  -1.408  53.654  1.00  0.00     0.111 A 
HETATM   24  S1  UNL     1      29.274   0.351  53.655  1.00  0.00    -0.058 SA
BRANCH  22  25
HETATM   25  O1  UNL     1      28.824  -3.428  53.359  1.00  0.00    -0.344 OA
HETATM   26  H16 UNL     1      28.183  -4.041  53.850  1.00  0.00     0.219 HD
ENDBRANCH  22  25
ENDBRANCH  16  20
ENDBRANCH   1  16
TORSDOF 7
ENDMDL
MODEL 3
REMARK VINA RESULT:      -8.5      1.955      5.548
REMARK  7 active torsions:
REMARK  status: ('A' for Active; 'I' for Inactive)
REMARK    1  A    between atoms: C5_5  and  C6_6 
REMARK    2  A    between atoms: C6_6  and  C7_7 
REMARK    3  A    between atoms: C6_6  and  N1_14 
REMARK    4  A    between atoms: C7_7  and  C8_8 
REMARK    5  A    between atoms: N1_14  and  N2_15 
REMARK    6  A    between atoms: N1_14  and  C14_16 
REMARK    7  A    between atoms: C15_18  and  O1_19 
ROOT
HETATM    1  C6  UNL     1      24.896   1.754  51.663  1.00  0.00     0.142 C 
ENDROOT
BRANCH   1   2
HETATM    2  C5  UNL     1      23.747   0.991  52.279  1.00  0.00    -0.034 A 
HETATM    3  C4  UNL     1      22.521   1.390  51.747  1.00  0.00     0.010 A 
HETATM    4  C3  UNL     1      21.330   0.816  52.142  1.00  0.00     0.007 A 
HETATM    5  C2  UNL     1      21.328  -0.179  53.085  1.00  0.00    -0.062 A 
HETATM    6  C1  UNL     1      20.053  -0.811  53.525  1.00  0.00     0.048 C 
HETATM    7  C18 UNL     1      22.547  -0.579  53.617  1.00  0.00     0.007 A 
HETATM    8  C17 UNL     1      23.738  -0.008  53.225  1.00  0.00     0.010 A 
ENDBRANCH   1   2
BRANCH   1   9
HETATM    9  C7  UNL     1      24.287   2.953  51.003  1.00  0.00     0.070 C 
BRANCH   9  10
HETATM   10  C8  UNL     1      25.240   3.769  50.207  1.00  0.00    -0.056 A 
HETATM   11  C9  UNL     1      24.887   5.099  49.978  1.00  0.00     0.007 A 
HETATM   12  C10 UNL     1      25.694   5.985  49.249  1.00  0.00     0.001 A 
HETATM   13  C11 UNL     1      26.888   5.538  48.732  1.00  0.00     0.000 A 
HETATM   14  C12 UNL     1      27.228   4.215  48.965  1.00  0.00     0.001 A 
HETATM   15  C13 UNL     1      26.439   3.352  49.676  1.00  0.00     0.007 A 
ENDBRANCH   9  10
ENDBRANCH   1   9
BRANCH   1  16
HETATM   16  N1  UNL     1      25.779   2.123  52.741  1.00  0.00    -0.283 N 
BRANCH  16  17
HETATM   17  N2  UNL     1      25.142   3.109  53.501  1.00  0.00    -0.245 NA
HETATM   18  H14 UNL     1      24.926   3.942  52.889  1.00  0.00     0.143 HD
HETATM   19  H15 UNL     1      24.296   2.790  53.981  1.00  0.00     0.143 HD
ENDBRANCH  16  17
BRANCH  16  20
HETATM   20  C14 UNL     1      27.065   1.801  53.285  1.00  0.00     0.186 A 
HETATM   21  N3  UNL     1      27.883   2.401  53.848  1.00  0.00    -0.199 NA
HETATM   22  C15 UNL     1      29.042   1.922  54.304  1.00  0.00     0.171 A 
HETATM   23  C16 UNL     1      29.321   0.585  54.100  1.00  0.00     0.111 A 
HETATM   24  S1  UNL     1      27.805   0.053  53.207  1.00  0.00    -0.058 SA
BRANCH  22  25
HETATM   25  O1  UNL     1      30.122   2.505  54.993  1.00  0.00    -0.344 OA
HETATM   26  H16 UNL     1      30.957   2.756  54.475  1.00  0.00     0.219 HD
ENDBRANCH  22  25
ENDBRANCH  16  20
ENDBRANCH   1  16
TORSDOF 7
ENDMDL
MODEL 4
REMARK VINA RESULT:      -8.4      2.653      6.277
REMARK  7 active torsions:
REMARK  status: ('A' for Active; 'I' for Inactive)
REMARK    1  A    between atoms: C5_5  and  C6_6 
REMARK    2  A    between atoms: C6_6  and  C7_7 
REMARK    3  A    between atoms: C6_6  and  N1_14 
REMARK    4  A    between atoms: C7_7  and  C8_8 
REMARK    5  A    between atoms: N1_14  and  N2_15 
REMARK    6  A    between atoms: N1_14  and  C14_16 
REMARK    7  A    between atoms: C15_18  and  O1_19 
ROOT
HETATM    1  C6  UNL     1      25.278   0.811  53.231  1.00  0.00     0.142 C 
ENDROOT
BRANCH   1   2
HETATM    2  C5  UNL     1      23.840   0.351  53.190  1.00  0.00    -0.034 A 
HETATM    3  C4  UNL     1      23.560  -0.552  54.216  1.00  0.00     0.010 A 
HETATM    4  C3  UNL     1      22.303  -1.093  54.392  1.00  0.00     0.007 A 
HETATM    5  C2  UNL     1      21.282  -0.745  53.544  1.00  0.00    -0.062 A 
HETATM    6  C1  UNL     1      19.918  -1.318  53.717  1.00  0.00     0.048 C 
HETATM    7  C18 UNL     1      21.557   0.154  52.523  1.00  0.00     0.007 A 
HETATM    8  C17 UNL     1      22.811   0.696  52.344  1.00  0.00     0.010 A 
ENDBRANCH   1   2
BRANCH   1   9
HETATM    9  C7  UNL     1      26.038  -0.137  52.356  1.00  0.00     0.070 C 
BRANCH   9  10
HETATM   10  C8  UNL     1      27.413  -0.447  52.830  1.00  0.00    -0.056 A 
HETATM   11  C9  UNL     1      27.804  -1.785  52.786  1.00  0.00     0.007 A 
HETATM   12  C10 UNL     1      29.073  -2.220  53.196  1.00  0.00     0.001 A 
HETATM   13  C11 UNL     1      29.981  -1.299  53.663  1.00  0.00     0.000 A 
HETATM   14  C12 UNL     1      29.582   0.027  53.703  1.00  0.00     0.001 A 
HETATM   15  C13 UNL     1      28.344   0.450  53.303  1.00  0.00     0.007 A 
ENDBRANCH   9  10
ENDBRANCH   1   9
BRANCH   1  16
HETATM   16  N1  UNL     1      25.302   2.157  52.715  1.00  0.00    -0.283 N 
BRANCH  16  17
HETATM   17  N2  UNL     1      24.976   3.025  53.762  1.00  0.00    -0.245 NA
HETATM   18  H14 UNL     1      25.212   4.017  53.485  1.00  0.00     0.143 HD
HETATM   19  H15 UNL     1      24.003   2.963  54.074  1.00  0.00     0.143 HD
ENDBRANCH  16  17
BRANCH  16  20
HETATM   20  C14 UNL     1      25.563   2.880  51.505  1.00  0.00     0.186 A 
HETATM   21  N3  UNL     1      26.506   3.063  50.856  1.00  0.00    -0.199 NA
HETATM   22  C15 UNL     1      26.562   3.768  49.724  1.00  0.00     0.171 A 
HETATM   23  C16 UNL     1      25.398   4.347  49.258  1.00  0.00     0.111 A 
HETATM   24  S1  UNL     1      24.209   3.812  50.553  1.00  0.00    -0.058 SA
BRANCH  22  25
HETATM   25  O1  UNL     1      27.606   4.081  48.835  1.00  0.00    -0.344 OA
HETATM   26  H16 UNL     1      27.860   3.409  48.119  1.00  0.00     0.219 HD
ENDBRANCH  22  25
ENDBRANCH  16  20
ENDBRANCH   1  16
TORSDOF 7
ENDMDL
MODEL 5
REMARK VINA RESULT:      -8.3      3.140      6.591
REMARK  7 active torsions:
REMARK  status: ('A' for Active; 'I' for Inactive)
REMARK    1  A    between atoms: C5_5  and  C6_6 
REMARK    2  A    between atoms: C6_6  and  C7_7 
REMARK    3  A    between atoms: C6_6  and  N1_14 
REMARK    4  A    between atoms: C7_7  and  C8_8 
REMARK    5  A    between atoms: N1_14  and  N2_15 
REMARK    6  A    between atoms: N1_14  and  C14_16 
REMARK    7  A    between atoms: C15_18  and  O1_19 
ROOT
HETATM    1  C6  UNL     1      25.259   0.659  53.403  1.00  0.00     0.142 C 
ENDROOT
BRANCH   1   2
HETATM    2  C5  UNL     1      23.837   0.150  53.378  1.00  0.00    -0.034 A 
HETATM    3  C4  UNL     1      23.572  -0.686  54.464  1.00  0.00     0.010 A 
HETATM    4  C3  UNL     1      22.330  -1.254  54.663  1.00  0.00     0.007 A 
HETATM    5  C2  UNL     1      21.311  -1.002  53.781  1.00  0.00    -0.062 A 
HETATM    6  C1  UNL     1      19.964  -1.606  53.979  1.00  0.00     0.048 C 
HETATM    7  C18 UNL     1      21.572  -0.171  52.700  1.00  0.00     0.007 A 
HETATM    8  C17 UNL     1      22.810   0.399  52.497  1.00  0.00     0.010 A 
ENDBRANCH   1   2
BRANCH   1   9
HETATM    9  C7  UNL     1      25.953  -0.003  52.253  1.00  0.00     0.070 C 
BRANCH   9  10
HETATM   10  C8  UNL     1      27.143  -0.810  52.633  1.00  0.00    -0.056 A 
HETATM   11  C9  UNL     1      28.234  -0.112  53.149  1.00  0.00     0.007 A 
HETATM   12  C10 UNL     1      29.419  -0.746  53.555  1.00  0.00     0.001 A 
HETATM   13  C11 UNL     1      29.521  -2.113  53.446  1.00  0.00     0.000 A 
HETATM   14  C12 UNL     1      28.431  -2.796  52.931  1.00  0.00     0.001 A 
HETATM   15  C13 UNL     1      27.277  -2.176  52.536  1.00  0.00     0.007 A 
ENDBRANCH   9  10
ENDBRANCH   1   9
BRANCH   1  16
HETATM   16  N1  UNL     1      25.193   2.091  53.241  1.00  0.00    -0.283 N 
BRANCH  16  17
HETATM   17  N2  UNL     1      26.158   2.663  54.075  1.00  0.00    -0.245 NA
HETATM   18  H14 UNL     1      25.822   3.607  54.409  1.00  0.00     0.143 HD
HETATM   19  H15 UNL     1      26.428   2.079  54.871  1.00  0.00     0.143 HD
ENDBRANCH  16  17
BRANCH  16  20
HETATM   20  C14 UNL     1      24.485   3.095  52.503  1.00  0.00     0.186 A 
HETATM   21  N3  UNL     1      23.757   3.951  52.789  1.00  0.00    -0.199 NA
HETATM   22  C15 UNL     1      23.191   4.821  51.949  1.00  0.00     0.171 A 
HETATM   23  C16 UNL     1      23.482   4.713  50.603  1.00  0.00     0.111 A 
HETATM   24  S1  UNL     1      24.629   3.277  50.617  1.00  0.00    -0.058 SA
BRANCH  22  25
HETATM   25  O1  UNL     1      22.302   5.896  52.131  1.00  0.00    -0.344 OA
HETATM   26  H16 UNL     1      22.447   6.527  52.911  1.00  0.00     0.219 HD
ENDBRANCH  22  25
ENDBRANCH  16  20
ENDBRANCH   1  16
TORSDOF 7
ENDMDL
MODEL 6
REMARK VINA RESULT:      -8.1      2.711      6.402
REMARK  7 active torsions:
REMARK  status: ('A' for Active; 'I' for Inactive)
REMARK    1  A    between atoms: C5_5  and  C6_6 
REMARK    2  A    between atoms: C6_6  and  C7_7 
REMARK    3  A    between atoms: C6_6  and  N1_14 
REMARK    4  A    between atoms: C7_7  and  C8_8 
REMARK    5  A    between atoms: N1_14  and  N2_15 
REMARK    6  A    between atoms: N1_14  and  C14_16 
REMARK    7  A    between atoms: C15_18  and  O1_19 
ROOT
HETATM    1  C6  UNL     1      26.093   2.551  51.982  1.00  0.00     0.142 C 
ENDROOT
BRANCH   1   2
HETATM    2  C5  UNL     1      26.967   1.392  52.399  1.00  0.00    -0.034 A 
HETATM    3  C4  UNL     1      28.104   1.826  53.080  1.00  0.00     0.010 A 
HETATM    4  C3  UNL     1      29.040   0.943  53.577  1.00  0.00     0.007 A 
HETATM    5  C2  UNL     1      28.867  -0.407  53.410  1.00  0.00    -0.062 A 
HETATM    6  C1  UNL     1      29.866  -1.376  53.940  1.00  0.00     0.048 C 
HETATM    7  C18 UNL     1      27.735  -0.842  52.734  1.00  0.00     0.007 A 
HETATM    8  C17 UNL     1      26.798   0.037  52.236  1.00  0.00     0.010 A 
ENDBRANCH   1   2
BRANCH   1   9
HETATM    9  C7  UNL     1      26.022   2.495  50.486  1.00  0.00     0.070 C 
BRANCH   9  10
HETATM   10  C8  UNL     1      26.009   3.824  49.820  1.00  0.00    -0.056 A 
HETATM   11  C9  UNL     1      27.198   4.232  49.215  1.00  0.00     0.007 A 
HETATM   12  C10 UNL     1      27.328   5.458  48.545  1.00  0.00     0.001 A 
HETATM   13  C11 UNL     1      26.245   6.303  48.472  1.00  0.00     0.000 A 
HETATM   14  C12 UNL     1      25.070   5.888  49.076  1.00  0.00     0.001 A 
HETATM   15  C13 UNL     1      24.945   4.692  49.730  1.00  0.00     0.007 A 
ENDBRANCH   9  10
ENDBRANCH   1   9
BRANCH   1  16
HETATM   16  N1  UNL     1      24.802   2.342  52.590  1.00  0.00    -0.283 N 
BRANCH  16  17
HETATM   17  N2  UNL     1      24.546   3.423  53.438  1.00  0.00    -0.245 NA
HETATM   18  H14 UNL     1      25.439   3.961  53.604  1.00  0.00     0.143 HD
HETATM   19  H15 UNL     1      23.806   4.051  53.110  1.00  0.00     0.143 HD
ENDBRANCH  16  17
BRANCH  16  20
HETATM   20  C14 UNL     1      23.711   1.413  52.592  1.00  0.00     0.186 A 
HETATM   21  N3  UNL     1      23.389   0.540  53.284  1.00  0.00    -0.199 NA
HETATM   22  C15 UNL     1      22.307  -0.229  53.137  1.00  0.00     0.171 A 
HETATM   23  C16 UNL     1      21.474   0.017  52.063  1.00  0.00     0.111 A 
HETATM   24  S1  UNL     1      22.342   1.431  51.274  1.00  0.00    -0.058 SA
BRANCH  22  25
HETATM   25  O1  UNL     1      21.784  -1.308  53.873  1.00  0.00    -0.344 OA
HETATM   26  H16 UNL     1      21.278  -2.037  53.383  1.00  0.00     0.219 HD
ENDBRANCH  22  25
ENDBRANCH  16  20
ENDBRANCH   1  16
TORSDOF 7
ENDMDL
MODEL 7
REMARK VINA RESULT:      -8.1      3.094      5.266
REMARK  7 active torsions:
REMARK  status: ('A' for Active; 'I' for Inactive)
REMARK    1  A    between atoms: C5_5  and  C6_6 
REMARK    2  A    between atoms: C6_6  and  C7_7 
REMARK    3  A    between atoms: C6_6  and  N1_14 
REMARK    4  A    between atoms: C7_7  and  C8_8 
REMARK    5  A    between atoms: N1_14  and  N2_15 
REMARK    6  A    between atoms: N1_14  and  C14_16 
REMARK    7  A    between atoms: C15_18  and  O1_19 
ROOT
HETATM    1  C6  UNL     1      24.989   1.628  51.862  1.00  0.00     0.142 C 
ENDROOT
BRANCH   1   2
HETATM    2  C5  UNL     1      26.290   1.110  52.427  1.00  0.00    -0.034 A 
HETATM    3  C4  UNL     1      26.366  -0.280  52.352  1.00  0.00     0.010 A 
HETATM    4  C3  UNL     1      27.474  -0.977  52.788  1.00  0.00     0.007 A 
HETATM    5  C2  UNL     1      28.546  -0.302  53.315  1.00  0.00    -0.062 A 
HETATM    6  C1  UNL     1      29.751  -1.036  53.792  1.00  0.00     0.048 C 
HETATM    7  C18 UNL     1      28.473   1.082  53.391  1.00  0.00     0.007 A 
HETATM    8  C17 UNL     1      27.368   1.782  52.956  1.00  0.00     0.010 A 
ENDBRANCH   1   2
BRANCH   1   9
HETATM    9  C7  UNL     1      23.980   1.491  52.961  1.00  0.00     0.070 C 
BRANCH   9  10
HETATM   10  C8  UNL     1      22.653   0.985  52.520  1.00  0.00    -0.056 A 
HETATM   11  C9  UNL     1      21.818   0.471  53.512  1.00  0.00     0.007 A 
HETATM   12  C10 UNL     1      20.537  -0.034  53.241  1.00  0.00     0.001 A 
HETATM   13  C11 UNL     1      20.071  -0.027  51.947  1.00  0.00     0.000 A 
HETATM   14  C12 UNL     1      20.909   0.486  50.969  1.00  0.00     0.001 A 
HETATM   15  C13 UNL     1      22.159   0.977  51.236  1.00  0.00     0.007 A 
ENDBRANCH   9  10
ENDBRANCH   1   9
BRANCH   1  16
HETATM   16  N1  UNL     1      25.207   3.007  51.501  1.00  0.00    -0.283 N 
BRANCH  16  17
HETATM   17  N2  UNL     1      24.581   3.807  52.461  1.00  0.00    -0.245 NA
HETATM   18  H14 UNL     1      23.826   4.385  52.001  1.00  0.00     0.143 HD
HETATM   19  H15 UNL     1      24.198   3.289  53.258  1.00  0.00     0.143 HD
ENDBRANCH  16  17
BRANCH  16  20
HETATM   20  C14 UNL     1      25.861   3.806  50.507  1.00  0.00     0.186 A 
HETATM   21  N3  UNL     1      26.885   3.751  49.966  1.00  0.00    -0.199 NA
HETATM   22  C15 UNL     1      27.332   4.595  49.033  1.00  0.00     0.171 A 
HETATM   23  C16 UNL     1      26.517   5.645  48.658  1.00  0.00     0.111 A 
HETATM   24  S1  UNL     1      25.057   5.344  49.733  1.00  0.00    -0.058 SA
BRANCH  22  25
HETATM   25  O1  UNL     1      28.526   4.668  48.293  1.00  0.00    -0.344 OA
HETATM   26  H16 UNL     1      28.936   3.812  47.935  1.00  0.00     0.219 HD
ENDBRANCH  22  25
ENDBRANCH  16  20
ENDBRANCH   1  16
TORSDOF 7
ENDMDL
MODEL 8
REMARK VINA RESULT:      -8.0      1.121      5.277
REMARK  7 active torsions:
REMARK  status: ('A' for Active; 'I' for Inactive)
REMARK    1  A    between atoms: C5_5  and  C6_6 
REMARK    2  A    between atoms: C6_6  and  C7_7 
REMARK    3  A    between atoms: C6_6  and  N1_14 
REMARK    4  A    between atoms: C7_7  and  C8_8 
REMARK    5  A    between atoms: N1_14  and  N2_15 
REMARK    6  A    between atoms: N1_14  and  C14_16 
REMARK    7  A    between atoms: C15_18  and  O1_19 
ROOT
HETATM    1  C6  UNL     1      24.860   1.806  51.787  1.00  0.00     0.142 C 
ENDROOT
BRANCH   1   2
HETATM    2  C5  UNL     1      23.686   1.033  52.338  1.00  0.00    -0.034 A 
HETATM    3  C4  UNL     1      22.471   1.615  51.975  1.00  0.00     0.010 A 
HETATM    4  C3  UNL     1      21.259   1.072  52.346  1.00  0.00     0.007 A 
HETATM    5  C2  UNL     1      21.223  -0.077  53.095  1.00  0.00    -0.062 A 
HETATM    6  C1  UNL     1      19.924  -0.679  53.506  1.00  0.00     0.048 C 
HETATM    7  C18 UNL     1      22.429  -0.659  53.458  1.00  0.00     0.007 A 
HETATM    8  C17 UNL     1      23.642  -0.119  53.089  1.00  0.00     0.010 A 
ENDBRANCH   1   2
BRANCH   1   9
HETATM    9  C7  UNL     1      24.373   3.208  51.586  1.00  0.00     0.070 C 
BRANCH   9  10
HETATM   10  C8  UNL     1      25.178   4.009  50.627  1.00  0.00    -0.056 A 
HETATM   11  C9  UNL     1      26.255   3.361  50.020  1.00  0.00     0.007 A 
HETATM   12  C10 UNL     1      27.095   3.993  49.090  1.00  0.00     0.001 A 
HETATM   13  C11 UNL     1      26.859   5.305  48.753  1.00  0.00     0.000 A 
HETATM   14  C12 UNL     1      25.788   5.938  49.362  1.00  0.00     0.001 A 
HETATM   15  C13 UNL     1      24.969   5.321  50.269  1.00  0.00     0.007 A 
ENDBRANCH   9  10
ENDBRANCH   1   9
BRANCH   1  16
HETATM   16  N1  UNL     1      25.908   1.737  52.776  1.00  0.00    -0.283 N 
BRANCH  16  17
HETATM   17  N2  UNL     1      25.668   2.734  53.726  1.00  0.00    -0.245 NA
HETATM   18  H14 UNL     1      25.906   2.370  54.688  1.00  0.00     0.143 HD
HETATM   19  H15 UNL     1      26.159   3.615  53.547  1.00  0.00     0.143 HD
ENDBRANCH  16  17
BRANCH  16  20
HETATM   20  C14 UNL     1      27.081   0.982  53.103  1.00  0.00     0.186 A 
HETATM   21  N3  UNL     1      27.343  -0.148  53.114  1.00  0.00    -0.199 NA
HETATM   22  C15 UNL     1      28.521  -0.683  53.440  1.00  0.00     0.171 A 
HETATM   23  C16 UNL     1      29.546   0.168  53.804  1.00  0.00     0.111 A 
HETATM   24  S1  UNL     1      28.709   1.796  53.647  1.00  0.00    -0.058 SA
BRANCH  22  25
HETATM   25  O1  UNL     1      28.993  -2.007  53.504  1.00  0.00    -0.344 OA
HETATM   26  H16 UNL     1      28.993  -2.571  52.661  1.00  0.00     0.219 HD
ENDBRANCH  22  25
ENDBRANCH  16  20
ENDBRANCH   1  16
TORSDOF 7
ENDMDL
MODEL 9
REMARK VINA RESULT:      -7.9      1.932      2.691
REMARK  7 active torsions:
REMARK  status: ('A' for Active; 'I' for Inactive)
REMARK    1  A    between atoms: C5_5  and  C6_6 
REMARK    2  A    between atoms: C6_6  and  C7_7 
REMARK    3  A    between atoms: C6_6  and  N1_14 
REMARK    4  A    between atoms: C7_7  and  C8_8 
REMARK    5  A    between atoms: N1_14  and  N2_15 
REMARK    6  A    between atoms: N1_14  and  C14_16 
REMARK    7  A    between atoms: C15_18  and  O1_19 
ROOT
HETATM    1  C6  UNL     1      24.264   0.497  53.735  1.00  0.00     0.142 C 
ENDROOT
BRANCH   1   2
HETATM    2  C5  UNL     1      24.533   1.643  52.788  1.00  0.00    -0.034 A 
HETATM    3  C4  UNL     1      25.369   1.259  51.740  1.00  0.00     0.010 A 
HETATM    4  C3  UNL     1      25.736   2.134  50.738  1.00  0.00     0.007 A 
HETATM    5  C2  UNL     1      25.276   3.426  50.753  1.00  0.00    -0.062 A 
HETATM    6  C1  UNL     1      25.661   4.385  49.681  1.00  0.00     0.048 C 
HETATM    7  C18 UNL     1      24.443   3.811  51.795  1.00  0.00     0.007 A 
HETATM    8  C17 UNL     1      24.074   2.940  52.797  1.00  0.00     0.010 A 
ENDBRANCH   1   2
BRANCH   1   9
HETATM    9  C7  UNL     1      23.604  -0.568  52.914  1.00  0.00     0.070 C 
BRANCH   9  10
HETATM   10  C8  UNL     1      22.161  -0.331  52.642  1.00  0.00    -0.056 A 
HETATM   11  C9  UNL     1      21.267  -0.687  53.652  1.00  0.00     0.007 A 
HETATM   12  C10 UNL     1      19.880  -0.513  53.535  1.00  0.00     0.001 A 
HETATM   13  C11 UNL     1      19.365   0.031  52.381  1.00  0.00     0.000 A 
HETATM   14  C12 UNL     1      20.262   0.380  51.384  1.00  0.00     0.001 A 
HETATM   15  C13 UNL     1      21.615   0.210  51.500  1.00  0.00     0.007 A 
ENDBRANCH   9  10
ENDBRANCH   1   9
BRANCH   1  16
HETATM   16  N1  UNL     1      25.543   0.067  54.245  1.00  0.00    -0.283 N 
BRANCH  16  17
HETATM   17  N2  UNL     1      25.328  -1.049  55.059  1.00  0.00    -0.245 NA
HETATM   18  H14 UNL     1      26.111  -1.129  55.763  1.00  0.00     0.143 HD
HETATM   19  H15 UNL     1      24.420  -1.057  55.533  1.00  0.00     0.143 HD
ENDBRANCH  16  17
BRANCH  16  20
HETATM   20  C14 UNL     1      26.936   0.397  54.175  1.00  0.00     0.186 A 
HETATM   21  N3  UNL     1      27.584   1.274  54.570  1.00  0.00    -0.199 NA
HETATM   22  C15 UNL     1      28.903   1.412  54.419  1.00  0.00     0.171 A 
HETATM   23  C16 UNL     1      29.588   0.431  53.730  1.00  0.00     0.111 A 
HETATM   24  S1  UNL     1      28.212  -0.713  53.309  1.00  0.00    -0.058 SA
BRANCH  22  25
HETATM   25  O1  UNL     1      29.821   2.397  54.828  1.00  0.00    -0.344 OA
HETATM   26  H16 UNL     1      29.563   3.029  55.577  1.00  0.00     0.219 HD
ENDBRANCH  22  25
ENDBRANCH  16  20
ENDBRANCH   1  16
TORSDOF 7
ENDMDL
