MODEL 1
REMARK VINA RESULT:      -8.5      0.000      0.000
REMARK  3 active torsions:
REMARK  status: ('A' for Active; 'I' for Inactive)
REMARK    1  A    between atoms: O1_1  and  C1_2 
REMARK    2  A    between atoms: C7_10  and  N2_11 
REMARK    3  A    between atoms: N2_11  and  C8_12 
ROOT
HETATM    1  C1  UNL     1      29.204  -2.305  53.283  1.00  0.00     0.138 C 
HETATM    2  C2  UNL     1      28.605  -1.123  53.367  1.00  0.00    -0.007 C 
HETATM    3  C3  UNL     1      29.592  -0.068  53.676  1.00  0.00     0.208 C 
HETATM    4  O2  UNL     1      29.079   1.120  54.234  1.00  0.00    -0.351 OA
HETATM    5  C4  UNL     1      27.798   0.973  54.095  1.00  0.00     0.390 C 
HETATM    6  C5  UNL     1      27.612   0.915  52.584  1.00  0.00     0.341 C 
HETATM    7  N1  UNL     1      26.499   0.011  52.690  1.00  0.00     0.149 N 
HETATM    8  C6  UNL     1      27.127  -1.206  53.130  1.00  0.00     0.316 C 
HETATM    9  C7  UNL     1      25.715   0.716  53.725  1.00  0.00     0.561 C 
HETATM   10  N3  UNL     1      26.662   1.705  54.320  1.00  0.00     0.167 N 
HETATM   11  H15 UNL     1      26.406   1.902  55.291  1.00  0.00     0.324 HD
ENDROOT
BRANCH   9  12
HETATM   12  N2  UNL     1      24.741   1.526  53.033  1.00  0.00    -0.336 N 
HETATM   13  H11 UNL     1      24.953   2.536  52.784  1.00  0.00     0.163 HD
BRANCH  12  14
HETATM   14  C8  UNL     1      23.458   1.075  52.631  1.00  0.00     0.032 A 
HETATM   15  C9  UNL     1      22.832   1.452  51.461  1.00  0.00     0.032 A 
HETATM   16  C10 UNL     1      21.592   1.012  51.063  1.00  0.00     0.046 A 
HETATM   17  C11 UNL     1      20.894   0.137  51.856  1.00  0.00     0.138 A 
HETATM   18  F1  UNL     1      19.676  -0.346  51.547  1.00  0.00    -0.204 F 
HETATM   19  C12 UNL     1      21.468  -0.271  53.027  1.00  0.00     0.074 A 
HETATM   20 CL1  UNL     1      20.633  -1.393  54.094  1.00  0.00    -0.081 Cl
HETATM   21  C13 UNL     1      22.712   0.194  53.387  1.00  0.00     0.056 A 
ENDBRANCH  12  14
ENDBRANCH   9  12
BRANCH   1  22
HETATM   22  O1  UNL     1      28.512  -3.475  53.002  1.00  0.00    -0.372 OA
HETATM   23  H1  UNL     1      28.851  -4.228  52.434  1.00  0.00     0.216 HD
ENDBRANCH   1  22
TORSDOF 3
ENDMDL
MODEL 2
REMARK VINA RESULT:      -8.3      1.845      2.162
REMARK  3 active torsions:
REMARK  status: ('A' for Active; 'I' for Inactive)
REMARK    1  A    between atoms: O1_1  and  C1_2 
REMARK    2  A    between atoms: C7_10  and  N2_11 
REMARK    3  A    between atoms: N2_11  and  C8_12 
ROOT
HETATM    1  C1  UNL     1      29.004  -2.169  53.245  1.00  0.00     0.138 C 
HETATM    2  C2  UNL     1      28.458  -0.971  53.422  1.00  0.00    -0.007 C 
HETATM    3  C3  UNL     1      29.456  -0.029  53.967  1.00  0.00     0.208 C 
HETATM    4  O2  UNL     1      28.943   1.109  54.621  1.00  0.00    -0.351 OA
HETATM    5  C4  UNL     1      27.680   1.063  54.331  1.00  0.00     0.390 C 
HETATM    6  C5  UNL     1      27.660   1.207  52.815  1.00  0.00     0.341 C 
HETATM    7  N1  UNL     1      26.499   0.369  52.685  1.00  0.00     0.149 N 
HETATM    8  C6  UNL     1      27.013  -0.931  53.023  1.00  0.00     0.316 C 
HETATM    9  C7  UNL     1      25.641   0.987  53.716  1.00  0.00     0.561 C 
HETATM   10  N3  UNL     1      26.563   1.831  54.531  1.00  0.00     0.167 N 
HETATM   11  H15 UNL     1      26.211   1.920  55.489  1.00  0.00     0.324 HD
ENDROOT
BRANCH   9  12
HETATM   12  N2  UNL     1      24.790   1.937  53.040  1.00  0.00    -0.336 N 
HETATM   13  H11 UNL     1      24.911   2.980  53.196  1.00  0.00     0.163 HD
BRANCH  12  14
HETATM   14  C8  UNL     1      23.754   1.590  52.135  1.00  0.00     0.032 A 
HETATM   15  C9  UNL     1      22.733   0.709  52.423  1.00  0.00     0.032 A 
HETATM   16  C10 UNL     1      21.723   0.374  51.554  1.00  0.00     0.046 A 
HETATM   17  C11 UNL     1      21.692   0.933  50.301  1.00  0.00     0.138 A 
HETATM   18  F1  UNL     1      20.742   0.665  49.385  1.00  0.00    -0.204 F 
HETATM   19  C12 UNL     1      22.680   1.814  49.963  1.00  0.00     0.074 A 
HETATM   20 CL1  UNL     1      22.703   2.570  48.375  1.00  0.00    -0.081 Cl
HETATM   21  C13 UNL     1      23.672   2.122  50.864  1.00  0.00     0.056 A 
ENDBRANCH  12  14
ENDBRANCH   9  12
BRANCH   1  22
HETATM   22  O1  UNL     1      28.290  -3.249  52.742  1.00  0.00    -0.372 OA
HETATM   23  H1  UNL     1      28.341  -3.591  51.801  1.00  0.00     0.216 HD
ENDBRANCH   1  22
TORSDOF 3
ENDMDL
MODEL 3
REMARK VINA RESULT:      -7.6      4.141      6.678
REMARK  3 active torsions:
REMARK  status: ('A' for Active; 'I' for Inactive)
REMARK    1  A    between atoms: O1_1  and  C1_2 
REMARK    2  A    between atoms: C7_10  and  N2_11 
REMARK    3  A    between atoms: N2_11  and  C8_12 
ROOT
HETATM    1  C1  UNL     1      20.577  -0.116  54.164  1.00  0.00     0.138 C 
HETATM    2  C2  UNL     1      21.427   0.595  53.432  1.00  0.00    -0.007 C 
HETATM    3  C3  UNL     1      20.712   1.672  52.718  1.00  0.00     0.208 C 
HETATM    4  O2  UNL     1      21.361   2.205  51.586  1.00  0.00    -0.351 OA
HETATM    5  C4  UNL     1      22.548   1.687  51.665  1.00  0.00     0.390 C 
HETATM    6  C5  UNL     1      23.094   2.255  52.968  1.00  0.00     0.341 C 
HETATM    7  N1  UNL     1      23.860   1.069  53.240  1.00  0.00     0.149 N 
HETATM    8  C6  UNL     1      22.838   0.103  53.545  1.00  0.00     0.316 C 
HETATM    9  C7  UNL     1      24.508   0.895  51.925  1.00  0.00     0.561 C 
HETATM   10  N3  UNL     1      23.740   1.774  50.995  1.00  0.00     0.167 N 
HETATM   11  H15 UNL     1      23.779   1.404  50.042  1.00  0.00     0.324 HD
ENDROOT
BRANCH   9  12
HETATM   12  N2  UNL     1      25.808   1.518  52.013  1.00  0.00    -0.336 N 
HETATM   13  H11 UNL     1      25.959   2.509  51.665  1.00  0.00     0.163 HD
BRANCH  12  14
HETATM   14  C8  UNL     1      26.964   0.897  52.552  1.00  0.00     0.032 A 
HETATM   15  C9  UNL     1      28.004   1.576  53.151  1.00  0.00     0.032 A 
HETATM   16  C10 UNL     1      29.123   0.980  53.682  1.00  0.00     0.046 A 
HETATM   17  C11 UNL     1      29.254  -0.385  53.631  1.00  0.00     0.138 A 
HETATM   18  F1  UNL     1      30.313  -1.054  54.125  1.00  0.00    -0.204 F 
HETATM   19  C12 UNL     1      28.252  -1.108  53.049  1.00  0.00     0.074 A 
HETATM   20 CL1  UNL     1      28.351  -2.861  52.950  1.00  0.00    -0.081 Cl
HETATM   21  C13 UNL     1      27.148  -0.470  52.531  1.00  0.00     0.056 A 
ENDBRANCH  12  14
ENDBRANCH   9  12
BRANCH   1  22
HETATM   22  O1  UNL     1      20.980  -1.194  54.941  1.00  0.00    -0.372 OA
HETATM   23  H1  UNL     1      21.883  -1.628  54.908  1.00  0.00     0.216 HD
ENDBRANCH   1  22
TORSDOF 3
ENDMDL
MODEL 4
REMARK VINA RESULT:      -7.4      1.863      3.001
REMARK  3 active torsions:
REMARK  status: ('A' for Active; 'I' for Inactive)
REMARK    1  A    between atoms: O1_1  and  C1_2 
REMARK    2  A    between atoms: C7_10  and  N2_11 
REMARK    3  A    between atoms: N2_11  and  C8_12 
ROOT
HETATM    1  C1  UNL     1      29.161   1.908  53.482  1.00  0.00     0.138 C 
HETATM    2  C2  UNL     1      28.110   1.111  53.633  1.00  0.00    -0.007 C 
HETATM    3  C3  UNL     1      28.544  -0.234  54.064  1.00  0.00     0.208 C 
HETATM    4  O2  UNL     1      27.635  -1.285  53.832  1.00  0.00    -0.351 OA
HETATM    5  C4  UNL     1      26.555  -0.658  53.479  1.00  0.00     0.390 C 
HETATM    6  C5  UNL     1      26.198   0.152  54.719  1.00  0.00     0.341 C 
HETATM    7  N1  UNL     1      25.645   1.225  53.937  1.00  0.00     0.149 N 
HETATM    8  C6  UNL     1      26.814   1.799  53.325  1.00  0.00     0.316 C 
HETATM    9  C7  UNL     1      24.787   0.441  53.026  1.00  0.00     0.561 C 
HETATM   10  N3  UNL     1      25.256  -0.969  53.170  1.00  0.00     0.167 N 
HETATM   11  H15 UNL     1      25.084  -1.491  52.307  1.00  0.00     0.324 HD
ENDROOT
BRANCH   9  12
HETATM   12  N2  UNL     1      23.462   0.437  53.599  1.00  0.00    -0.336 N 
HETATM   13  H11 UNL     1      23.326   0.479  54.652  1.00  0.00     0.163 HD
BRANCH  12  14
HETATM   14  C8  UNL     1      22.259   0.379  52.849  1.00  0.00     0.032 A 
HETATM   15  C9  UNL     1      21.027   0.061  53.379  1.00  0.00     0.032 A 
HETATM   16  C10 UNL     1      19.857   0.011  52.659  1.00  0.00     0.046 A 
HETATM   17  C11 UNL     1      19.874   0.290  51.315  1.00  0.00     0.138 A 
HETATM   18  F1  UNL     1      18.779   0.266  50.532  1.00  0.00    -0.204 F 
HETATM   19  C12 UNL     1      21.070   0.612  50.739  1.00  0.00     0.074 A 
HETATM   20 CL1  UNL     1      21.167   0.982  49.022  1.00  0.00    -0.081 Cl
HETATM   21  C13 UNL     1      22.217   0.651  51.497  1.00  0.00     0.056 A 
ENDBRANCH  12  14
ENDBRANCH   9  12
BRANCH   1  22
HETATM   22  O1  UNL     1      29.043   3.232  53.083  1.00  0.00    -0.372 OA
HETATM   23  H1  UNL     1      28.331   3.595  52.476  1.00  0.00     0.216 HD
ENDBRANCH   1  22
TORSDOF 3
ENDMDL
MODEL 5
REMARK VINA RESULT:      -7.4      4.690      7.416
REMARK  3 active torsions:
REMARK  status: ('A' for Active; 'I' for Inactive)
REMARK    1  A    between atoms: O1_1  and  C1_2 
REMARK    2  A    between atoms: C7_10  and  N2_11 
REMARK    3  A    between atoms: N2_11  and  C8_12 
ROOT
HETATM    1  C1  UNL     1      17.865  -1.060  53.031  1.00  0.00     0.138 C 
HETATM    2  C2  UNL     1      18.946  -0.391  52.646  1.00  0.00    -0.007 C 
HETATM    3  C3  UNL     1      18.655   0.401  51.434  1.00  0.00     0.208 C 
HETATM    4  O2  UNL     1      19.768   0.786  50.660  1.00  0.00    -0.351 OA
HETATM    5  C4  UNL     1      20.770   0.476  51.424  1.00  0.00     0.390 C 
HETATM    6  C5  UNL     1      20.574   1.371  52.641  1.00  0.00     0.341 C 
HETATM    7  N1  UNL     1      21.134   0.390  53.532  1.00  0.00     0.149 N 
HETATM    8  C6  UNL     1      20.125  -0.636  53.539  1.00  0.00     0.316 C 
HETATM    9  C7  UNL     1      22.358   0.054  52.779  1.00  0.00     0.561 C 
HETATM   10  N3  UNL     1      22.134   0.604  51.410  1.00  0.00     0.167 N 
HETATM   11  H15 UNL     1      22.656   0.059  50.718  1.00  0.00     0.324 HD
ENDROOT
BRANCH   9  12
HETATM   12  N2  UNL     1      23.420   0.868  53.321  1.00  0.00    -0.336 N 
HETATM   13  H11 UNL     1      23.206   1.793  53.797  1.00  0.00     0.163 HD
BRANCH  12  14
HETATM   14  C8  UNL     1      24.797   0.531  53.277  1.00  0.00     0.032 A 
HETATM   15  C9  UNL     1      25.279  -0.747  53.085  1.00  0.00     0.032 A 
HETATM   16  C10 UNL     1      26.612  -1.079  53.033  1.00  0.00     0.046 A 
HETATM   17  C11 UNL     1      27.562  -0.100  53.181  1.00  0.00     0.138 A 
HETATM   18  F1  UNL     1      28.887  -0.332  53.145  1.00  0.00    -0.204 F 
HETATM   19  C12 UNL     1      27.140   1.185  53.374  1.00  0.00     0.074 A 
HETATM   20 CL1  UNL     1      28.301   2.491  53.570  1.00  0.00    -0.081 Cl
HETATM   21  C13 UNL     1      25.795   1.473  53.418  1.00  0.00     0.056 A 
ENDBRANCH  12  14
ENDBRANCH   9  12
BRANCH   1  22
HETATM   22  O1  UNL     1      17.856  -1.887  54.146  1.00  0.00    -0.372 OA
HETATM   23  H1  UNL     1      18.241  -2.811  54.187  1.00  0.00     0.216 HD
ENDBRANCH   1  22
TORSDOF 3
ENDMDL
MODEL 6
REMARK VINA RESULT:      -7.2      4.417      7.177
REMARK  3 active torsions:
REMARK  status: ('A' for Active; 'I' for Inactive)
REMARK    1  A    between atoms: O1_1  and  C1_2 
REMARK    2  A    between atoms: C7_10  and  N2_11 
REMARK    3  A    between atoms: N2_11  and  C8_12 
ROOT
HETATM    1  C1  UNL     1      20.626   3.269  52.214  1.00  0.00     0.138 C 
HETATM    2  C2  UNL     1      21.161   2.099  52.544  1.00  0.00    -0.007 C 
HETATM    3  C3  UNL     1      20.104   1.143  52.930  1.00  0.00     0.208 C 
HETATM    4  O2  UNL     1      20.512   0.049  53.718  1.00  0.00    -0.351 OA
HETATM    5  C4  UNL     1      21.806   0.130  53.674  1.00  0.00     0.390 C 
HETATM    6  C5  UNL     1      22.121  -0.071  52.197  1.00  0.00     0.341 C 
HETATM    7  N1  UNL     1      23.261   0.802  52.255  1.00  0.00     0.149 N 
HETATM    8  C6  UNL     1      22.656   2.095  52.431  1.00  0.00     0.316 C 
HETATM    9  C7  UNL     1      23.922   0.255  53.457  1.00  0.00     0.561 C 
HETATM   10  N3  UNL     1      22.884  -0.591  54.117  1.00  0.00     0.167 N 
HETATM   11  H15 UNL     1      23.048  -0.631  55.127  1.00  0.00     0.324 HD
ENDROOT
BRANCH   9  12
HETATM   12  N2  UNL     1      24.913  -0.689  52.997  1.00  0.00    -0.336 N 
HETATM   13  H11 UNL     1      24.621  -1.592  52.520  1.00  0.00     0.163 HD
BRANCH  12  14
HETATM   14  C8  UNL     1      26.314  -0.514  53.128  1.00  0.00     0.032 A 
HETATM   15  C9  UNL     1      27.237  -1.536  53.043  1.00  0.00     0.032 A 
HETATM   16  C10 UNL     1      28.596  -1.372  53.161  1.00  0.00     0.046 A 
HETATM   17  C11 UNL     1      29.112  -0.120  53.381  1.00  0.00     0.138 A 
HETATM   18  F1  UNL     1      30.428   0.135  53.510  1.00  0.00    -0.204 F 
HETATM   19  C12 UNL     1      28.243   0.930  53.473  1.00  0.00     0.074 A 
HETATM   20 CL1  UNL     1      28.833   2.563  53.752  1.00  0.00    -0.081 Cl
HETATM   21  C13 UNL     1      26.889   0.721  53.348  1.00  0.00     0.056 A 
ENDBRANCH  12  14
ENDBRANCH   9  12
BRANCH   1  22
HETATM   22  O1  UNL     1      21.393   4.354  51.810  1.00  0.00    -0.372 OA
HETATM   23  H1  UNL     1      21.551   5.186  52.348  1.00  0.00     0.216 HD
ENDBRANCH   1  22
TORSDOF 3
ENDMDL
MODEL 7
REMARK VINA RESULT:      -7.2      4.516      7.114
REMARK  3 active torsions:
REMARK  status: ('A' for Active; 'I' for Inactive)
REMARK    1  A    between atoms: O1_1  and  C1_2 
REMARK    2  A    between atoms: C7_10  and  N2_11 
REMARK    3  A    between atoms: N2_11  and  C8_12 
ROOT
HETATM    1  C1  UNL     1      20.543   3.817  51.617  1.00  0.00     0.138 C 
HETATM    2  C2  UNL     1      21.820   3.869  51.255  1.00  0.00    -0.007 C 
HETATM    3  C3  UNL     1      21.975   4.685  50.035  1.00  0.00     0.208 C 
HETATM    4  O2  UNL     1      23.149   4.469  49.287  1.00  0.00    -0.351 OA
HETATM    5  C4  UNL     1      23.859   3.721  50.075  1.00  0.00     0.390 C 
HETATM    6  C5  UNL     1      24.099   4.615  51.285  1.00  0.00     0.341 C 
HETATM    7  N1  UNL     1      24.093   3.499  52.191  1.00  0.00     0.149 N 
HETATM    8  C6  UNL     1      22.713   3.094  52.178  1.00  0.00     0.316 C 
HETATM    9  C7  UNL     1      25.014   2.598  51.469  1.00  0.00     0.561 C 
HETATM   10  N3  UNL     1      25.112   3.168  50.093  1.00  0.00     0.167 N 
HETATM   11  H15 UNL     1      25.316   2.429  49.415  1.00  0.00     0.324 HD
ENDROOT
BRANCH   9  12
HETATM   12  N2  UNL     1      26.327   2.800  52.034  1.00  0.00    -0.336 N 
HETATM   13  H11 UNL     1      26.747   3.773  52.096  1.00  0.00     0.163 HD
BRANCH  12  14
HETATM   14  C8  UNL     1      27.152   1.765  52.544  1.00  0.00     0.032 A 
HETATM   15  C9  UNL     1      28.309   1.977  53.265  1.00  0.00     0.032 A 
HETATM   16  C10 UNL     1      29.109   0.979  53.768  1.00  0.00     0.046 A 
HETATM   17  C11 UNL     1      28.769  -0.334  53.559  1.00  0.00     0.138 A 
HETATM   18  F1  UNL     1      29.491  -1.375  54.014  1.00  0.00    -0.204 F 
HETATM   19  C12 UNL     1      27.631  -0.601  52.852  1.00  0.00     0.074 A 
HETATM   20 CL1  UNL     1      27.132  -2.260  52.547  1.00  0.00    -0.081 Cl
HETATM   21  C13 UNL     1      26.859   0.429  52.367  1.00  0.00     0.056 A 
ENDBRANCH  12  14
ENDBRANCH   9  12
BRANCH   1  22
HETATM   22  O1  UNL     1      20.111   3.115  52.734  1.00  0.00    -0.372 OA
HETATM   23  H1  UNL     1      20.704   2.634  53.383  1.00  0.00     0.216 HD
ENDBRANCH   1  22
TORSDOF 3
ENDMDL
MODEL 8
REMARK VINA RESULT:      -7.2      4.537      7.299
REMARK  3 active torsions:
REMARK  status: ('A' for Active; 'I' for Inactive)
REMARK    1  A    between atoms: O1_1  and  C1_2 
REMARK    2  A    between atoms: C7_10  and  N2_11 
REMARK    3  A    between atoms: N2_11  and  C8_12 
ROOT
HETATM    1  C1  UNL     1      17.804  -0.918  52.849  1.00  0.00     0.138 C 
HETATM    2  C2  UNL     1      18.905  -0.267  52.492  1.00  0.00    -0.007 C 
HETATM    3  C3  UNL     1      18.685   0.455  51.222  1.00  0.00     0.208 C 
HETATM    4  O2  UNL     1      19.842   0.801  50.496  1.00  0.00    -0.351 OA
HETATM    5  C4  UNL     1      20.797   0.540  51.334  1.00  0.00     0.390 C 
HETATM    6  C5  UNL     1      20.527   1.500  52.485  1.00  0.00     0.341 C 
HETATM    7  N1  UNL     1      21.034   0.574  53.461  1.00  0.00     0.149 N 
HETATM    8  C6  UNL     1      20.029  -0.455  53.466  1.00  0.00     0.316 C 
HETATM    9  C7  UNL     1      22.302   0.202  52.803  1.00  0.00     0.561 C 
HETATM   10  N3  UNL     1      22.159   0.673  51.394  1.00  0.00     0.167 N 
HETATM   11  H15 UNL     1      22.723   0.093  50.766  1.00  0.00     0.324 HD
ENDROOT
BRANCH   9  12
HETATM   12  N2  UNL     1      23.329   1.051  53.361  1.00  0.00    -0.336 N 
HETATM   13  H11 UNL     1      23.073   1.941  53.881  1.00  0.00     0.163 HD
BRANCH  12  14
HETATM   14  C8  UNL     1      24.721   0.793  53.278  1.00  0.00     0.032 A 
HETATM   15  C9  UNL     1      25.701   1.743  53.471  1.00  0.00     0.032 A 
HETATM   16  C10 UNL     1      27.051   1.498  53.399  1.00  0.00     0.046 A 
HETATM   17  C11 UNL     1      27.498   0.232  53.116  1.00  0.00     0.138 A 
HETATM   18  F1  UNL     1      28.799  -0.101  53.026  1.00  0.00    -0.204 F 
HETATM   19  C12 UNL     1      26.569  -0.750  52.916  1.00  0.00     0.074 A 
HETATM   20 CL1  UNL     1      27.067  -2.397  52.551  1.00  0.00    -0.081 Cl
HETATM   21  C13 UNL     1      25.226  -0.461  52.998  1.00  0.00     0.056 A 
ENDBRANCH  12  14
ENDBRANCH   9  12
BRANCH   1  22
HETATM   22  O1  UNL     1      17.729  -1.681  54.006  1.00  0.00    -0.372 OA
HETATM   23  H1  UNL     1      18.460  -1.778  54.686  1.00  0.00     0.216 HD
ENDBRANCH   1  22
TORSDOF 3
ENDMDL
MODEL 9
REMARK VINA RESULT:      -7.1      5.109      5.925
REMARK  3 active torsions:
REMARK  status: ('A' for Active; 'I' for Inactive)
REMARK    1  A    between atoms: O1_1  and  C1_2 
REMARK    2  A    between atoms: C7_10  and  N2_11 
REMARK    3  A    between atoms: N2_11  and  C8_12 
ROOT
HETATM    1  C1  UNL     1      24.299  -0.889  54.840  1.00  0.00     0.138 C 
HETATM    2  C2  UNL     1      25.175  -0.124  54.199  1.00  0.00    -0.007 C 
HETATM    3  C3  UNL     1      26.461  -0.097  54.925  1.00  0.00     0.208 C 
HETATM    4  O2  UNL     1      27.312   0.989  54.643  1.00  0.00    -0.351 OA
HETATM    5  C4  UNL     1      26.744   1.540  53.616  1.00  0.00     0.390 C 
HETATM    6  C5  UNL     1      26.816   0.455  52.549  1.00  0.00     0.341 C 
HETATM    7  N1  UNL     1      25.573   0.867  51.954  1.00  0.00     0.149 N 
HETATM    8  C6  UNL     1      24.609   0.480  52.949  1.00  0.00     0.316 C 
HETATM    9  C7  UNL     1      25.821   2.320  51.860  1.00  0.00     0.561 C 
HETATM   10  N3  UNL     1      26.996   2.569  52.746  1.00  0.00     0.167 N 
HETATM   11  H15 UNL     1      26.966   3.523  53.116  1.00  0.00     0.324 HD
ENDROOT
BRANCH   9  12
HETATM   12  N2  UNL     1      26.318   2.574  50.529  1.00  0.00    -0.336 N 
HETATM   13  H11 UNL     1      26.808   1.810  49.977  1.00  0.00     0.163 HD
BRANCH  12  14
HETATM   14  C8  UNL     1      26.205   3.815  49.850  1.00  0.00     0.032 A 
HETATM   15  C9  UNL     1      25.039   4.544  49.752  1.00  0.00     0.032 A 
HETATM   16  C10 UNL     1      24.926   5.750  49.102  1.00  0.00     0.046 A 
HETATM   17  C11 UNL     1      26.026   6.301  48.495  1.00  0.00     0.138 A 
HETATM   18  F1  UNL     1      26.009   7.476  47.838  1.00  0.00    -0.204 F 
HETATM   19  C12 UNL     1      27.209   5.620  48.563  1.00  0.00     0.074 A 
HETATM   20 CL1  UNL     1      28.661   6.266  47.809  1.00  0.00    -0.081 Cl
HETATM   21  C13 UNL     1      27.278   4.416  49.224  1.00  0.00     0.056 A 
ENDBRANCH  12  14
ENDBRANCH   9  12
BRANCH   1  22
HETATM   22  O1  UNL     1      23.005  -1.092  54.378  1.00  0.00    -0.372 OA
HETATM   23  H1  UNL     1      22.401  -0.381  54.011  1.00  0.00     0.216 HD
ENDBRANCH   1  22
TORSDOF 3
ENDMDL
