MODEL 1
REMARK VINA RESULT:      -9.3      0.000      0.000
REMARK  5 active torsions:
REMARK  status: ('A' for Active; 'I' for Inactive)
REMARK    1  A    between atoms: C5_7  and  C6_8 
REMARK    2  A    between atoms: C6_8  and  C7_9 
REMARK    3  A    between atoms: C7_9  and  O2_10 
REMARK    4  A    between atoms: O2_10  and  C8_11 
REMARK    5  A    between atoms: C19_25  and  O3_26 
ROOT
HETATM    1  C8  UNL     1      24.536   2.741  52.480  1.00  0.00     0.139 C 
HETATM    2  C9  UNL     1      23.395   1.776  52.128  1.00  0.00     0.044 C 
HETATM    3  C10 UNL     1      23.616   0.628  53.104  1.00  0.00    -0.019 C 
HETATM    4  C11 UNL     1      22.601  -0.407  53.298  1.00  0.00     0.017 C 
HETATM    5  C12 UNL     1      24.751   0.669  53.734  1.00  0.00     0.051 A 
HETATM    6  C13 UNL     1      26.070   1.321  54.157  1.00  0.00     0.128 A 
HETATM    7  N2  UNL     1      26.997   0.765  54.827  1.00  0.00    -0.266 NA
HETATM    8  C14 UNL     1      28.293   1.089  54.497  1.00  0.00     0.225 A 
HETATM    9  N3  UNL     1      28.064   1.959  53.460  1.00  0.00    -0.248 NA
HETATM   10  C15 UNL     1      26.746   2.197  53.145  1.00  0.00     0.166 A 
HETATM   11  C16 UNL     1      25.366   1.998  53.358  1.00  0.00     0.080 A 
HETATM   12  N4  UNL     1      26.989   2.661  51.769  1.00  0.00    -0.392 N 
HETATM   13  C17 UNL     1      26.795   1.359  51.058  1.00  0.00     0.124 C 
HETATM   14  C18 UNL     1      26.433   0.287  52.072  1.00  0.00     0.052 C 
HETATM   15  C19 UNL     1      26.382  -0.860  52.874  1.00  0.00     0.129 C 
HETATM   16  C20 UNL     1      25.162  -0.794  53.887  1.00  0.00     0.221 C 
HETATM   17  F1  UNL     1      25.702  -1.057  55.098  1.00  0.00    -0.245 F 
HETATM   18  H20 UNL     1      27.183   3.658  51.883  1.00  0.00     0.155 HD
ENDROOT
BRANCH   1  19
HETATM   19  O2  UNL     1      24.024   3.908  53.107  1.00  0.00    -0.385 OA
BRANCH  19  20
HETATM   20  C7  UNL     1      23.619   4.824  52.132  1.00  0.00     0.170 C 
BRANCH  20  21
HETATM   21  C6  UNL     1      24.503   4.652  50.940  1.00  0.00     0.066 C 
BRANCH  21  22
HETATM   22  C5  UNL     1      24.726   5.931  50.178  1.00  0.00     0.255 C 
HETATM   23  C2  UNL     1      25.887   5.681  49.251  1.00  0.00    -0.033 C 
HETATM   24  C1  UNL     1      26.720   4.684  49.020  1.00  0.00     0.019 C 
HETATM   25  C3  UNL     1      26.229   6.820  48.331  1.00  0.00     0.205 C 
HETATM   26  O1  UNL     1      25.633   7.948  48.960  1.00  0.00    -0.358 OA
HETATM   27  C4  UNL     1      25.965   7.939  50.320  1.00  0.00     0.438 C 
HETATM   28  N1  UNL     1      25.140   7.012  51.059  1.00  0.00     0.115 N 
HETATM   29  H7  UNL     1      24.297   7.552  51.412  1.00  0.00     0.319 HD
ENDBRANCH  21  22
ENDBRANCH  20  21
ENDBRANCH  19  20
ENDBRANCH   1  19
BRANCH  15  30
HETATM   30  O3  UNL     1      26.982  -2.077  53.169  1.00  0.00    -0.383 OA
HETATM   31  H24 UNL     1      27.995  -2.090  53.142  1.00  0.00     0.210 HD
ENDBRANCH  15  30
TORSDOF 5
ENDMDL
MODEL 2
REMARK VINA RESULT:      -9.0      2.874      6.216
REMARK  5 active torsions:
REMARK  status: ('A' for Active; 'I' for Inactive)
REMARK    1  A    between atoms: C5_7  and  C6_8 
REMARK    2  A    between atoms: C6_8  and  C7_9 
REMARK    3  A    between atoms: C7_9  and  O2_10 
REMARK    4  A    between atoms: O2_10  and  C8_11 
REMARK    5  A    between atoms: C19_25  and  O3_26 
ROOT
HETATM    1  C8  UNL     1      23.906   1.068  52.893  1.00  0.00     0.139 C 
HETATM    2  C9  UNL     1      22.465   0.627  53.187  1.00  0.00     0.044 C 
HETATM    3  C10 UNL     1      21.768   0.862  51.854  1.00  0.00    -0.019 C 
HETATM    4  C11 UNL     1      20.427   0.335  51.597  1.00  0.00     0.017 C 
HETATM    5  C12 UNL     1      22.464   1.541  50.995  1.00  0.00     0.051 A 
HETATM    6  C13 UNL     1      23.736   2.224  50.481  1.00  0.00     0.128 A 
HETATM    7  N2  UNL     1      23.828   2.942  49.436  1.00  0.00    -0.266 NA
HETATM    8  C14 UNL     1      24.669   4.030  49.493  1.00  0.00     0.225 A 
HETATM    9  N3  UNL     1      25.114   3.919  50.787  1.00  0.00    -0.248 NA
HETATM   10  C15 UNL     1      24.626   2.854  51.509  1.00  0.00     0.166 A 
HETATM   11  C16 UNL     1      23.830   1.695  51.623  1.00  0.00     0.080 A 
HETATM   12  N4  UNL     1      24.888   3.427  52.840  1.00  0.00    -0.392 N 
HETATM   13  C17 UNL     1      23.548   4.047  53.083  1.00  0.00     0.124 C 
HETATM   14  C18 UNL     1      22.641   3.752  51.900  1.00  0.00     0.052 C 
HETATM   15  C19 UNL     1      21.781   3.829  50.797  1.00  0.00     0.129 C 
HETATM   16  C20 UNL     1      21.437   2.383  50.241  1.00  0.00     0.221 C 
HETATM   17  F1  UNL     1      21.693   2.452  48.915  1.00  0.00    -0.245 F 
HETATM   18  H20 UNL     1      25.857   3.162  53.028  1.00  0.00     0.155 HD
ENDROOT
BRANCH   1  19
HETATM   19  O2  UNL     1      24.776  -0.055  52.871  1.00  0.00    -0.385 OA
BRANCH  19  20
HETATM   20  C7  UNL     1      25.108  -0.416  54.179  1.00  0.00     0.170 C 
BRANCH  20  21
HETATM   21  C6  UNL     1      26.162   0.526  54.666  1.00  0.00     0.066 C 
BRANCH  21  22
HETATM   22  C5  UNL     1      27.552  -0.047  54.586  1.00  0.00     0.255 C 
HETATM   23  C2  UNL     1      28.389   0.960  53.842  1.00  0.00    -0.033 C 
HETATM   24  C1  UNL     1      28.174   2.118  53.246  1.00  0.00     0.019 C 
HETATM   25  C3  UNL     1      29.847   0.615  53.718  1.00  0.00     0.205 C 
HETATM   26  O1  UNL     1      29.879  -0.789  53.946  1.00  0.00    -0.358 OA
HETATM   27  C4  UNL     1      28.883  -1.397  53.172  1.00  0.00     0.438 C 
HETATM   28  N1  UNL     1      27.582  -1.263  53.787  1.00  0.00     0.115 N 
HETATM   29  H7  UNL     1      27.433  -2.118  54.399  1.00  0.00     0.319 HD
ENDBRANCH  21  22
ENDBRANCH  20  21
ENDBRANCH  19  20
ENDBRANCH   1  19
BRANCH  15  30
HETATM   30  O3  UNL     1      21.081   4.677  49.951  1.00  0.00    -0.383 OA
HETATM   31  H24 UNL     1      21.489   4.828  49.036  1.00  0.00     0.210 HD
ENDBRANCH  15  30
TORSDOF 5
ENDMDL
MODEL 3
REMARK VINA RESULT:      -8.9      2.662      6.412
REMARK  5 active torsions:
REMARK  status: ('A' for Active; 'I' for Inactive)
REMARK    1  A    between atoms: C5_7  and  C6_8 
REMARK    2  A    between atoms: C6_8  and  C7_9 
REMARK    3  A    between atoms: C7_9  and  O2_10 
REMARK    4  A    between atoms: O2_10  and  C8_11 
REMARK    5  A    between atoms: C19_25  and  O3_26 
ROOT
HETATM    1  C8  UNL     1      23.863   2.913  52.741  1.00  0.00     0.139 C 
HETATM    2  C9  UNL     1      22.726   1.880  52.711  1.00  0.00     0.044 C 
HETATM    3  C10 UNL     1      22.567   1.606  51.221  1.00  0.00    -0.019 C 
HETATM    4  C11 UNL     1      21.761   0.484  50.740  1.00  0.00     0.017 C 
HETATM    5  C12 UNL     1      23.207   2.431  50.451  1.00  0.00     0.051 A 
HETATM    6  C13 UNL     1      24.191   3.570  50.164  1.00  0.00     0.128 A 
HETATM    7  N2  UNL     1      24.384   4.123  49.035  1.00  0.00    -0.266 NA
HETATM    8  C14 UNL     1      24.628   5.477  49.034  1.00  0.00     0.225 A 
HETATM    9  N3  UNL     1      24.543   5.737  50.378  1.00  0.00    -0.248 NA
HETATM   10  C15 UNL     1      24.283   4.658  51.192  1.00  0.00     0.166 A 
HETATM   11  C16 UNL     1      24.039   3.281  51.383  1.00  0.00     0.080 A 
HETATM   12  N4  UNL     1      23.759   5.433  52.329  1.00  0.00    -0.392 N 
HETATM   13  C17 UNL     1      22.304   5.370  51.988  1.00  0.00     0.124 C 
HETATM   14  C18 UNL     1      22.123   4.550  50.721  1.00  0.00     0.052 C 
HETATM   15  C19 UNL     1      21.803   4.088  49.439  1.00  0.00     0.129 C 
HETATM   16  C20 UNL     1      22.307   2.598  49.228  1.00  0.00     0.221 C 
HETATM   17  F1  UNL     1      23.004   2.629  48.070  1.00  0.00    -0.245 F 
HETATM   18  H20 UNL     1      24.599   5.679  52.857  1.00  0.00     0.155 HD
ENDROOT
BRANCH   1  19
HETATM   19  O2  UNL     1      25.042   2.338  53.286  1.00  0.00    -0.385 OA
BRANCH  19  20
HETATM   20  C7  UNL     1      24.949   0.945  53.241  1.00  0.00     0.170 C 
BRANCH  20  21
HETATM   21  C6  UNL     1      25.989   0.441  52.294  1.00  0.00     0.066 C 
BRANCH  21  22
HETATM   22  C5  UNL     1      27.370   0.408  52.892  1.00  0.00     0.255 C 
HETATM   23  C2  UNL     1      27.787  -1.039  52.929  1.00  0.00    -0.033 C 
HETATM   24  C1  UNL     1      27.229  -2.196  52.625  1.00  0.00     0.019 C 
HETATM   25  C3  UNL     1      29.183  -1.291  53.425  1.00  0.00     0.205 C 
HETATM   26  O1  UNL     1      29.502  -0.106  54.143  1.00  0.00    -0.358 OA
HETATM   27  C4  UNL     1      28.436   0.211  54.994  1.00  0.00     0.438 C 
HETATM   28  N1  UNL     1      27.362   0.859  54.276  1.00  0.00     0.115 N 
HETATM   29  H7  UNL     1      27.533   1.905  54.330  1.00  0.00     0.319 HD
ENDBRANCH  21  22
ENDBRANCH  20  21
ENDBRANCH  19  20
ENDBRANCH   1  19
BRANCH  15  30
HETATM   30  O3  UNL     1      21.208   4.404  48.225  1.00  0.00    -0.383 OA
HETATM   31  H24 UNL     1      20.921   3.618  47.653  1.00  0.00     0.210 HD
ENDBRANCH  15  30
TORSDOF 5
ENDMDL
MODEL 4
REMARK VINA RESULT:      -8.9      2.791      7.191
REMARK  5 active torsions:
REMARK  status: ('A' for Active; 'I' for Inactive)
REMARK    1  A    between atoms: C5_7  and  C6_8 
REMARK    2  A    between atoms: C6_8  and  C7_9 
REMARK    3  A    between atoms: C7_9  and  O2_10 
REMARK    4  A    between atoms: O2_10  and  C8_11 
REMARK    5  A    between atoms: C19_25  and  O3_26 
ROOT
HETATM    1  C8  UNL     1      25.252   3.097  50.782  1.00  0.00     0.139 C 
HETATM    2  C9  UNL     1      26.361   3.068  49.720  1.00  0.00     0.044 C 
HETATM    3  C10 UNL     1      26.518   4.540  49.364  1.00  0.00    -0.019 C 
HETATM    4  C11 UNL     1      27.652   5.009  48.569  1.00  0.00     0.017 C 
HETATM    5  C12 UNL     1      25.584   5.309  49.833  1.00  0.00     0.051 A 
HETATM    6  C13 UNL     1      24.355   5.620  50.693  1.00  0.00     0.128 A 
HETATM    7  N2  UNL     1      23.694   6.707  50.686  1.00  0.00    -0.266 NA
HETATM    8  C14 UNL     1      22.330   6.613  50.842  1.00  0.00     0.225 A 
HETATM    9  N3  UNL     1      22.193   5.251  50.937  1.00  0.00    -0.248 NA
HETATM   10  C15 UNL     1      23.355   4.516  50.865  1.00  0.00     0.166 A 
HETATM   11  C16 UNL     1      24.757   4.425  50.737  1.00  0.00     0.080 A 
HETATM   12  N4  UNL     1      22.721   3.249  50.463  1.00  0.00    -0.392 N 
HETATM   13  C17 UNL     1      22.864   3.390  48.981  1.00  0.00     0.124 C 
HETATM   14  C18 UNL     1      23.583   4.692  48.670  1.00  0.00     0.052 C 
HETATM   15  C19 UNL     1      23.958   5.955  48.197  1.00  0.00     0.129 C 
HETATM   16  C20 UNL     1      25.382   6.375  48.757  1.00  0.00     0.221 C 
HETATM   17  F1  UNL     1      25.200   7.610  49.277  1.00  0.00    -0.245 F 
HETATM   18  H20 UNL     1      22.458   2.821  51.354  1.00  0.00     0.155 HD
ENDROOT
BRANCH   1  19
HETATM   19  O2  UNL     1      25.781   2.778  52.061  1.00  0.00    -0.385 OA
BRANCH  19  20
HETATM   20  C7  UNL     1      25.087   1.690  52.598  1.00  0.00     0.170 C 
BRANCH  20  21
HETATM   21  C6  UNL     1      25.864   0.450  52.295  1.00  0.00     0.066 C 
BRANCH  21  22
HETATM   22  C5  UNL     1      27.258   0.471  52.863  1.00  0.00     0.255 C 
HETATM   23  C2  UNL     1      27.724  -0.961  52.908  1.00  0.00    -0.033 C 
HETATM   24  C1  UNL     1      27.199  -2.140  52.631  1.00  0.00     0.019 C 
HETATM   25  C3  UNL     1      29.138  -1.160  53.376  1.00  0.00     0.205 C 
HETATM   26  O1  UNL     1      29.432   0.045  54.073  1.00  0.00    -0.358 OA
HETATM   27  C4  UNL     1      28.375   0.336  54.943  1.00  0.00     0.438 C 
HETATM   28  N1  UNL     1      27.265   0.939  54.241  1.00  0.00     0.115 N 
HETATM   29  H7  UNL     1      27.402   1.991  54.279  1.00  0.00     0.319 HD
ENDBRANCH  21  22
ENDBRANCH  20  21
ENDBRANCH  19  20
ENDBRANCH   1  19
BRANCH  15  30
HETATM   30  O3  UNL     1      23.585   7.040  47.415  1.00  0.00    -0.383 OA
HETATM   31  H24 UNL     1      24.279   7.370  46.754  1.00  0.00     0.210 HD
ENDBRANCH  15  30
TORSDOF 5
ENDMDL
MODEL 5
REMARK VINA RESULT:      -8.9      2.220      3.122
REMARK  5 active torsions:
REMARK  status: ('A' for Active; 'I' for Inactive)
REMARK    1  A    between atoms: C5_7  and  C6_8 
REMARK    2  A    between atoms: C6_8  and  C7_9 
REMARK    3  A    between atoms: C7_9  and  O2_10 
REMARK    4  A    between atoms: O2_10  and  C8_11 
REMARK    5  A    between atoms: C19_25  and  O3_26 
ROOT
HETATM    1  C8  UNL     1      24.434   2.644  52.470  1.00  0.00     0.139 C 
HETATM    2  C9  UNL     1      23.362   1.644  52.013  1.00  0.00     0.044 C 
HETATM    3  C10 UNL     1      23.579   0.470  52.958  1.00  0.00    -0.019 C 
HETATM    4  C11 UNL     1      22.604  -0.617  53.052  1.00  0.00     0.017 C 
HETATM    5  C12 UNL     1      24.670   0.536  53.657  1.00  0.00     0.051 A 
HETATM    6  C13 UNL     1      25.931   1.229  54.184  1.00  0.00     0.128 A 
HETATM    7  N2  UNL     1      26.841   0.688  54.889  1.00  0.00    -0.266 NA
HETATM    8  C14 UNL     1      28.137   1.083  54.651  1.00  0.00     0.225 A 
HETATM    9  N3  UNL     1      27.930   1.981  53.634  1.00  0.00    -0.248 NA
HETATM   10  C15 UNL     1      26.624   2.174  53.248  1.00  0.00     0.166 A 
HETATM   11  C16 UNL     1      25.244   1.904  53.369  1.00  0.00     0.080 A 
HETATM   12  N4  UNL     1      26.926   2.702  51.907  1.00  0.00    -0.392 N 
HETATM   13  C17 UNL     1      26.835   1.422  51.139  1.00  0.00     0.124 C 
HETATM   14  C18 UNL     1      26.465   0.295  52.089  1.00  0.00     0.052 C 
HETATM   15  C19 UNL     1      26.420  -0.883  52.844  1.00  0.00     0.129 C 
HETATM   16  C20 UNL     1      25.140  -0.912  53.781  1.00  0.00     0.221 C 
HETATM   17  F1  UNL     1      25.619  -1.199  55.013  1.00  0.00    -0.245 F 
HETATM   18  H20 UNL     1      27.066   3.702  52.070  1.00  0.00     0.155 HD
ENDROOT
BRANCH   1  19
HETATM   19  O2  UNL     1      23.831   3.762  53.107  1.00  0.00    -0.385 OA
BRANCH  19  20
HETATM   20  C7  UNL     1      23.606   4.771  52.167  1.00  0.00     0.170 C 
BRANCH  20  21
HETATM   21  C6  UNL     1      22.155   5.131  52.214  1.00  0.00     0.066 C 
BRANCH  21  22
HETATM   22  C5  UNL     1      21.447   4.906  50.905  1.00  0.00     0.255 C 
HETATM   23  C2  UNL     1      20.421   3.832  51.151  1.00  0.00    -0.033 C 
HETATM   24  C1  UNL     1      20.071   3.068  52.169  1.00  0.00     0.019 C 
HETATM   25  C3  UNL     1      19.538   3.508  49.978  1.00  0.00     0.205 C 
HETATM   26  O1  UNL     1      20.271   4.000  48.863  1.00  0.00    -0.358 OA
HETATM   27  C4  UNL     1      21.598   3.566  48.963  1.00  0.00     0.438 C 
HETATM   28  N1  UNL     1      22.350   4.375  49.894  1.00  0.00     0.115 N 
HETATM   29  H7  UNL     1      22.796   5.162  49.339  1.00  0.00     0.319 HD
ENDBRANCH  21  22
ENDBRANCH  20  21
ENDBRANCH  19  20
ENDBRANCH   1  19
BRANCH  15  30
HETATM   30  O3  UNL     1      27.058  -2.083  53.129  1.00  0.00    -0.383 OA
HETATM   31  H24 UNL     1      27.939  -2.011  53.624  1.00  0.00     0.210 HD
ENDBRANCH  15  30
TORSDOF 5
ENDMDL
MODEL 6
REMARK VINA RESULT:      -8.6      3.991      6.779
REMARK  5 active torsions:
REMARK  status: ('A' for Active; 'I' for Inactive)
REMARK    1  A    between atoms: C5_7  and  C6_8 
REMARK    2  A    between atoms: C6_8  and  C7_9 
REMARK    3  A    between atoms: C7_9  and  O2_10 
REMARK    4  A    between atoms: O2_10  and  C8_11 
REMARK    5  A    between atoms: C19_25  and  O3_26 
ROOT
HETATM    1  C8  UNL     1      22.443   0.354  52.959  1.00  0.00     0.139 C 
HETATM    2  C9  UNL     1      21.201   0.100  53.826  1.00  0.00     0.044 C 
HETATM    3  C10 UNL     1      20.105  -0.098  52.788  1.00  0.00    -0.019 C 
HETATM    4  C11 UNL     1      18.792  -0.623  53.163  1.00  0.00     0.017 C 
HETATM    5  C12 UNL     1      20.447   0.222  51.577  1.00  0.00     0.051 A 
HETATM    6  C13 UNL     1      21.442   0.636  50.488  1.00  0.00     0.128 A 
HETATM    7  N2  UNL     1      21.151   0.956  49.293  1.00  0.00    -0.266 NA
HETATM    8  C14 UNL     1      21.890   1.962  48.714  1.00  0.00     0.225 A 
HETATM    9  N3  UNL     1      22.725   2.274  49.756  1.00  0.00    -0.248 NA
HETATM   10  C15 UNL     1      22.565   1.537  50.907  1.00  0.00     0.166 A 
HETATM   11  C16 UNL     1      21.927   0.520  51.648  1.00  0.00     0.080 A 
HETATM   12  N4  UNL     1      23.191   2.513  51.815  1.00  0.00    -0.392 N 
HETATM   13  C17 UNL     1      21.956   3.235  52.252  1.00  0.00     0.124 C 
HETATM   14  C18 UNL     1      20.746   2.598  51.589  1.00  0.00     0.052 C 
HETATM   15  C19 UNL     1      19.580   2.336  50.860  1.00  0.00     0.129 C 
HETATM   16  C20 UNL     1      19.179   0.804  50.957  1.00  0.00     0.221 C 
HETATM   17  F1  UNL     1      19.000   0.411  49.675  1.00  0.00    -0.245 F 
HETATM   18  H20 UNL     1      24.187   2.285  51.760  1.00  0.00     0.155 HD
ENDROOT
BRANCH   1  19
HETATM   19  O2  UNL     1      23.337  -0.747  53.035  1.00  0.00    -0.385 OA
BRANCH  19  20
HETATM   20  C7  UNL     1      24.219  -0.562  54.103  1.00  0.00     0.170 C 
BRANCH  20  21
HETATM   21  C6  UNL     1      25.343   0.302  53.630  1.00  0.00     0.066 C 
BRANCH  21  22
HETATM   22  C5  UNL     1      26.692  -0.169  54.103  1.00  0.00     0.255 C 
HETATM   23  C2  UNL     1      27.659   0.952  53.827  1.00  0.00    -0.033 C 
HETATM   24  C1  UNL     1      27.597   2.141  53.258  1.00  0.00     0.019 C 
HETATM   25  C3  UNL     1      29.066   0.716  54.301  1.00  0.00     0.205 C 
HETATM   26  O1  UNL     1      29.137  -0.697  54.447  1.00  0.00    -0.358 OA
HETATM   27  C4  UNL     1      28.607  -1.299  53.300  1.00  0.00     0.438 C 
HETATM   28  N1  UNL     1      27.162  -1.306  53.326  1.00  0.00     0.115 N 
HETATM   29  H7  UNL     1      26.859  -2.219  53.775  1.00  0.00     0.319 HD
ENDBRANCH  21  22
ENDBRANCH  20  21
ENDBRANCH  19  20
ENDBRANCH   1  19
BRANCH  15  30
HETATM   30  O3  UNL     1      18.592   2.879  50.050  1.00  0.00    -0.383 OA
HETATM   31  H24 UNL     1      18.898   3.581  49.386  1.00  0.00     0.210 HD
ENDBRANCH  15  30
TORSDOF 5
ENDMDL
MODEL 7
REMARK VINA RESULT:      -8.1      3.200      4.885
REMARK  5 active torsions:
REMARK  status: ('A' for Active; 'I' for Inactive)
REMARK    1  A    between atoms: C5_7  and  C6_8 
REMARK    2  A    between atoms: C6_8  and  C7_9 
REMARK    3  A    between atoms: C7_9  and  O2_10 
REMARK    4  A    between atoms: O2_10  and  C8_11 
REMARK    5  A    between atoms: C19_25  and  O3_26 
ROOT
HETATM    1  C8  UNL     1      24.080   3.726  50.497  1.00  0.00     0.139 C 
HETATM    2  C9  UNL     1      24.763   3.160  51.750  1.00  0.00     0.044 C 
HETATM    3  C10 UNL     1      24.150   1.771  51.863  1.00  0.00    -0.019 C 
HETATM    4  C11 UNL     1      24.703   0.771  52.777  1.00  0.00     0.017 C 
HETATM    5  C12 UNL     1      23.131   1.567  51.084  1.00  0.00     0.051 A 
HETATM    6  C13 UNL     1      22.167   1.930  49.952  1.00  0.00     0.128 A 
HETATM    7  N2  UNL     1      21.116   1.290  49.630  1.00  0.00    -0.266 NA
HETATM    8  C14 UNL     1      20.031   2.028  49.219  1.00  0.00     0.225 A 
HETATM    9  N3  UNL     1      20.544   3.295  49.342  1.00  0.00    -0.248 NA
HETATM   10  C15 UNL     1      21.846   3.385  49.778  1.00  0.00     0.166 A 
HETATM   11  C16 UNL     1      23.054   2.793  50.203  1.00  0.00     0.080 A 
HETATM   12  N4  UNL     1      21.761   4.774  50.261  1.00  0.00    -0.392 N 
HETATM   13  C17 UNL     1      21.430   4.491  51.693  1.00  0.00     0.124 C 
HETATM   14  C18 UNL     1      21.387   2.987  51.907  1.00  0.00     0.052 C 
HETATM   15  C19 UNL     1      21.022   1.671  52.214  1.00  0.00     0.129 C 
HETATM   16  C20 UNL     1      22.202   0.661  51.890  1.00  0.00     0.221 C 
HETATM   17  F1  UNL     1      21.634  -0.305  51.134  1.00  0.00    -0.245 F 
HETATM   18  H20 UNL     1      21.960   5.330  49.427  1.00  0.00     0.155 HD
ENDROOT
BRANCH   1  19
HETATM   19  O2  UNL     1      25.011   3.835  49.429  1.00  0.00    -0.385 OA
BRANCH  19  20
HETATM   20  C7  UNL     1      26.299   3.568  49.901  1.00  0.00     0.170 C 
BRANCH  20  21
HETATM   21  C6  UNL     1      27.272   4.275  49.013  1.00  0.00     0.066 C 
BRANCH  21  22
HETATM   22  C5  UNL     1      26.841   5.672  48.655  1.00  0.00     0.255 C 
HETATM   23  C2  UNL     1      28.062   6.373  48.120  1.00  0.00    -0.033 C 
HETATM   24  C1  UNL     1      29.337   6.071  47.960  1.00  0.00     0.019 C 
HETATM   25  C3  UNL     1      27.831   7.773  47.625  1.00  0.00     0.205 C 
HETATM   26  O1  UNL     1      26.614   8.154  48.254  1.00  0.00    -0.358 OA
HETATM   27  C4  UNL     1      26.684   7.828  49.614  1.00  0.00     0.438 C 
HETATM   28  N1  UNL     1      26.431   6.422  49.833  1.00  0.00     0.115 N 
HETATM   29  H7  UNL     1      25.389   6.312  50.003  1.00  0.00     0.319 HD
ENDBRANCH  21  22
ENDBRANCH  20  21
ENDBRANCH  19  20
ENDBRANCH   1  19
BRANCH  15  30
HETATM   30  O3  UNL     1      20.015   0.847  52.699  1.00  0.00    -0.383 OA
HETATM   31  H24 UNL     1      20.250   0.288  53.510  1.00  0.00     0.210 HD
ENDBRANCH  15  30
TORSDOF 5
ENDMDL
MODEL 8
REMARK VINA RESULT:      -8.0      3.122      7.556
REMARK  5 active torsions:
REMARK  status: ('A' for Active; 'I' for Inactive)
REMARK    1  A    between atoms: C5_7  and  C6_8 
REMARK    2  A    between atoms: C6_8  and  C7_9 
REMARK    3  A    between atoms: C7_9  and  O2_10 
REMARK    4  A    between atoms: O2_10  and  C8_11 
REMARK    5  A    between atoms: C19_25  and  O3_26 
ROOT
HETATM    1  C8  UNL     1      24.384   3.001  51.075  1.00  0.00     0.139 C 
HETATM    2  C9  UNL     1      25.547   2.755  50.103  1.00  0.00     0.044 C 
HETATM    3  C10 UNL     1      25.978   4.169  49.736  1.00  0.00    -0.019 C 
HETATM    4  C11 UNL     1      27.231   4.417  49.023  1.00  0.00     0.017 C 
HETATM    5  C12 UNL     1      25.156   5.098  50.118  1.00  0.00     0.051 A 
HETATM    6  C13 UNL     1      23.938   5.636  50.874  1.00  0.00     0.128 A 
HETATM    7  N2  UNL     1      23.473   6.817  50.799  1.00  0.00    -0.266 NA
HETATM    8  C14 UNL     1      22.106   6.959  50.850  1.00  0.00     0.225 A 
HETATM    9  N3  UNL     1      21.733   5.643  50.956  1.00  0.00    -0.248 NA
HETATM   10  C15 UNL     1      22.755   4.721  50.987  1.00  0.00     0.166 A 
HETATM   11  C16 UNL     1      24.127   4.391  50.970  1.00  0.00     0.080 A 
HETATM   12  N4  UNL     1      21.947   3.567  50.558  1.00  0.00    -0.392 N 
HETATM   13  C17 UNL     1      22.220   3.638  49.089  1.00  0.00     0.124 C 
HETATM   14  C18 UNL     1      23.171   4.791  48.814  1.00  0.00     0.052 C 
HETATM   15  C19 UNL     1      23.788   5.959  48.350  1.00  0.00     0.129 C 
HETATM   16  C20 UNL     1      25.218   6.149  49.012  1.00  0.00     0.221 C 
HETATM   17  F1  UNL     1      25.210   7.412  49.495  1.00  0.00    -0.245 F 
HETATM   18  H20 UNL     1      21.550   3.216  51.433  1.00  0.00     0.155 HD
ENDROOT
BRANCH   1  19
HETATM   19  O2  UNL     1      24.755   2.636  52.397  1.00  0.00    -0.385 OA
BRANCH  19  20
HETATM   20  C7  UNL     1      24.712   1.246  52.529  1.00  0.00     0.170 C 
BRANCH  20  21
HETATM   21  C6  UNL     1      23.294   0.808  52.349  1.00  0.00     0.066 C 
BRANCH  21  22
HETATM   22  C5  UNL     1      22.947  -0.420  53.148  1.00  0.00     0.255 C 
HETATM   23  C2  UNL     1      21.562  -0.197  53.697  1.00  0.00    -0.033 C 
HETATM   24  C1  UNL     1      20.679   0.784  53.678  1.00  0.00     0.019 C 
HETATM   25  C3  UNL     1      20.986  -1.351  54.470  1.00  0.00     0.205 C 
HETATM   26  O1  UNL     1      22.130  -2.117  54.830  1.00  0.00    -0.358 OA
HETATM   27  C4  UNL     1      23.104  -1.259  55.353  1.00  0.00     0.438 C 
HETATM   28  N1  UNL     1      23.818  -0.568  54.304  1.00  0.00     0.115 N 
HETATM   29  H7  UNL     1      24.668  -1.157  54.060  1.00  0.00     0.319 HD
ENDBRANCH  21  22
ENDBRANCH  20  21
ENDBRANCH  19  20
ENDBRANCH   1  19
BRANCH  15  30
HETATM   30  O3  UNL     1      23.664   7.067  47.524  1.00  0.00    -0.383 OA
HETATM   31  H24 UNL     1      24.463   7.689  47.492  1.00  0.00     0.210 HD
ENDBRANCH  15  30
TORSDOF 5
ENDMDL
MODEL 9
REMARK VINA RESULT:      -7.9      3.266      7.159
REMARK  5 active torsions:
REMARK  status: ('A' for Active; 'I' for Inactive)
REMARK    1  A    between atoms: C5_7  and  C6_8 
REMARK    2  A    between atoms: C6_8  and  C7_9 
REMARK    3  A    between atoms: C7_9  and  O2_10 
REMARK    4  A    between atoms: O2_10  and  C8_11 
REMARK    5  A    between atoms: C19_25  and  O3_26 
ROOT
HETATM    1  C8  UNL     1      23.474   3.358  51.060  1.00  0.00     0.139 C 
HETATM    2  C9  UNL     1      22.806   2.276  50.198  1.00  0.00     0.044 C 
HETATM    3  C10 UNL     1      22.831   2.897  48.808  1.00  0.00    -0.019 C 
HETATM    4  C11 UNL     1      22.525   2.103  47.619  1.00  0.00     0.017 C 
HETATM    5  C12 UNL     1      23.154   4.154  48.786  1.00  0.00     0.051 A 
HETATM    6  C13 UNL     1      23.656   5.460  49.409  1.00  0.00     0.128 A 
HETATM    7  N2  UNL     1      23.684   6.597  48.840  1.00  0.00    -0.266 NA
HETATM    8  C14 UNL     1      23.406   7.697  49.619  1.00  0.00     0.225 A 
HETATM    9  N3  UNL     1      23.166   7.082  50.822  1.00  0.00    -0.248 NA
HETATM   10  C15 UNL     1      23.288   5.711  50.841  1.00  0.00     0.166 A 
HETATM   11  C16 UNL     1      23.565   4.483  50.203  1.00  0.00     0.080 A 
HETATM   12  N4  UNL     1      22.460   5.490  52.038  1.00  0.00    -0.392 N 
HETATM   13  C17 UNL     1      21.150   5.241  51.358  1.00  0.00     0.124 C 
HETATM   14  C18 UNL     1      21.349   5.310  49.853  1.00  0.00     0.052 C 
HETATM   15  C19 UNL     1      21.284   5.622  48.490  1.00  0.00     0.129 C 
HETATM   16  C20 UNL     1      22.316   4.750  47.657  1.00  0.00     0.221 C 
HETATM   17  F1  UNL     1      23.006   5.645  46.915  1.00  0.00    -0.245 F 
HETATM   18  H20 UNL     1      23.121   5.599  52.810  1.00  0.00     0.155 HD
ENDROOT
BRANCH   1  19
HETATM   19  O2  UNL     1      24.755   2.926  51.496  1.00  0.00    -0.385 OA
BRANCH  19  20
HETATM   20  C7  UNL     1      24.611   2.003  52.535  1.00  0.00     0.170 C 
BRANCH  20  21
HETATM   21  C6  UNL     1      25.598   2.350  53.602  1.00  0.00     0.066 C 
BRANCH  21  22
HETATM   22  C5  UNL     1      26.963   1.766  53.360  1.00  0.00     0.255 C 
HETATM   23  C2  UNL     1      27.068   0.543  54.233  1.00  0.00    -0.033 C 
HETATM   24  C1  UNL     1      26.306  -0.049  55.133  1.00  0.00     0.019 C 
HETATM   25  C3  UNL     1      28.340  -0.245  54.083  1.00  0.00     0.205 C 
HETATM   26  O1  UNL     1      29.242   0.685  53.495  1.00  0.00    -0.358 OA
HETATM   27  C4  UNL     1      29.171   1.894  54.198  1.00  0.00     0.438 C 
HETATM   28  N1  UNL     1      28.016   2.667  53.803  1.00  0.00     0.115 N 
HETATM   29  H7  UNL     1      28.320   3.307  53.012  1.00  0.00     0.319 HD
ENDBRANCH  21  22
ENDBRANCH  20  21
ENDBRANCH  19  20
ENDBRANCH   1  19
BRANCH  15  30
HETATM   30  O3  UNL     1      20.674   6.411  47.524  1.00  0.00    -0.383 OA
HETATM   31  H24 UNL     1      20.493   7.373  47.787  1.00  0.00     0.210 HD
ENDBRANCH  15  30
TORSDOF 5
ENDMDL
