MODEL 1
REMARK VINA RESULT:      -8.0      0.000      0.000
REMARK  4 active torsions:
REMARK  status: ('A' for Active; 'I' for Inactive)
REMARK    1  A    between atoms: C1_2  and  O2_3 
REMARK    2  A    between atoms: C1_2  and  C2_4 
REMARK    3  A    between atoms: C2_4  and  C3_5 
REMARK    4  A    between atoms: C5_8  and  C6_9 
ROOT
HETATM    1  C3  UNL     1      22.485   0.338  53.401  1.00  0.00    -0.051 A 
HETATM    2  C4  UNL     1      23.177  -0.693  53.856  1.00  0.00     0.091 A 
HETATM    3  N1  UNL     1      24.513  -0.886  53.405  1.00  0.00    -0.368 N 
HETATM    4  C5  UNL     1      25.163  -0.029  52.485  1.00  0.00     0.023 A 
HETATM    5  C14 UNL     1      24.421   0.980  52.070  1.00  0.00     0.004 A 
HETATM    6  C15 UNL     1      23.022   1.316  52.441  1.00  0.00     0.065 A 
HETATM    7  H5  UNL     1      25.010  -1.714  53.797  1.00  0.00     0.165 HD
ENDROOT
BRANCH   4   8
HETATM    8  C6  UNL     1      26.555  -0.239  52.018  1.00  0.00     0.163 A 
HETATM    9  C7  UNL     1      27.042  -1.614  52.384  1.00  0.00     0.236 A 
HETATM   10  O3  UNL     1      26.587  -2.725  51.990  1.00  0.00    -0.272 OA
HETATM   11  N2  UNL     1      28.152  -1.546  53.287  1.00  0.00    -0.326 N 
HETATM   12  C8  UNL     1      28.401  -0.150  53.506  1.00  0.00     0.042 A 
HETATM   13  H7  UNL     1      28.667  -2.354  53.697  1.00  0.00     0.169 HD
HETATM   14  C9  UNL     1      29.386   0.390  54.307  1.00  0.00     0.030 A 
HETATM   15  C13 UNL     1      27.512   0.629  52.793  1.00  0.00    -0.012 A 
HETATM   16  C10 UNL     1      29.517   1.758  54.421  1.00  0.00     0.002 A 
HETATM   17  C11 UNL     1      28.649   2.564  53.727  1.00  0.00     0.001 A 
HETATM   18  C12 UNL     1      27.680   1.989  52.939  1.00  0.00     0.011 A 
ENDBRANCH   4   8
BRANCH   1  19
HETATM   19  C2  UNL     1      21.104   0.714  53.736  1.00  0.00     0.145 C 
BRANCH  19  20
HETATM   20  C1  UNL     1      20.153  -0.444  53.677  1.00  0.00     0.143 C 
HETATM   21  O1  UNL     1      19.194  -0.480  52.879  1.00  0.00    -0.650 OA
BRANCH  20  22
HETATM   22  O2  UNL     1      19.751  -1.686  54.142  1.00  0.00    -0.776 OA
HETATM   23  H1  UNL     1      19.386  -2.413  53.523  1.00  0.00     0.167 HD
ENDBRANCH  20  22
ENDBRANCH  19  20
ENDBRANCH   1  19
TORSDOF 4
ENDMDL
MODEL 2
REMARK VINA RESULT:      -7.8      2.367      6.526
REMARK  4 active torsions:
REMARK  status: ('A' for Active; 'I' for Inactive)
REMARK    1  A    between atoms: C1_2  and  O2_3 
REMARK    2  A    between atoms: C1_2  and  C2_4 
REMARK    3  A    between atoms: C2_4  and  C3_5 
REMARK    4  A    between atoms: C5_8  and  C6_9 
ROOT
HETATM    1  C3  UNL     1      27.037  -0.222  53.017  1.00  0.00    -0.051 A 
HETATM    2  C4  UNL     1      25.972  -0.899  53.413  1.00  0.00     0.091 A 
HETATM    3  N1  UNL     1      24.680  -0.338  53.217  1.00  0.00    -0.368 N 
HETATM    4  C5  UNL     1      24.454   0.922  52.614  1.00  0.00     0.023 A 
HETATM    5  C14 UNL     1      25.554   1.547  52.241  1.00  0.00     0.004 A 
HETATM    6  C15 UNL     1      26.965   1.100  52.374  1.00  0.00     0.065 A 
HETATM    7  H5  UNL     1      23.878  -0.916  53.547  1.00  0.00     0.165 HD
ENDROOT
BRANCH   4   8
HETATM    8  C6  UNL     1      23.102   1.501  52.415  1.00  0.00     0.163 A 
HETATM    9  C7  UNL     1      22.035   0.491  52.732  1.00  0.00     0.236 A 
HETATM   10  O3  UNL     1      21.797  -0.058  53.845  1.00  0.00    -0.272 OA
HETATM   11  N2  UNL     1      21.252   0.184  51.572  1.00  0.00    -0.326 N 
HETATM   12  C8  UNL     1      21.787   0.987  50.509  1.00  0.00     0.042 A 
HETATM   13  H7  UNL     1      20.457  -0.487  51.520  1.00  0.00     0.169 HD
HETATM   14  C9  UNL     1      21.339   1.022  49.205  1.00  0.00     0.030 A 
HETATM   15  C13 UNL     1      22.843   1.757  50.954  1.00  0.00    -0.012 A 
HETATM   16  C10 UNL     1      21.946   1.848  48.283  1.00  0.00     0.002 A 
HETATM   17  C11 UNL     1      23.000   2.629  48.690  1.00  0.00     0.001 A 
HETATM   18  C12 UNL     1      23.418   2.566  49.998  1.00  0.00     0.011 A 
ENDBRANCH   4   8
BRANCH   1  19
HETATM   19  C2  UNL     1      28.449  -0.618  53.125  1.00  0.00     0.145 C 
BRANCH  19  20
HETATM   20  C1  UNL     1      28.637  -2.106  53.158  1.00  0.00     0.143 C 
HETATM   21  O1  UNL     1      29.548  -2.649  53.816  1.00  0.00    -0.650 OA
BRANCH  20  22
HETATM   22  O2  UNL     1      28.237  -3.370  52.757  1.00  0.00    -0.776 OA
HETATM   23  H1  UNL     1      27.330  -3.546  52.319  1.00  0.00     0.167 HD
ENDBRANCH  20  22
ENDBRANCH  19  20
ENDBRANCH   1  19
TORSDOF 4
ENDMDL
MODEL 3
REMARK VINA RESULT:      -7.7      2.977      6.683
REMARK  4 active torsions:
REMARK  status: ('A' for Active; 'I' for Inactive)
REMARK    1  A    between atoms: C1_2  and  O2_3 
REMARK    2  A    between atoms: C1_2  and  C2_4 
REMARK    3  A    between atoms: C2_4  and  C3_5 
REMARK    4  A    between atoms: C5_8  and  C6_9 
ROOT
HETATM    1  C3  UNL     1      26.452   0.558  53.922  1.00  0.00    -0.051 A 
HETATM    2  C4  UNL     1      25.584  -0.380  53.584  1.00  0.00     0.091 A 
HETATM    3  N1  UNL     1      24.296   0.002  53.115  1.00  0.00    -0.368 N 
HETATM    4  C5  UNL     1      23.875   1.347  52.985  1.00  0.00     0.023 A 
HETATM    5  C14 UNL     1      24.786   2.234  53.337  1.00  0.00     0.004 A 
HETATM    6  C15 UNL     1      26.163   1.998  53.842  1.00  0.00     0.065 A 
HETATM    7  H5  UNL     1      23.653  -0.779  52.862  1.00  0.00     0.165 HD
ENDROOT
BRANCH   4   8
HETATM    8  C6  UNL     1      22.529   1.737  52.497  1.00  0.00     0.163 A 
HETATM    9  C7  UNL     1      21.556   0.601  52.646  1.00  0.00     0.236 A 
HETATM   10  O3  UNL     1      21.170   0.049  53.715  1.00  0.00    -0.272 OA
HETATM   11  N2  UNL     1      21.067   0.168  51.370  1.00  0.00    -0.326 N 
HETATM   12  C8  UNL     1      21.699   1.012  50.396  1.00  0.00     0.042 A 
HETATM   13  H7  UNL     1      20.389  -0.604  51.196  1.00  0.00     0.169 HD
HETATM   14  C9  UNL     1      21.521   0.959  49.030  1.00  0.00     0.030 A 
HETATM   15  C13 UNL     1      22.538   1.924  51.003  1.00  0.00    -0.012 A 
HETATM   16  C10 UNL     1      22.192   1.839  48.207  1.00  0.00     0.002 A 
HETATM   17  C11 UNL     1      23.036   2.761  48.775  1.00  0.00     0.001 A 
HETATM   18  C12 UNL     1      23.187   2.782  50.141  1.00  0.00     0.011 A 
ENDBRANCH   4   8
BRANCH   1  19
HETATM   19  C2  UNL     1      27.822   0.378  54.425  1.00  0.00     0.145 C 
BRANCH  19  20
HETATM   20  C1  UNL     1      28.733   1.512  54.057  1.00  0.00     0.143 C 
HETATM   21  O1  UNL     1      29.332   2.192  54.914  1.00  0.00    -0.650 OA
BRANCH  20  22
HETATM   22  O2  UNL     1      29.329   2.298  53.085  1.00  0.00    -0.776 OA
HETATM   23  H1  UNL     1      29.980   3.053  53.311  1.00  0.00     0.167 HD
ENDBRANCH  20  22
ENDBRANCH  19  20
ENDBRANCH   1  19
TORSDOF 4
ENDMDL
MODEL 4
REMARK VINA RESULT:      -7.5      6.020      7.677
REMARK  4 active torsions:
REMARK  status: ('A' for Active; 'I' for Inactive)
REMARK    1  A    between atoms: C1_2  and  O2_3 
REMARK    2  A    between atoms: C1_2  and  C2_4 
REMARK    3  A    between atoms: C2_4  and  C3_5 
REMARK    4  A    between atoms: C5_8  and  C6_9 
ROOT
HETATM    1  C3  UNL     1      26.397   6.994  49.416  1.00  0.00    -0.051 A 
HETATM    2  C4  UNL     1      25.474   6.942  50.361  1.00  0.00     0.091 A 
HETATM    3  N1  UNL     1      24.938   5.680  50.739  1.00  0.00    -0.368 N 
HETATM    4  C5  UNL     1      25.335   4.452  50.158  1.00  0.00     0.023 A 
HETATM    5  C14 UNL     1      26.258   4.571  49.223  1.00  0.00     0.004 A 
HETATM    6  C15 UNL     1      26.913   5.805  48.719  1.00  0.00     0.065 A 
HETATM    7  H5  UNL     1      24.214   5.699  51.489  1.00  0.00     0.165 HD
ENDROOT
BRANCH   4   8
HETATM    8  C6  UNL     1      24.769   3.140  50.557  1.00  0.00     0.163 A 
HETATM    9  C7  UNL     1      23.483   3.319  51.314  1.00  0.00     0.236 A 
HETATM   10  O3  UNL     1      22.403   3.823  50.894  1.00  0.00    -0.272 OA
HETATM   11  N2  UNL     1      23.600   2.829  52.655  1.00  0.00    -0.326 N 
HETATM   12  C8  UNL     1      24.938   2.326  52.779  1.00  0.00     0.042 A 
HETATM   13  H7  UNL     1      22.857   2.841  53.386  1.00  0.00     0.169 HD
HETATM   14  C9  UNL     1      25.495   1.752  53.902  1.00  0.00     0.030 A 
HETATM   15  C13 UNL     1      25.635   2.481  51.598  1.00  0.00    -0.012 A 
HETATM   16  C10 UNL     1      26.799   1.303  53.879  1.00  0.00     0.002 A 
HETATM   17  C11 UNL     1      27.524   1.441  52.721  1.00  0.00     0.001 A 
HETATM   18  C12 UNL     1      26.934   2.019  51.623  1.00  0.00     0.011 A 
ENDBRANCH   4   8
BRANCH   1  19
HETATM   19  C2  UNL     1      27.074   8.186  48.882  1.00  0.00     0.145 C 
BRANCH  19  20
HETATM   20  C1  UNL     1      27.263   9.261  49.912  1.00  0.00     0.143 C 
HETATM   21  O1  UNL     1      26.932  10.446  49.706  1.00  0.00    -0.650 OA
BRANCH  20  22
HETATM   22  O2  UNL     1      27.687   9.646  51.172  1.00  0.00    -0.776 OA
HETATM   23  H1  UNL     1      27.069  10.108  51.843  1.00  0.00     0.167 HD
ENDBRANCH  20  22
ENDBRANCH  19  20
ENDBRANCH   1  19
TORSDOF 4
ENDMDL
MODEL 5
REMARK VINA RESULT:      -7.5      4.939      6.817
REMARK  4 active torsions:
REMARK  status: ('A' for Active; 'I' for Inactive)
REMARK    1  A    between atoms: C1_2  and  O2_3 
REMARK    2  A    between atoms: C1_2  and  C2_4 
REMARK    3  A    between atoms: C2_4  and  C3_5 
REMARK    4  A    between atoms: C5_8  and  C6_9 
ROOT
HETATM    1  C3  UNL     1      25.968   1.400  52.482  1.00  0.00    -0.051 A 
HETATM    2  C4  UNL     1      27.008   2.168  52.202  1.00  0.00     0.091 A 
HETATM    3  N1  UNL     1      26.892   3.148  51.178  1.00  0.00    -0.368 N 
HETATM    4  C5  UNL     1      25.713   3.360  50.423  1.00  0.00     0.023 A 
HETATM    5  C14 UNL     1      24.713   2.565  50.750  1.00  0.00     0.004 A 
HETATM    6  C15 UNL     1      24.675   1.501  51.786  1.00  0.00     0.065 A 
HETATM    7  H5  UNL     1      27.743   3.724  51.000  1.00  0.00     0.165 HD
ENDROOT
BRANCH   4   8
HETATM    8  C6  UNL     1      25.602   4.384  49.355  1.00  0.00     0.163 A 
HETATM    9  C7  UNL     1      26.941   5.000  49.061  1.00  0.00     0.236 A 
HETATM   10  O3  UNL     1      27.972   4.428  48.608  1.00  0.00    -0.272 OA
HETATM   11  N2  UNL     1      26.943   6.401  49.363  1.00  0.00    -0.326 N 
HETATM   12  C8  UNL     1      25.624   6.706  49.838  1.00  0.00     0.042 A 
HETATM   13  H7  UNL     1      27.746   7.057  49.255  1.00  0.00     0.169 HD
HETATM   14  C9  UNL     1      25.166   7.943  50.242  1.00  0.00     0.030 A 
HETATM   15  C13 UNL     1      24.827   5.580  49.843  1.00  0.00    -0.012 A 
HETATM   16  C10 UNL     1      23.864   8.096  50.673  1.00  0.00     0.002 A 
HETATM   17  C11 UNL     1      23.043   6.996  50.691  1.00  0.00     0.001 A 
HETATM   18  C12 UNL     1      23.535   5.780  50.281  1.00  0.00     0.011 A 
ENDBRANCH   4   8
BRANCH   1  19
HETATM   19  C2  UNL     1      25.879   0.337  53.493  1.00  0.00     0.145 C 
BRANCH  19  20
HETATM   20  C1  UNL     1      27.170   0.120  54.227  1.00  0.00     0.143 C 
HETATM   21  O1  UNL     1      27.818  -0.943  54.136  1.00  0.00    -0.650 OA
BRANCH  20  22
HETATM   22  O2  UNL     1      28.148   0.589  55.088  1.00  0.00    -0.776 OA
HETATM   23  H1  UNL     1      28.920   0.002  55.415  1.00  0.00     0.167 HD
ENDBRANCH  20  22
ENDBRANCH  19  20
ENDBRANCH   1  19
TORSDOF 4
ENDMDL
MODEL 6
REMARK VINA RESULT:      -7.5      4.130      6.798
REMARK  4 active torsions:
REMARK  status: ('A' for Active; 'I' for Inactive)
REMARK    1  A    between atoms: C1_2  and  O2_3 
REMARK    2  A    between atoms: C1_2  and  C2_4 
REMARK    3  A    between atoms: C2_4  and  C3_5 
REMARK    4  A    between atoms: C5_8  and  C6_9 
ROOT
HETATM    1  C3  UNL     1      27.709   0.871  53.416  1.00  0.00    -0.051 A 
HETATM    2  C4  UNL     1      28.018   2.134  53.175  1.00  0.00     0.091 A 
HETATM    3  N1  UNL     1      27.319   2.838  52.156  1.00  0.00    -0.368 N 
HETATM    4  C5  UNL     1      26.294   2.265  51.367  1.00  0.00     0.023 A 
HETATM    5  C14 UNL     1      26.032   1.004  51.655  1.00  0.00     0.004 A 
HETATM    6  C15 UNL     1      26.667   0.137  52.680  1.00  0.00     0.065 A 
HETATM    7  H5  UNL     1      27.604   3.831  52.011  1.00  0.00     0.165 HD
ENDROOT
BRANCH   4   8
HETATM    8  C6  UNL     1      25.571   3.006  50.304  1.00  0.00     0.163 A 
HETATM    9  C7  UNL     1      26.372   4.189  49.836  1.00  0.00     0.236 A 
HETATM   10  O3  UNL     1      27.501   4.181  49.267  1.00  0.00    -0.272 OA
HETATM   11  N2  UNL     1      25.690   5.418  50.112  1.00  0.00    -0.326 N 
HETATM   12  C8  UNL     1      24.454   5.052  50.742  1.00  0.00     0.042 A 
HETATM   13  H7  UNL     1      26.031   6.378  49.895  1.00  0.00     0.169 HD
HETATM   14  C9  UNL     1      23.472   5.917  51.180  1.00  0.00     0.030 A 
HETATM   15  C13 UNL     1      24.347   3.682  50.864  1.00  0.00    -0.012 A 
HETATM   16  C10 UNL     1      22.324   5.425  51.766  1.00  0.00     0.002 A 
HETATM   17  C11 UNL     1      22.184   4.067  51.905  1.00  0.00     0.001 A 
HETATM   18  C12 UNL     1      23.185   3.238  51.457  1.00  0.00     0.011 A 
ENDBRANCH   4   8
BRANCH   1  19
HETATM   19  C2  UNL     1      28.304  -0.028  54.415  1.00  0.00     0.145 C 
BRANCH  19  20
HETATM   20  C1  UNL     1      29.128  -1.122  53.799  1.00  0.00     0.143 C 
HETATM   21  O1  UNL     1      30.261  -0.914  53.319  1.00  0.00    -0.650 OA
BRANCH  20  22
HETATM   22  O2  UNL     1      29.274  -2.453  53.447  1.00  0.00    -0.776 OA
HETATM   23  H1  UNL     1      28.532  -2.983  52.983  1.00  0.00     0.167 HD
ENDBRANCH  20  22
ENDBRANCH  19  20
ENDBRANCH   1  19
TORSDOF 4
ENDMDL
MODEL 7
REMARK VINA RESULT:      -7.4      2.527      7.136
REMARK  4 active torsions:
REMARK  status: ('A' for Active; 'I' for Inactive)
REMARK    1  A    between atoms: C1_2  and  O2_3 
REMARK    2  A    between atoms: C1_2  and  C2_4 
REMARK    3  A    between atoms: C2_4  and  C3_5 
REMARK    4  A    between atoms: C5_8  and  C6_9 
ROOT
HETATM    1  C3  UNL     1      25.461   0.715  52.704  1.00  0.00    -0.051 A 
HETATM    2  C4  UNL     1      25.173  -0.334  53.456  1.00  0.00     0.091 A 
HETATM    3  N1  UNL     1      23.856  -0.476  53.976  1.00  0.00    -0.368 N 
HETATM    4  C5  UNL     1      22.813   0.451  53.736  1.00  0.00     0.023 A 
HETATM    5  C14 UNL     1      23.163   1.474  52.980  1.00  0.00     0.004 A 
HETATM    6  C15 UNL     1      24.485   1.763  52.366  1.00  0.00     0.065 A 
HETATM    7  H5  UNL     1      23.686  -1.321  54.561  1.00  0.00     0.165 HD
ENDROOT
BRANCH   4   8
HETATM    8  C6  UNL     1      21.443   0.297  54.284  1.00  0.00     0.163 A 
HETATM    9  C7  UNL     1      21.087  -1.156  54.436  1.00  0.00     0.236 A 
HETATM   10  O3  UNL     1      21.640  -2.013  55.182  1.00  0.00    -0.272 OA
HETATM   11  N2  UNL     1      19.980  -1.508  53.597  1.00  0.00    -0.326 N 
HETATM   12  C8  UNL     1      19.605  -0.305  52.909  1.00  0.00     0.042 A 
HETATM   13  H7  UNL     1      19.543  -2.450  53.510  1.00  0.00     0.169 HD
HETATM   14  C9  UNL     1      18.579  -0.170  51.997  1.00  0.00     0.030 A 
HETATM   15  C13 UNL     1      20.415   0.749  53.280  1.00  0.00    -0.012 A 
HETATM   16  C10 UNL     1      18.325   1.054  51.414  1.00  0.00     0.002 A 
HETATM   17  C11 UNL     1      19.111   2.125  51.759  1.00  0.00     0.001 A 
HETATM   18  C12 UNL     1      20.124   1.951  52.671  1.00  0.00     0.011 A 
ENDBRANCH   4   8
BRANCH   1  19
HETATM   19  C2  UNL     1      26.748   1.047  52.076  1.00  0.00     0.145 C 
BRANCH  19  20
HETATM   20  C1  UNL     1      27.623   1.896  52.950  1.00  0.00     0.143 C 
HETATM   21  O1  UNL     1      28.867   1.799  52.944  1.00  0.00    -0.650 OA
BRANCH  20  22
HETATM   22  O2  UNL     1      27.752   2.887  53.909  1.00  0.00    -0.776 OA
HETATM   23  H1  UNL     1      27.410   2.774  54.866  1.00  0.00     0.167 HD
ENDBRANCH  20  22
ENDBRANCH  19  20
ENDBRANCH   1  19
TORSDOF 4
ENDMDL
MODEL 8
REMARK VINA RESULT:      -7.2      6.192      9.014
REMARK  4 active torsions:
REMARK  status: ('A' for Active; 'I' for Inactive)
REMARK    1  A    between atoms: C1_2  and  O2_3 
REMARK    2  A    between atoms: C1_2  and  C2_4 
REMARK    3  A    between atoms: C2_4  and  C3_5 
REMARK    4  A    between atoms: C5_8  and  C6_9 
ROOT
HETATM    1  C3  UNL     1      28.155   6.221  48.296  1.00  0.00    -0.051 A 
HETATM    2  C4  UNL     1      27.369   7.266  48.498  1.00  0.00     0.091 A 
HETATM    3  N1  UNL     1      26.078   7.065  49.059  1.00  0.00    -0.368 N 
HETATM    4  C5  UNL     1      25.568   5.796  49.422  1.00  0.00     0.023 A 
HETATM    5  C14 UNL     1      26.398   4.796  49.197  1.00  0.00     0.004 A 
HETATM    6  C15 UNL     1      27.767   4.840  48.622  1.00  0.00     0.065 A 
HETATM    7  H5  UNL     1      25.502   7.924  49.197  1.00  0.00     0.165 HD
ENDROOT
BRANCH   4   8
HETATM    8  C6  UNL     1      24.218   5.595  50.005  1.00  0.00     0.163 A 
HETATM    9  C7  UNL     1      23.968   6.565  51.125  1.00  0.00     0.236 A 
HETATM   10  O3  UNL     1      23.911   7.826  51.057  1.00  0.00    -0.272 OA
HETATM   11  N2  UNL     1      23.784   5.882  52.370  1.00  0.00    -0.326 N 
HETATM   12  C8  UNL     1      23.901   4.482  52.076  1.00  0.00     0.042 A 
HETATM   13  H7  UNL     1      23.603   6.321  53.298  1.00  0.00     0.169 HD
HETATM   14  C9  UNL     1      23.788   3.444  52.977  1.00  0.00     0.030 A 
HETATM   15  C13 UNL     1      24.143   4.278  50.733  1.00  0.00    -0.012 A 
HETATM   16  C10 UNL     1      23.917   2.138  52.553  1.00  0.00     0.002 A 
HETATM   17  C11 UNL     1      24.160   1.897  51.223  1.00  0.00     0.001 A 
HETATM   18  C12 UNL     1      24.266   2.958  50.356  1.00  0.00     0.011 A 
ENDBRANCH   4   8
BRANCH   1  19
HETATM   19  C2  UNL     1      29.513   6.211  47.733  1.00  0.00     0.145 C 
BRANCH  19  20
HETATM   20  C1  UNL     1      30.542   5.702  48.698  1.00  0.00     0.143 C 
HETATM   21  O1  UNL     1      31.426   4.887  48.363  1.00  0.00    -0.650 OA
BRANCH  20  22
HETATM   22  O2  UNL     1      31.079   5.688  49.975  1.00  0.00    -0.776 OA
HETATM   23  H1  UNL     1      30.517   5.874  50.809  1.00  0.00     0.167 HD
ENDBRANCH  20  22
ENDBRANCH  19  20
ENDBRANCH   1  19
TORSDOF 4
ENDMDL
MODEL 9
REMARK VINA RESULT:      -7.2      2.708      6.873
REMARK  4 active torsions:
REMARK  status: ('A' for Active; 'I' for Inactive)
REMARK    1  A    between atoms: C1_2  and  O2_3 
REMARK    2  A    between atoms: C1_2  and  C2_4 
REMARK    3  A    between atoms: C2_4  and  C3_5 
REMARK    4  A    between atoms: C5_8  and  C6_9 
ROOT
HETATM    1  C3  UNL     1      27.152   1.862  53.269  1.00  0.00    -0.051 A 
HETATM    2  C4  UNL     1      26.135   2.502  53.821  1.00  0.00     0.091 A 
HETATM    3  N1  UNL     1      24.822   2.287  53.317  1.00  0.00    -0.368 N 
HETATM    4  C5  UNL     1      24.528   1.415  52.241  1.00  0.00     0.023 A 
HETATM    5  C14 UNL     1      25.583   0.807  51.735  1.00  0.00     0.004 A 
HETATM    6  C15 UNL     1      27.006   0.924  52.145  1.00  0.00     0.065 A 
HETATM    7  H5  UNL     1      24.060   2.817  53.790  1.00  0.00     0.165 HD
ENDROOT
BRANCH   4   8
HETATM    8  C6  UNL     1      23.156   1.198  51.719  1.00  0.00     0.163 A 
HETATM    9  C7  UNL     1      22.342   2.459  51.809  1.00  0.00     0.236 A 
HETATM   10  O3  UNL     1      22.552   3.556  51.218  1.00  0.00    -0.272 OA
HETATM   11  N2  UNL     1      21.225   2.292  52.689  1.00  0.00    -0.326 N 
HETATM   12  C8  UNL     1      21.292   0.940  53.165  1.00  0.00     0.042 A 
HETATM   13  H7  UNL     1      20.512   3.014  52.928  1.00  0.00     0.169 HD
HETATM   14  C9  UNL     1      20.411   0.335  54.037  1.00  0.00     0.030 A 
HETATM   15  C13 UNL     1      22.380   0.281  52.629  1.00  0.00    -0.012 A 
HETATM   16  C10 UNL     1      20.594  -0.981  54.408  1.00  0.00     0.002 A 
HETATM   17  C11 UNL     1      21.666  -1.668  53.894  1.00  0.00     0.001 A 
HETATM   18  C12 UNL     1      22.522  -1.030  53.029  1.00  0.00     0.011 A 
ENDBRANCH   4   8
BRANCH   1  19
HETATM   19  C2  UNL     1      28.573   1.943  53.636  1.00  0.00     0.145 C 
BRANCH  19  20
HETATM   20  C1  UNL     1      29.157   0.612  54.009  1.00  0.00     0.143 C 
HETATM   21  O1  UNL     1      30.223   0.190  53.518  1.00  0.00    -0.650 OA
BRANCH  20  22
HETATM   22  O2  UNL     1      29.084  -0.561  54.743  1.00  0.00    -0.776 OA
HETATM   23  H1  UNL     1      28.488  -1.345  54.468  1.00  0.00     0.167 HD
ENDBRANCH  20  22
ENDBRANCH  19  20
ENDBRANCH   1  19
TORSDOF 4
ENDMDL
