MODEL 1
REMARK VINA RESULT:      -8.3      0.000      0.000
REMARK  5 active torsions:
REMARK  status: ('A' for Active; 'I' for Inactive)
REMARK    1  A    between atoms: C2_4  and  C3_5 
REMARK    2  A    between atoms: C3_5  and  C4_6 
REMARK    3  A    between atoms: C4_6  and  N2_7 
REMARK    4  A    between atoms: C12_16  and  N3_17 
REMARK    5  A    between atoms: N3_17  and  C13_18 
ROOT
HETATM    1  O1  UNL     1      19.293   3.487  52.332  1.00  0.00    -0.267 OA
HETATM    2  C1  UNL     1      20.402   3.835  51.899  1.00  0.00     0.261 C 
HETATM    3  N1  UNL     1      21.677   4.484  52.054  1.00  0.00    -0.351 N 
HETATM    4  C2  UNL     1      22.642   4.549  50.983  1.00  0.00     0.099 C 
HETATM    5  C9  UNL     1      22.156   3.765  49.793  1.00  0.00     0.028 A 
HETATM    6  C10 UNL     1      23.196   3.788  48.913  1.00  0.00     0.023 A 
HETATM    7  C11 UNL     1      22.831   2.474  49.620  1.00  0.00     0.038 A 
HETATM    8  C12 UNL     1      22.868   1.742  50.764  1.00  0.00     0.115 C 
HETATM    9  N4  UNL     1      21.838   0.732  50.900  1.00  0.00    -0.235 NA
HETATM   10  C19 UNL     1      20.600   0.947  50.454  1.00  0.00     0.186 C 
HETATM   11  N5  UNL     1      20.321   2.236  49.819  1.00  0.00    -0.224 NA
HETATM   12  C20 UNL     1      20.295   3.275  50.603  1.00  0.00     0.087 A 
HETATM   13  C21 UNL     1      20.884   3.021  49.276  1.00  0.00     0.082 A 
HETATM   14  C22 UNL     1      21.170   2.626  48.012  1.00  0.00     0.024 C 
HETATM   15  C23 UNL     1      22.293   1.741  48.396  1.00  0.00     0.026 C 
HETATM   16  H1  UNL     1      21.588   4.798  53.034  1.00  0.00     0.163 HD
ENDROOT
BRANCH   8  17
HETATM   17  N3  UNL     1      23.200   1.489  52.097  1.00  0.00    -0.344 N 
HETATM   18  H16 UNL     1      22.582   1.695  52.921  1.00  0.00     0.167 HD
BRANCH  17  19
HETATM   19  C13 UNL     1      24.498   0.919  52.329  1.00  0.00     0.033 A 
HETATM   20  C14 UNL     1      24.626  -0.184  53.130  1.00  0.00     0.031 A 
HETATM   21  C15 UNL     1      25.855  -0.762  53.392  1.00  0.00     0.026 A 
HETATM   22  C16 UNL     1      26.965  -0.191  52.814  1.00  0.00     0.034 A 
HETATM   23 CL1  UNL     1      28.495  -0.961  53.178  1.00  0.00    -0.084 Cl
HETATM   24  C17 UNL     1      26.905   0.912  52.001  1.00  0.00     0.026 A 
HETATM   25  C18 UNL     1      25.639   1.452  51.775  1.00  0.00     0.031 A 
ENDBRANCH  17  19
ENDBRANCH   8  17
BRANCH   4  26
HETATM   26  C3  UNL     1      22.817   6.011  50.573  1.00  0.00     0.056 C 
BRANCH  26  27
HETATM   27  C4  UNL     1      24.247   6.355  50.854  1.00  0.00     0.274 C 
BRANCH  27  28
HETATM   28  N2  UNL     1      24.663   7.659  50.451  1.00  0.00     0.092 N 
HETATM   29  C5  UNL     1      23.972   8.004  49.220  1.00  0.00     0.298 C 
HETATM   30  C6  UNL     1      24.605   7.369  48.017  1.00  0.00     0.198 C 
HETATM   31  O2  UNL     1      25.540   6.405  48.281  1.00  0.00    -0.388 OA
HETATM   32  C7  UNL     1      26.534   6.768  49.162  1.00  0.00     0.198 C 
HETATM   33  C8  UNL     1      26.082   7.757  50.191  1.00  0.00     0.298 C 
ENDBRANCH  27  28
ENDBRANCH  26  27
ENDBRANCH   4  26
TORSDOF 5
ENDMDL
MODEL 2
REMARK VINA RESULT:      -8.1      3.096      6.157
REMARK  5 active torsions:
REMARK  status: ('A' for Active; 'I' for Inactive)
REMARK    1  A    between atoms: C2_4  and  C3_5 
REMARK    2  A    between atoms: C3_5  and  C4_6 
REMARK    3  A    between atoms: C4_6  and  N2_7 
REMARK    4  A    between atoms: C12_16  and  N3_17 
REMARK    5  A    between atoms: N3_17  and  C13_18 
ROOT
HETATM    1  O1  UNL     1      22.049   2.012  48.319  1.00  0.00    -0.267 OA
HETATM    2  C1  UNL     1      22.645   2.290  49.369  1.00  0.00     0.261 C 
HETATM    3  N1  UNL     1      23.626   2.008  50.385  1.00  0.00    -0.351 N 
HETATM    4  C2  UNL     1      23.824   2.872  51.524  1.00  0.00     0.099 C 
HETATM    5  C9  UNL     1      22.960   4.099  51.406  1.00  0.00     0.028 A 
HETATM    6  C10 UNL     1      23.331   4.888  52.453  1.00  0.00     0.023 A 
HETATM    7  C11 UNL     1      23.700   5.307  51.023  1.00  0.00     0.038 A 
HETATM    8  C12 UNL     1      24.503   5.112  49.945  1.00  0.00     0.115 C 
HETATM    9  N4  UNL     1      23.957   5.527  48.668  1.00  0.00    -0.235 NA
HETATM   10  C19 UNL     1      22.662   5.375  48.391  1.00  0.00     0.186 C 
HETATM   11  N5  UNL     1      21.812   4.779  49.425  1.00  0.00    -0.224 NA
HETATM   12  C20 UNL     1      21.985   3.510  49.656  1.00  0.00     0.087 A 
HETATM   13  C21 UNL     1      21.809   4.685  50.529  1.00  0.00     0.082 A 
HETATM   14  C22 UNL     1      21.450   5.852  51.113  1.00  0.00     0.024 C 
HETATM   15  C23 UNL     1      22.764   6.508  50.929  1.00  0.00     0.026 C 
HETATM   16  H1  UNL     1      24.010   1.127  50.007  1.00  0.00     0.163 HD
ENDROOT
BRANCH   8  17
HETATM   17  N3  UNL     1      25.544   4.514  49.231  1.00  0.00    -0.344 N 
HETATM   18  H16 UNL     1      25.568   3.508  48.930  1.00  0.00     0.167 HD
BRANCH  17  19
HETATM   19  C13 UNL     1      26.662   5.359  48.913  1.00  0.00     0.033 A 
HETATM   20  C14 UNL     1      27.856   4.801  48.542  1.00  0.00     0.031 A 
HETATM   21  C15 UNL     1      28.962   5.572  48.236  1.00  0.00     0.026 A 
HETATM   22  C16 UNL     1      28.830   6.939  48.313  1.00  0.00     0.034 A 
HETATM   23 CL1  UNL     1      30.260   7.868  47.917  1.00  0.00    -0.084 Cl
HETATM   24  C17 UNL     1      27.661   7.561  48.675  1.00  0.00     0.026 A 
HETATM   25  C18 UNL     1      26.580   6.732  48.974  1.00  0.00     0.031 A 
ENDBRANCH  17  19
ENDBRANCH   8  17
BRANCH   4  26
HETATM   26  C3  UNL     1      23.427   2.109  52.788  1.00  0.00     0.056 C 
BRANCH  26  27
HETATM   27  C4  UNL     1      24.439   1.018  52.953  1.00  0.00     0.274 C 
BRANCH  27  28
HETATM   28  N2  UNL     1      25.800   1.399  52.763  1.00  0.00     0.092 N 
HETATM   29  C5  UNL     1      26.463   0.371  51.978  1.00  0.00     0.298 C 
HETATM   30  C6  UNL     1      26.853  -0.815  52.811  1.00  0.00     0.198 C 
HETATM   31  O2  UNL     1      26.324  -0.850  54.073  1.00  0.00    -0.388 OA
HETATM   32  C7  UNL     1      26.498   0.292  54.822  1.00  0.00     0.198 C 
HETATM   33  C8  UNL     1      26.538   1.541  53.998  1.00  0.00     0.298 C 
ENDBRANCH  27  28
ENDBRANCH  26  27
ENDBRANCH   4  26
TORSDOF 5
ENDMDL
MODEL 3
REMARK VINA RESULT:      -8.1      2.831      5.026
REMARK  5 active torsions:
REMARK  status: ('A' for Active; 'I' for Inactive)
REMARK    1  A    between atoms: C2_4  and  C3_5 
REMARK    2  A    between atoms: C3_5  and  C4_6 
REMARK    3  A    between atoms: C4_6  and  N2_7 
REMARK    4  A    between atoms: C12_16  and  N3_17 
REMARK    5  A    between atoms: N3_17  and  C13_18 
ROOT
HETATM    1  O1  UNL     1      23.794   7.002  51.580  1.00  0.00    -0.267 OA
HETATM    2  C1  UNL     1      24.029   5.800  51.387  1.00  0.00     0.261 C 
HETATM    3  N1  UNL     1      24.542   4.523  51.810  1.00  0.00    -0.351 N 
HETATM    4  C2  UNL     1      24.515   3.361  50.954  1.00  0.00     0.099 C 
HETATM    5  C9  UNL     1      23.797   3.676  49.669  1.00  0.00     0.028 A 
HETATM    6  C10 UNL     1      23.719   2.484  49.013  1.00  0.00     0.023 A 
HETATM    7  C11 UNL     1      22.444   3.112  49.596  1.00  0.00     0.038 A 
HETATM    8  C12 UNL     1      21.702   3.378  50.702  1.00  0.00     0.115 C 
HETATM    9  N4  UNL     1      20.803   4.510  50.601  1.00  0.00    -0.235 NA
HETATM   10  C19 UNL     1      21.149   5.606  49.925  1.00  0.00     0.186 C 
HETATM   11  N5  UNL     1      22.466   5.622  49.286  1.00  0.00    -0.224 NA
HETATM   12  C20 UNL     1      23.495   5.700  50.079  1.00  0.00     0.087 A 
HETATM   13  C21 UNL     1      23.193   4.886  48.888  1.00  0.00     0.082 A 
HETATM   14  C22 UNL     1      22.781   4.394  47.695  1.00  0.00     0.024 C 
HETATM   15  C23 UNL     1      21.781   3.465  48.268  1.00  0.00     0.026 C 
HETATM   16  H1  UNL     1      24.854   4.774  52.762  1.00  0.00     0.163 HD
ENDROOT
BRANCH   8  17
HETATM   17  N3  UNL     1      21.404   3.347  52.066  1.00  0.00    -0.344 N 
HETATM   18  H16 UNL     1      21.179   4.189  52.653  1.00  0.00     0.167 HD
BRANCH  17  19
HETATM   19  C13 UNL     1      21.433   2.054  52.692  1.00  0.00     0.033 A 
HETATM   20  C14 UNL     1      22.603   1.345  52.743  1.00  0.00     0.031 A 
HETATM   21  C15 UNL     1      22.679   0.094  53.326  1.00  0.00     0.026 A 
HETATM   22  C16 UNL     1      21.527  -0.430  53.864  1.00  0.00     0.034 A 
HETATM   23 CL1  UNL     1      21.677  -2.018  54.588  1.00  0.00    -0.084 Cl
HETATM   24  C17 UNL     1      20.323   0.228  53.848  1.00  0.00     0.026 A 
HETATM   25  C18 UNL     1      20.308   1.486  53.246  1.00  0.00     0.031 A 
ENDBRANCH  17  19
ENDBRANCH   8  17
BRANCH   4  26
HETATM   26  C3  UNL     1      25.954   2.963  50.630  1.00  0.00     0.056 C 
BRANCH  26  27
HETATM   27  C4  UNL     1      26.305   1.857  51.577  1.00  0.00     0.274 C 
BRANCH  27  28
HETATM   28  N2  UNL     1      26.649   2.259  52.901  1.00  0.00     0.092 N 
HETATM   29  C5  UNL     1      28.091   2.161  53.054  1.00  0.00     0.298 C 
HETATM   30  C6  UNL     1      28.540   0.751  53.305  1.00  0.00     0.198 C 
HETATM   31  O2  UNL     1      27.591  -0.215  53.110  1.00  0.00    -0.388 OA
HETATM   32  C7  UNL     1      26.394  -0.011  53.759  1.00  0.00     0.198 C 
HETATM   33  C8  UNL     1      26.049   1.437  53.928  1.00  0.00     0.298 C 
ENDBRANCH  27  28
ENDBRANCH  26  27
ENDBRANCH   4  26
TORSDOF 5
ENDMDL
MODEL 4
REMARK VINA RESULT:      -8.1      2.470      5.696
REMARK  5 active torsions:
REMARK  status: ('A' for Active; 'I' for Inactive)
REMARK    1  A    between atoms: C2_4  and  C3_5 
REMARK    2  A    between atoms: C3_5  and  C4_6 
REMARK    3  A    between atoms: C4_6  and  N2_7 
REMARK    4  A    between atoms: C12_16  and  N3_17 
REMARK    5  A    between atoms: N3_17  and  C13_18 
ROOT
HETATM    1  O1  UNL     1      22.287   2.226  47.898  1.00  0.00    -0.267 OA
HETATM    2  C1  UNL     1      22.438   2.154  49.127  1.00  0.00     0.261 C 
HETATM    3  N1  UNL     1      22.642   1.404  50.339  1.00  0.00    -0.351 N 
HETATM    4  C2  UNL     1      22.719   2.038  51.632  1.00  0.00     0.099 C 
HETATM    5  C9  UNL     1      22.667   3.536  51.484  1.00  0.00     0.028 A 
HETATM    6  C10 UNL     1      22.882   4.017  52.740  1.00  0.00     0.023 A 
HETATM    7  C11 UNL     1      23.967   4.191  51.668  1.00  0.00     0.038 A 
HETATM    8  C12 UNL     1      24.956   3.615  50.936  1.00  0.00     0.115 C 
HETATM    9  N4  UNL     1      25.261   4.255  49.673  1.00  0.00    -0.235 NA
HETATM   10  C19 UNL     1      24.299   4.793  48.923  1.00  0.00     0.186 C 
HETATM   11  N5  UNL     1      22.925   4.716  49.424  1.00  0.00    -0.224 NA
HETATM   12  C20 UNL     1      22.371   3.538  49.417  1.00  0.00     0.087 A 
HETATM   13  C21 UNL     1      22.413   4.633  50.403  1.00  0.00     0.082 A 
HETATM   14  C22 UNL     1      22.432   5.817  51.060  1.00  0.00     0.024 C 
HETATM   15  C23 UNL     1      23.838   5.703  51.510  1.00  0.00     0.026 C 
HETATM   16  H1  UNL     1      22.691   0.451  49.941  1.00  0.00     0.163 HD
ENDROOT
BRANCH   8  17
HETATM   17  N3  UNL     1      25.788   2.569  50.532  1.00  0.00    -0.344 N 
HETATM   18  H16 UNL     1      25.919   2.253  49.538  1.00  0.00     0.167 HD
BRANCH  17  19
HETATM   19  C13 UNL     1      26.491   1.878  51.577  1.00  0.00     0.033 A 
HETATM   20  C14 UNL     1      27.250   2.584  52.472  1.00  0.00     0.031 A 
HETATM   21  C15 UNL     1      27.952   1.963  53.489  1.00  0.00     0.026 A 
HETATM   22  C16 UNL     1      27.867   0.593  53.580  1.00  0.00     0.034 A 
HETATM   23 CL1  UNL     1      28.775  -0.143  54.883  1.00  0.00    -0.084 Cl
HETATM   24  C17 UNL     1      27.123  -0.172  52.717  1.00  0.00     0.026 A 
HETATM   25  C18 UNL     1      26.438   0.509  51.711  1.00  0.00     0.031 A 
ENDBRANCH  17  19
ENDBRANCH   8  17
BRANCH   4  26
HETATM   26  C3  UNL     1      21.522   1.584  52.469  1.00  0.00     0.056 C 
BRANCH  26  27
HETATM   27  C4  UNL     1      22.069   0.659  53.512  1.00  0.00     0.274 C 
BRANCH  27  28
HETATM   28  N2  UNL     1      22.487  -0.623  53.048  1.00  0.00     0.092 N 
HETATM   29  C5  UNL     1      21.542  -1.619  53.524  1.00  0.00     0.298 C 
HETATM   30  C6  UNL     1      21.788  -1.994  54.956  1.00  0.00     0.198 C 
HETATM   31  O2  UNL     1      22.667  -1.194  55.634  1.00  0.00    -0.388 OA
HETATM   32  C7  UNL     1      23.880  -0.988  55.017  1.00  0.00     0.198 C 
HETATM   33  C8  UNL     1      23.797  -1.009  53.522  1.00  0.00     0.298 C 
ENDBRANCH  27  28
ENDBRANCH  26  27
ENDBRANCH   4  26
TORSDOF 5
ENDMDL
MODEL 5
REMARK VINA RESULT:      -8.0      1.632      2.116
REMARK  5 active torsions:
REMARK  status: ('A' for Active; 'I' for Inactive)
REMARK    1  A    between atoms: C2_4  and  C3_5 
REMARK    2  A    between atoms: C3_5  and  C4_6 
REMARK    3  A    between atoms: C4_6  and  N2_7 
REMARK    4  A    between atoms: C12_16  and  N3_17 
REMARK    5  A    between atoms: N3_17  and  C13_18 
ROOT
HETATM    1  O1  UNL     1      19.336   3.521  52.262  1.00  0.00    -0.267 OA
HETATM    2  C1  UNL     1      20.484   3.840  51.917  1.00  0.00     0.261 C 
HETATM    3  N1  UNL     1      21.781   4.402  52.189  1.00  0.00    -0.351 N 
HETATM    4  C2  UNL     1      22.806   4.498  51.178  1.00  0.00     0.099 C 
HETATM    5  C9  UNL     1      22.346   3.840  49.904  1.00  0.00     0.028 A 
HETATM    6  C10 UNL     1      23.432   3.875  49.083  1.00  0.00     0.023 A 
HETATM    7  C11 UNL     1      22.962   2.532  49.660  1.00  0.00     0.038 A 
HETATM    8  C12 UNL     1      22.898   1.710  50.740  1.00  0.00     0.115 C 
HETATM    9  N4  UNL     1      21.811   0.751  50.739  1.00  0.00    -0.235 NA
HETATM   10  C19 UNL     1      20.612   1.069  50.250  1.00  0.00     0.186 C 
HETATM   11  N5  UNL     1      20.436   2.419  49.710  1.00  0.00    -0.224 NA
HETATM   12  C20 UNL     1      20.420   3.392  50.575  1.00  0.00     0.087 A 
HETATM   13  C21 UNL     1      21.068   3.212  49.263  1.00  0.00     0.082 A 
HETATM   14  C22 UNL     1      21.402   2.904  47.988  1.00  0.00     0.024 C 
HETATM   15  C23 UNL     1      22.455   1.930  48.353  1.00  0.00     0.026 C 
HETATM   16  H1  UNL     1      21.654   4.642  53.186  1.00  0.00     0.163 HD
ENDROOT
BRANCH   8  17
HETATM   17  N3  UNL     1      23.142   1.333  52.062  1.00  0.00    -0.344 N 
HETATM   18  H16 UNL     1      22.452   1.420  52.851  1.00  0.00     0.167 HD
BRANCH  17  19
HETATM   19  C13 UNL     1      24.449   0.806  52.340  1.00  0.00     0.033 A 
HETATM   20  C14 UNL     1      24.587  -0.283  53.159  1.00  0.00     0.031 A 
HETATM   21  C15 UNL     1      25.823  -0.821  53.463  1.00  0.00     0.026 A 
HETATM   22  C16 UNL     1      26.933  -0.223  52.911  1.00  0.00     0.034 A 
HETATM   23 CL1  UNL     1      28.474  -0.942  53.330  1.00  0.00    -0.084 Cl
HETATM   24  C17 UNL     1      26.864   0.868  52.082  1.00  0.00     0.026 A 
HETATM   25  C18 UNL     1      25.589   1.367  51.812  1.00  0.00     0.031 A 
ENDBRANCH  17  19
ENDBRANCH   8  17
BRANCH   4  26
HETATM   26  C3  UNL     1      23.078   5.976  50.899  1.00  0.00     0.056 C 
BRANCH  26  27
HETATM   27  C4  UNL     1      21.739   6.618  50.708  1.00  0.00     0.274 C 
BRANCH  27  28
HETATM   28  N2  UNL     1      21.734   7.835  49.965  1.00  0.00     0.092 N 
HETATM   29  C5  UNL     1      20.401   8.411  50.028  1.00  0.00     0.298 C 
HETATM   30  C6  UNL     1      19.454   7.755  49.067  1.00  0.00     0.198 C 
HETATM   31  O2  UNL     1      19.907   6.602  48.485  1.00  0.00    -0.388 OA
HETATM   32  C7  UNL     1      21.148   6.682  47.896  1.00  0.00     0.198 C 
HETATM   33  C8  UNL     1      22.062   7.660  48.567  1.00  0.00     0.298 C 
ENDBRANCH  27  28
ENDBRANCH  26  27
ENDBRANCH   4  26
TORSDOF 5
ENDMDL
MODEL 6
REMARK VINA RESULT:      -8.0      2.354      3.907
REMARK  5 active torsions:
REMARK  status: ('A' for Active; 'I' for Inactive)
REMARK    1  A    between atoms: C2_4  and  C3_5 
REMARK    2  A    between atoms: C3_5  and  C4_6 
REMARK    3  A    between atoms: C4_6  and  N2_7 
REMARK    4  A    between atoms: C12_16  and  N3_17 
REMARK    5  A    between atoms: N3_17  and  C13_18 
ROOT
HETATM    1  O1  UNL     1      23.287   6.104  50.159  1.00  0.00    -0.267 OA
HETATM    2  C1  UNL     1      23.252   4.909  49.833  1.00  0.00     0.261 C 
HETATM    3  N1  UNL     1      23.649   3.812  48.989  1.00  0.00    -0.351 N 
HETATM    4  C2  UNL     1      23.144   2.474  49.178  1.00  0.00     0.099 C 
HETATM    5  C9  UNL     1      22.277   2.412  50.408  1.00  0.00     0.028 A 
HETATM    6  C10 UNL     1      21.976   1.091  50.556  1.00  0.00     0.023 A 
HETATM    7  C11 UNL     1      22.926   1.767  51.555  1.00  0.00     0.038 A 
HETATM    8  C12 UNL     1      24.169   2.257  51.801  1.00  0.00     0.115 C 
HETATM    9  N4  UNL     1      24.255   3.271  52.833  1.00  0.00    -0.235 NA
HETATM   10  C19 UNL     1      23.293   4.181  52.985  1.00  0.00     0.186 C 
HETATM   11  N5  UNL     1      22.146   4.116  52.077  1.00  0.00    -0.224 NA
HETATM   12  C20 UNL     1      22.367   4.453  50.839  1.00  0.00     0.087 A 
HETATM   13  C21 UNL     1      21.622   3.349  51.472  1.00  0.00     0.082 A 
HETATM   14  C22 UNL     1      20.860   2.550  52.256  1.00  0.00     0.024 C 
HETATM   15  C23 UNL     1      21.989   1.735  52.759  1.00  0.00     0.026 C 
HETATM   16  H1  UNL     1      24.292   4.312  48.353  1.00  0.00     0.163 HD
ENDROOT
BRANCH   8  17
HETATM   17  N3  UNL     1      25.499   2.550  51.494  1.00  0.00    -0.344 N 
HETATM   18  H16 UNL     1      25.814   3.333  50.868  1.00  0.00     0.167 HD
BRANCH  17  19
HETATM   19  C13 UNL     1      26.489   1.689  52.078  1.00  0.00     0.033 A 
HETATM   20  C14 UNL     1      26.332   0.330  52.020  1.00  0.00     0.031 A 
HETATM   21  C15 UNL     1      27.252  -0.540  52.575  1.00  0.00     0.026 A 
HETATM   22  C16 UNL     1      28.352   0.006  53.197  1.00  0.00     0.034 A 
HETATM   23 CL1  UNL     1      29.485  -1.139  53.884  1.00  0.00    -0.084 Cl
HETATM   24  C17 UNL     1      28.570   1.357  53.288  1.00  0.00     0.026 A 
HETATM   25  C18 UNL     1      27.607   2.185  52.710  1.00  0.00     0.031 A 
ENDBRANCH  17  19
ENDBRANCH   8  17
BRANCH   4  26
HETATM   26  C3  UNL     1      22.300   2.094  47.962  1.00  0.00     0.056 C 
BRANCH  26  27
HETATM   27  C4  UNL     1      22.280   3.300  47.075  1.00  0.00     0.274 C 
BRANCH  27  28
HETATM   28  N2  UNL     1      21.007   3.659  46.543  1.00  0.00     0.092 N 
HETATM   29  C5  UNL     1      21.155   3.912  45.119  1.00  0.00     0.298 C 
HETATM   30  C6  UNL     1      21.718   5.274  44.841  1.00  0.00     0.198 C 
HETATM   31  O2  UNL     1      22.216   5.941  45.927  1.00  0.00    -0.388 OA
HETATM   32  C7  UNL     1      21.371   6.026  47.010  1.00  0.00     0.198 C 
HETATM   33  C8  UNL     1      20.449   4.854  47.137  1.00  0.00     0.298 C 
ENDBRANCH  27  28
ENDBRANCH  26  27
ENDBRANCH   4  26
TORSDOF 5
ENDMDL
MODEL 7
REMARK VINA RESULT:      -7.9      6.205      9.796
REMARK  5 active torsions:
REMARK  status: ('A' for Active; 'I' for Inactive)
REMARK    1  A    between atoms: C2_4  and  C3_5 
REMARK    2  A    between atoms: C3_5  and  C4_6 
REMARK    3  A    between atoms: C4_6  and  N2_7 
REMARK    4  A    between atoms: C12_16  and  N3_17 
REMARK    5  A    between atoms: N3_17  and  C13_18 
ROOT
HETATM    1  O1  UNL     1      31.834   7.027  44.533  1.00  0.00    -0.267 OA
HETATM    2  C1  UNL     1      31.484   7.631  45.557  1.00  0.00     0.261 C 
HETATM    3  N1  UNL     1      30.678   8.608  46.242  1.00  0.00    -0.351 N 
HETATM    4  C2  UNL     1      30.809   8.859  47.657  1.00  0.00     0.099 C 
HETATM    5  C9  UNL     1      31.793   7.897  48.269  1.00  0.00     0.028 A 
HETATM    6  C10 UNL     1      31.730   8.141  49.608  1.00  0.00     0.023 A 
HETATM    7  C11 UNL     1      31.164   6.827  49.050  1.00  0.00     0.038 A 
HETATM    8  C12 UNL     1      30.157   6.208  48.379  1.00  0.00     0.115 C 
HETATM    9  N4  UNL     1      30.510   4.969  47.715  1.00  0.00    -0.235 NA
HETATM   10  C19 UNL     1      31.700   4.814  47.135  1.00  0.00     0.186 C 
HETATM   11  N5  UNL     1      32.638   5.937  47.197  1.00  0.00    -0.224 NA
HETATM   12  C20 UNL     1      32.343   6.980  46.476  1.00  0.00     0.087 A 
HETATM   13  C21 UNL     1      32.831   6.807  47.856  1.00  0.00     0.082 A 
HETATM   14  C22 UNL     1      33.444   6.421  49.000  1.00  0.00     0.024 C 
HETATM   15  C23 UNL     1      32.218   5.898  49.643  1.00  0.00     0.026 C 
HETATM   16  H1  UNL     1      30.116   8.950  45.445  1.00  0.00     0.163 HD
ENDROOT
BRANCH   8  17
HETATM   17  N3  UNL     1      28.933   6.141  47.711  1.00  0.00    -0.344 N 
HETATM   18  H16 UNL     1      28.816   5.935  46.687  1.00  0.00     0.167 HD
BRANCH  17  19
HETATM   19  C13 UNL     1      27.763   6.394  48.505  1.00  0.00     0.033 A 
HETATM   20  C14 UNL     1      27.519   7.654  48.981  1.00  0.00     0.031 A 
HETATM   21  C15 UNL     1      26.412   7.945  49.757  1.00  0.00     0.026 A 
HETATM   22  C16 UNL     1      25.545   6.916  50.043  1.00  0.00     0.034 A 
HETATM   23 CL1  UNL     1      24.161   7.337  51.029  1.00  0.00    -0.084 Cl
HETATM   24  C17 UNL     1      25.729   5.632  49.596  1.00  0.00     0.026 A 
HETATM   25  C18 UNL     1      26.864   5.399  48.818  1.00  0.00     0.031 A 
ENDBRANCH  17  19
ENDBRANCH   8  17
BRANCH   4  26
HETATM   26  C3  UNL     1      31.326  10.284  47.852  1.00  0.00     0.056 C 
BRANCH  26  27
HETATM   27  C4  UNL     1      30.150  11.098  48.297  1.00  0.00     0.274 C 
BRANCH  27  28
HETATM   28  N2  UNL     1      29.546  11.915  47.296  1.00  0.00     0.092 N 
HETATM   29  C5  UNL     1      29.359  13.250  47.840  1.00  0.00     0.298 C 
HETATM   30  C6  UNL     1      28.149  13.338  48.723  1.00  0.00     0.198 C 
HETATM   31  O2  UNL     1      27.577  12.142  49.063  1.00  0.00    -0.388 OA
HETATM   32  C7  UNL     1      27.297  11.297  48.013  1.00  0.00     0.198 C 
HETATM   33  C8  UNL     1      28.250  11.439  46.867  1.00  0.00     0.298 C 
ENDBRANCH  27  28
ENDBRANCH  26  27
ENDBRANCH   4  26
TORSDOF 5
ENDMDL
MODEL 8
REMARK VINA RESULT:      -7.8      9.338     12.159
REMARK  5 active torsions:
REMARK  status: ('A' for Active; 'I' for Inactive)
REMARK    1  A    between atoms: C2_4  and  C3_5 
REMARK    2  A    between atoms: C3_5  and  C4_6 
REMARK    3  A    between atoms: C4_6  and  N2_7 
REMARK    4  A    between atoms: C12_16  and  N3_17 
REMARK    5  A    between atoms: N3_17  and  C13_18 
ROOT
HETATM    1  O1  UNL     1      35.764   6.119  48.692  1.00  0.00    -0.267 OA
HETATM    2  C1  UNL     1      34.594   6.074  48.286  1.00  0.00     0.261 C 
HETATM    3  N1  UNL     1      33.381   6.708  47.837  1.00  0.00    -0.351 N 
HETATM    4  C2  UNL     1      32.204   5.952  47.482  1.00  0.00     0.099 C 
HETATM    5  C9  UNL     1      32.492   4.475  47.548  1.00  0.00     0.028 A 
HETATM    6  C10 UNL     1      31.365   3.880  47.068  1.00  0.00     0.023 A 
HETATM    7  C11 UNL     1      32.653   3.846  46.233  1.00  0.00     0.038 A 
HETATM    8  C12 UNL     1      33.512   4.523  45.427  1.00  0.00     0.115 C 
HETATM    9  N4  UNL     1      34.871   4.020  45.389  1.00  0.00    -0.235 NA
HETATM   10  C19 UNL     1      35.454   3.529  46.483  1.00  0.00     0.186 C 
HETATM   11  N5  UNL     1      34.671   3.512  47.720  1.00  0.00    -0.224 NA
HETATM   12  C20 UNL     1      34.440   4.667  48.275  1.00  0.00     0.087 A 
HETATM   13  C21 UNL     1      33.603   3.482  48.014  1.00  0.00     0.082 A 
HETATM   14  C22 UNL     1      33.089   2.240  47.845  1.00  0.00     0.024 C 
HETATM   15  C23 UNL     1      32.935   2.354  46.377  1.00  0.00     0.026 C 
HETATM   16  H1  UNL     1      33.680   7.695  47.883  1.00  0.00     0.163 HD
ENDROOT
BRANCH   8  17
HETATM   17  N3  UNL     1      33.973   5.630  44.710  1.00  0.00    -0.344 N 
HETATM   18  H16 UNL     1      34.184   6.571  45.125  1.00  0.00     0.167 HD
BRANCH  17  19
HETATM   19  C13 UNL     1      34.143   5.442  43.296  1.00  0.00     0.033 A 
HETATM   20  C14 UNL     1      33.277   4.640  42.603  1.00  0.00     0.031 A 
HETATM   21  C15 UNL     1      33.405   4.421  41.244  1.00  0.00     0.026 A 
HETATM   22  C16 UNL     1      34.445   5.043  40.593  1.00  0.00     0.034 A 
HETATM   23 CL1  UNL     1      34.564   4.732  38.874  1.00  0.00    -0.084 Cl
HETATM   24  C17 UNL     1      35.347   5.860  41.227  1.00  0.00     0.026 A 
HETATM   25  C18 UNL     1      35.167   6.043  42.598  1.00  0.00     0.031 A 
ENDBRANCH  17  19
ENDBRANCH   8  17
BRANCH   4  26
HETATM   26  C3  UNL     1      31.094   6.283  48.478  1.00  0.00     0.056 C 
BRANCH  26  27
HETATM   27  C4  UNL     1      31.319   7.702  48.899  1.00  0.00     0.274 C 
BRANCH  27  28
HETATM   28  N2  UNL     1      30.145   8.492  49.075  1.00  0.00     0.092 N 
HETATM   29  C5  UNL     1      29.344   8.407  47.865  1.00  0.00     0.298 C 
HETATM   30  C6  UNL     1      29.856   9.309  46.782  1.00  0.00     0.198 C 
HETATM   31  O2  UNL     1      31.089   9.860  47.005  1.00  0.00    -0.388 OA
HETATM   32  C7  UNL     1      31.245  10.494  48.217  1.00  0.00     0.198 C 
HETATM   33  C8  UNL     1      30.421   9.891  49.312  1.00  0.00     0.298 C 
ENDBRANCH  27  28
ENDBRANCH  26  27
ENDBRANCH   4  26
TORSDOF 5
ENDMDL
MODEL 9
REMARK VINA RESULT:      -7.5      7.136     10.876
REMARK  5 active torsions:
REMARK  status: ('A' for Active; 'I' for Inactive)
REMARK    1  A    between atoms: C2_4  and  C3_5 
REMARK    2  A    between atoms: C3_5  and  C4_6 
REMARK    3  A    between atoms: C4_6  and  N2_7 
REMARK    4  A    between atoms: C12_16  and  N3_17 
REMARK    5  A    between atoms: N3_17  and  C13_18 
ROOT
HETATM    1  O1  UNL     1      33.270   4.467  44.296  1.00  0.00    -0.267 OA
HETATM    2  C1  UNL     1      32.904   5.493  44.888  1.00  0.00     0.261 C 
HETATM    3  N1  UNL     1      32.061   6.654  45.013  1.00  0.00    -0.351 N 
HETATM    4  C2  UNL     1      32.196   7.588  46.104  1.00  0.00     0.099 C 
HETATM    5  C9  UNL     1      33.229   7.101  47.085  1.00  0.00     0.028 A 
HETATM    6  C10 UNL     1      33.169   7.984  48.121  1.00  0.00     0.023 A 
HETATM    7  C11 UNL     1      32.658   6.549  48.318  1.00  0.00     0.038 A 
HETATM    8  C12 UNL     1      31.673   5.643  48.084  1.00  0.00     0.115 C 
HETATM    9  N4  UNL     1      32.076   4.251  48.122  1.00  0.00    -0.235 NA
HETATM   10  C19 UNL     1      33.265   3.865  47.661  1.00  0.00     0.186 C 
HETATM   11  N5  UNL     1      34.151   4.898  47.119  1.00  0.00    -0.224 NA
HETATM   12  C20 UNL     1      33.801   5.424  45.981  1.00  0.00     0.087 A 
HETATM   13  C21 UNL     1      34.312   5.987  47.244  1.00  0.00     0.082 A 
HETATM   14  C22 UNL     1      34.954   6.253  48.406  1.00  0.00     0.024 C 
HETATM   15  C23 UNL     1      33.760   6.083  49.264  1.00  0.00     0.026 C 
HETATM   16  H1  UNL     1      31.475   6.528  44.171  1.00  0.00     0.163 HD
ENDROOT
BRANCH   8  17
HETATM   17  N3  UNL     1      30.446   5.206  47.580  1.00  0.00    -0.344 N 
HETATM   18  H16 UNL     1      30.323   4.425  46.888  1.00  0.00     0.167 HD
BRANCH  17  19
HETATM   19  C13 UNL     1      29.284   5.908  48.047  1.00  0.00     0.033 A 
HETATM   20  C14 UNL     1      28.167   5.209  48.420  1.00  0.00     0.031 A 
HETATM   21  C15 UNL     1      27.021   5.840  48.867  1.00  0.00     0.026 A 
HETATM   22  C16 UNL     1      27.032   7.215  48.930  1.00  0.00     0.034 A 
HETATM   23 CL1  UNL     1      25.556   7.964  49.501  1.00  0.00    -0.084 Cl
HETATM   24  C17 UNL     1      28.118   7.974  48.574  1.00  0.00     0.026 A 
HETATM   25  C18 UNL     1      29.245   7.282  48.130  1.00  0.00     0.031 A 
ENDBRANCH  17  19
ENDBRANCH   8  17
BRANCH   4  26
HETATM   26  C3  UNL     1      32.649   8.934  45.539  1.00  0.00     0.056 C 
BRANCH  26  27
HETATM   27  C4  UNL     1      31.400   9.683  45.192  1.00  0.00     0.274 C 
BRANCH  27  28
HETATM   28  N2  UNL     1      31.484  11.104  45.276  1.00  0.00     0.092 N 
HETATM   29  C5  UNL     1      32.330  11.452  46.405  1.00  0.00     0.298 C 
HETATM   30  C6  UNL     1      31.596  11.362  47.711  1.00  0.00     0.198 C 
HETATM   31  O2  UNL     1      30.372  10.753  47.661  1.00  0.00    -0.388 OA
HETATM   32  C7  UNL     1      29.509  11.234  46.702  1.00  0.00     0.198 C 
HETATM   33  C8  UNL     1      30.206  11.748  45.480  1.00  0.00     0.298 C 
ENDBRANCH  27  28
ENDBRANCH  26  27
ENDBRANCH   4  26
TORSDOF 5
ENDMDL
