MODEL 1
REMARK VINA RESULT:      -8.7      0.000      0.000
REMARK  3 active torsions:
REMARK  status: ('A' for Active; 'I' for Inactive)
REMARK    1  A    between atoms: O1_2  and  C2_3 
REMARK    2  A    between atoms: C8_14  and  N5_15 
REMARK    3  A    between atoms: N5_15  and  C9_16 
ROOT
HETATM    1  C2  UNL     1      25.715   8.440  48.846  1.00  0.00     0.076 A 
HETATM    2  C3  UNL     1      25.134   8.222  50.001  1.00  0.00     0.047 A 
HETATM    3  C4  UNL     1      25.612   6.864  50.185  1.00  0.00     0.185 A 
HETATM    4  O2  UNL     1      24.651   5.903  50.234  1.00  0.00    -0.355 OA
HETATM    5  C5  UNL     1      23.820   6.002  51.347  1.00  0.00     0.342 C 
HETATM    6  N1  UNL     1      22.931   4.864  51.451  1.00  0.00    -0.166 NA
HETATM    7  N2  UNL     1      23.138   3.780  51.889  1.00  0.00    -0.116 NA
HETATM    8  C6  UNL     1      24.059   3.000  52.455  1.00  0.00     0.406 A 
HETATM    9  N3  UNL     1      24.744   3.465  51.439  1.00  0.00    -0.026 NA
HETATM   10  C7  UNL     1      25.983   3.210  51.129  1.00  0.00     0.727 A 
HETATM   11  N4  UNL     1      26.727   2.394  51.872  1.00  0.00    -0.014 NA
HETATM   12  C8  UNL     1      26.180   1.830  52.955  1.00  0.00     0.298 A 
HETATM   13  N6  UNL     1      25.046   2.328  52.867  1.00  0.00    -0.346 NA
HETATM   14  N7  UNL     1      26.593   3.812  49.966  1.00  0.00    -0.219 N 
HETATM   15  C15 UNL     1      27.267   4.526  48.928  1.00  0.00     0.166 C 
HETATM   16  C16 UNL     1      26.879   5.911  48.698  1.00  0.00     0.006 C 
HETATM   17  C17 UNL     1      26.261   7.064  48.877  1.00  0.00     0.005 A 
HETATM   18  H14 UNL     1      26.104   3.041  49.392  1.00  0.00     0.178 HD
ENDROOT
BRANCH  12  19
HETATM   19  N5  UNL     1      26.676   0.925  53.917  1.00  0.00    -0.315 N 
HETATM   20  H8  UNL     1      26.412   1.114  54.933  1.00  0.00     0.170 HD
BRANCH  19  21
HETATM   21  C9  UNL     1      27.480  -0.191  53.607  1.00  0.00     0.035 A 
HETATM   22  C10 UNL     1      28.828  -0.222  53.869  1.00  0.00     0.029 A 
HETATM   23  C11 UNL     1      29.644  -1.308  53.584  1.00  0.00     0.002 A 
HETATM   24  C12 UNL     1      28.973  -2.370  53.006  1.00  0.00     0.000 A 
HETATM   25  C13 UNL     1      27.624  -2.463  52.694  1.00  0.00     0.002 A 
HETATM   26  C14 UNL     1      26.925  -1.304  53.032  1.00  0.00     0.029 A 
ENDBRANCH  19  21
ENDBRANCH  12  19
BRANCH   1  27
HETATM   27  O1  UNL     1      25.878   9.395  47.874  1.00  0.00    -0.356 OA
HETATM   28  C1  UNL     1      27.067   9.604  47.186  1.00  0.00     0.210 C 
ENDBRANCH   1  27
TORSDOF 3
ENDMDL
MODEL 2
REMARK VINA RESULT:      -8.5      1.159      1.498
REMARK  3 active torsions:
REMARK  status: ('A' for Active; 'I' for Inactive)
REMARK    1  A    between atoms: O1_2  and  C2_3 
REMARK    2  A    between atoms: C8_14  and  N5_15 
REMARK    3  A    between atoms: N5_15  and  C9_16 
ROOT
HETATM    1  C2  UNL     1      25.209   8.326  47.804  1.00  0.00     0.076 A 
HETATM    2  C3  UNL     1      24.378   7.845  48.697  1.00  0.00     0.047 A 
HETATM    3  C4  UNL     1      25.191   6.715  49.104  1.00  0.00     0.185 A 
HETATM    4  O2  UNL     1      24.655   5.487  48.866  1.00  0.00    -0.355 OA
HETATM    5  C5  UNL     1      23.512   5.224  49.617  1.00  0.00     0.342 C 
HETATM    6  N1  UNL     1      23.080   3.851  49.465  1.00  0.00    -0.166 NA
HETATM    7  N2  UNL     1      23.477   2.869  50.003  1.00  0.00    -0.116 NA
HETATM    8  C6  UNL     1      24.354   2.402  50.891  1.00  0.00     0.406 A 
HETATM    9  N3  UNL     1      25.146   3.140  50.152  1.00  0.00    -0.026 NA
HETATM   10  C7  UNL     1      26.424   3.335  50.304  1.00  0.00     0.727 A 
HETATM   11  N4  UNL     1      27.098   2.762  51.299  1.00  0.00    -0.014 NA
HETATM   12  C8  UNL     1      26.437   1.972  52.153  1.00  0.00     0.298 A 
HETATM   13  N6  UNL     1      25.305   2.069  51.653  1.00  0.00    -0.346 NA
HETATM   14  N7  UNL     1      27.155   4.187  49.394  1.00  0.00    -0.219 N 
HETATM   15  C15 UNL     1      27.861   5.157  48.618  1.00  0.00     0.166 C 
HETATM   16  C16 UNL     1      27.133   6.347  48.197  1.00  0.00     0.006 C 
HETATM   17  C17 UNL     1      26.141   7.212  48.092  1.00  0.00     0.005 A 
HETATM   18  H14 UNL     1      27.182   3.340  48.726  1.00  0.00     0.178 HD
ENDROOT
BRANCH  12  19
HETATM   19  N5  UNL     1      26.848   1.218  53.272  1.00  0.00    -0.315 N 
HETATM   20  H8  UNL     1      26.644   1.637  54.233  1.00  0.00     0.170 HD
BRANCH  19  21
HETATM   21  C9  UNL     1      27.494  -0.032  53.186  1.00  0.00     0.035 A 
HETATM   22  C10 UNL     1      26.852  -1.162  52.742  1.00  0.00     0.029 A 
HETATM   23  C11 UNL     1      27.461  -2.405  52.638  1.00  0.00     0.002 A 
HETATM   24  C12 UNL     1      28.789  -2.406  53.025  1.00  0.00     0.000 A 
HETATM   25  C13 UNL     1      29.548  -1.339  53.487  1.00  0.00     0.002 A 
HETATM   26  C14 UNL     1      28.811  -0.155  53.542  1.00  0.00     0.029 A 
ENDBRANCH  19  21
ENDBRANCH  12  19
BRANCH   1  27
HETATM   27  O1  UNL     1      25.363   9.348  46.901  1.00  0.00    -0.356 OA
HETATM   28  C1  UNL     1      26.437  10.229  46.905  1.00  0.00     0.210 C 
ENDBRANCH   1  27
TORSDOF 3
ENDMDL
MODEL 3
REMARK VINA RESULT:      -8.4      4.878      7.634
REMARK  3 active torsions:
REMARK  status: ('A' for Active; 'I' for Inactive)
REMARK    1  A    between atoms: O1_2  and  C2_3 
REMARK    2  A    between atoms: C8_14  and  N5_15 
REMARK    3  A    between atoms: N5_15  and  C9_16 
ROOT
HETATM    1  C2  UNL     1      17.342  -0.843  52.435  1.00  0.00     0.076 A 
HETATM    2  C3  UNL     1      17.812   0.024  51.571  1.00  0.00     0.047 A 
HETATM    3  C4  UNL     1      19.179   0.034  52.059  1.00  0.00     0.185 A 
HETATM    4  O2  UNL     1      19.624   1.225  52.542  1.00  0.00    -0.355 OA
HETATM    5  C5  UNL     1      19.724   2.218  51.570  1.00  0.00     0.342 C 
HETATM    6  N1  UNL     1      20.363   3.408  52.089  1.00  0.00    -0.166 NA
HETATM    7  N2  UNL     1      21.518   3.644  52.234  1.00  0.00    -0.116 NA
HETATM    8  C6  UNL     1      22.749   3.156  52.081  1.00  0.00     0.406 A 
HETATM    9  N3  UNL     1      22.178   2.150  52.698  1.00  0.00    -0.026 NA
HETATM   10  C7  UNL     1      22.713   1.010  53.029  1.00  0.00     0.727 A 
HETATM   11  N4  UNL     1      23.985   0.737  52.750  1.00  0.00    -0.014 NA
HETATM   12  C8  UNL     1      24.719   1.660  52.118  1.00  0.00     0.298 A 
HETATM   13  N6  UNL     1      23.849   2.539  52.006  1.00  0.00    -0.346 NA
HETATM   14  N7  UNL     1      21.937  -0.001  53.709  1.00  0.00    -0.219 N 
HETATM   15  C15 UNL     1      21.148  -1.078  54.221  1.00  0.00     0.166 C 
HETATM   16  C16 UNL     1      19.773  -1.189  53.755  1.00  0.00     0.006 C 
HETATM   17  C17 UNL     1      18.681  -0.925  53.061  1.00  0.00     0.005 A 
HETATM   18  H14 UNL     1      22.127   0.554  54.613  1.00  0.00     0.178 HD
ENDROOT
BRANCH  12  19
HETATM   19  N5  UNL     1      26.068   1.693  51.706  1.00  0.00    -0.315 N 
HETATM   20  H8  UNL     1      26.258   2.054  50.719  1.00  0.00     0.170 HD
BRANCH  19  21
HETATM   21  C9  UNL     1      27.149   1.288  52.514  1.00  0.00     0.035 A 
HETATM   22  C10 UNL     1      27.949   2.187  53.176  1.00  0.00     0.029 A 
HETATM   23  C11 UNL     1      29.016   1.820  53.985  1.00  0.00     0.002 A 
HETATM   24  C12 UNL     1      29.205   0.452  54.068  1.00  0.00     0.000 A 
HETATM   25  C13 UNL     1      28.470  -0.553  53.453  1.00  0.00     0.002 A 
HETATM   26  C14 UNL     1      27.432  -0.043  52.672  1.00  0.00     0.029 A 
ENDBRANCH  19  21
ENDBRANCH  12  19
BRANCH   1  27
HETATM   27  O1  UNL     1      16.194  -1.504  52.798  1.00  0.00    -0.356 OA
HETATM   28  C1  UNL     1      15.323  -2.095  51.892  1.00  0.00     0.210 C 
ENDBRANCH   1  27
TORSDOF 3
ENDMDL
MODEL 4
REMARK VINA RESULT:      -8.2      5.464      7.896
REMARK  3 active torsions:
REMARK  status: ('A' for Active; 'I' for Inactive)
REMARK    1  A    between atoms: O1_2  and  C2_3 
REMARK    2  A    between atoms: C8_14  and  N5_15 
REMARK    3  A    between atoms: N5_15  and  C9_16 
ROOT
HETATM    1  C2  UNL     1      26.392   2.282  51.132  1.00  0.00     0.076 A 
HETATM    2  C3  UNL     1      26.417   1.028  51.516  1.00  0.00     0.047 A 
HETATM    3  C4  UNL     1      25.039   0.954  51.965  1.00  0.00     0.185 A 
HETATM    4  O2  UNL     1      24.865   0.699  53.290  1.00  0.00    -0.355 OA
HETATM    5  C5  UNL     1      25.295  -0.568  53.674  1.00  0.00     0.342 C 
HETATM    6  N1  UNL     1      24.931  -0.862  55.044  1.00  0.00    -0.166 NA
HETATM    7  N2  UNL     1      23.897  -1.243  55.487  1.00  0.00    -0.116 NA
HETATM    8  C6  UNL     1      22.651  -1.595  55.173  1.00  0.00     0.406 A 
HETATM    9  N3  UNL     1      22.736  -0.454  54.533  1.00  0.00    -0.026 NA
HETATM   10  C7  UNL     1      21.826   0.117  53.797  1.00  0.00     0.727 A 
HETATM   11  N4  UNL     1      20.635  -0.445  53.611  1.00  0.00    -0.014 NA
HETATM   12  C8  UNL     1      20.378  -1.621  54.197  1.00  0.00     0.298 A 
HETATM   13  N6  UNL     1      21.469  -1.781  54.768  1.00  0.00    -0.346 NA
HETATM   14  N7  UNL     1      22.085   1.384  53.154  1.00  0.00    -0.219 N 
HETATM   15  C15 UNL     1      22.375   2.544  52.369  1.00  0.00     0.166 C 
HETATM   16  C16 UNL     1      23.726   2.682  51.842  1.00  0.00     0.006 C 
HETATM   17  C17 UNL     1      24.980   2.372  51.566  1.00  0.00     0.005 A 
HETATM   18  H14 UNL     1      21.857   1.840  54.104  1.00  0.00     0.178 HD
ENDROOT
BRANCH  12  19
HETATM   19  N5  UNL     1      19.237  -2.451  54.219  1.00  0.00    -0.315 N 
HETATM   20  H8  UNL     1      19.290  -3.320  54.835  1.00  0.00     0.170 HD
BRANCH  19  21
HETATM   21  C9  UNL     1      18.061  -2.191  53.488  1.00  0.00     0.035 A 
HETATM   22  C10 UNL     1      17.854  -1.006  52.824  1.00  0.00     0.029 A 
HETATM   23  C11 UNL     1      16.710  -0.723  52.090  1.00  0.00     0.002 A 
HETATM   24  C12 UNL     1      15.785  -1.752  52.085  1.00  0.00     0.000 A 
HETATM   25  C13 UNL     1      15.875  -2.988  52.709  1.00  0.00     0.002 A 
HETATM   26  C14 UNL     1      17.073  -3.137  53.410  1.00  0.00     0.029 A 
ENDBRANCH  19  21
ENDBRANCH  12  19
BRANCH   1  27
HETATM   27  O1  UNL     1      27.173   3.265  50.577  1.00  0.00    -0.356 OA
HETATM   28  C1  UNL     1      26.781   4.046  49.497  1.00  0.00     0.210 C 
ENDBRANCH   1  27
TORSDOF 3
ENDMDL
MODEL 5
REMARK VINA RESULT:      -8.1      5.986      8.446
REMARK  3 active torsions:
REMARK  status: ('A' for Active; 'I' for Inactive)
REMARK    1  A    between atoms: O1_2  and  C2_3 
REMARK    2  A    between atoms: C8_14  and  N5_15 
REMARK    3  A    between atoms: N5_15  and  C9_16 
ROOT
HETATM    1  C2  UNL     1      26.655   1.474  52.454  1.00  0.00     0.076 A 
HETATM    2  C3  UNL     1      26.157   0.271  52.602  1.00  0.00     0.047 A 
HETATM    3  C4  UNL     1      24.758   0.654  52.572  1.00  0.00     0.185 A 
HETATM    4  O2  UNL     1      24.054   0.401  53.708  1.00  0.00    -0.355 OA
HETATM    5  C5  UNL     1      23.909  -0.957  53.982  1.00  0.00     0.342 C 
HETATM    6  N1  UNL     1      23.010  -1.183  55.094  1.00  0.00    -0.166 NA
HETATM    7  N2  UNL     1      21.823  -1.206  55.113  1.00  0.00    -0.116 NA
HETATM    8  C6  UNL     1      20.726  -1.084  54.365  1.00  0.00     0.406 A 
HETATM    9  N3  UNL     1      21.379  -0.010  53.993  1.00  0.00    -0.026 NA
HETATM   10  C7  UNL     1      21.013   0.883  53.119  1.00  0.00     0.727 A 
HETATM   11  N4  UNL     1      19.855   0.780  52.471  1.00  0.00    -0.014 NA
HETATM   12  C8  UNL     1      19.060  -0.264  52.732  1.00  0.00     0.298 A 
HETATM   13  N6  UNL     1      19.770  -0.826  53.581  1.00  0.00    -0.346 NA
HETATM   14  N7  UNL     1      21.858   2.016  52.821  1.00  0.00    -0.219 N 
HETATM   15  C15 UNL     1      22.748   3.044  52.383  1.00  0.00     0.166 C 
HETATM   16  C16 UNL     1      24.171   2.735  52.343  1.00  0.00     0.006 C 
HETATM   17  C17 UNL     1      25.281   2.025  52.428  1.00  0.00     0.005 A 
HETATM   18  H14 UNL     1      21.457   2.467  53.714  1.00  0.00     0.178 HD
ENDROOT
BRANCH  12  19
HETATM   19  N5  UNL     1      17.791  -0.646  52.247  1.00  0.00    -0.315 N 
HETATM   20  H8  UNL     1      17.316   0.027  51.567  1.00  0.00     0.170 HD
BRANCH  19  21
HETATM   21  C9  UNL     1      17.140  -1.844  52.603  1.00  0.00     0.035 A 
HETATM   22  C10 UNL     1      17.730  -2.792  53.403  1.00  0.00     0.029 A 
HETATM   23  C11 UNL     1      17.113  -3.978  53.777  1.00  0.00     0.002 A 
HETATM   24  C12 UNL     1      15.835  -4.123  53.268  1.00  0.00     0.000 A 
HETATM   25  C13 UNL     1      15.131  -3.245  52.456  1.00  0.00     0.002 A 
HETATM   26  C14 UNL     1      15.870  -2.098  52.158  1.00  0.00     0.029 A 
ENDBRANCH  19  21
ENDBRANCH  12  19
BRANCH   1  27
HETATM   27  O1  UNL     1      27.843   2.156  52.354  1.00  0.00    -0.356 OA
HETATM   28  C1  UNL     1      28.657   2.454  53.440  1.00  0.00     0.210 C 
ENDBRANCH   1  27
TORSDOF 3
ENDMDL
MODEL 6
REMARK VINA RESULT:      -8.1      5.928      8.399
REMARK  3 active torsions:
REMARK  status: ('A' for Active; 'I' for Inactive)
REMARK    1  A    between atoms: O1_2  and  C2_3 
REMARK    2  A    between atoms: C8_14  and  N5_15 
REMARK    3  A    between atoms: N5_15  and  C9_16 
ROOT
HETATM    1  C2  UNL     1      26.466   2.181  53.526  1.00  0.00     0.076 A 
HETATM    2  C3  UNL     1      25.480   2.815  52.940  1.00  0.00     0.047 A 
HETATM    3  C4  UNL     1      24.464   1.802  53.161  1.00  0.00     0.185 A 
HETATM    4  O2  UNL     1      23.937   1.242  52.040  1.00  0.00    -0.355 OA
HETATM    5  C5  UNL     1      23.199   2.135  51.266  1.00  0.00     0.342 C 
HETATM    6  N1  UNL     1      22.513   1.461  50.183  1.00  0.00    -0.166 NA
HETATM    7  N2  UNL     1      21.490   0.859  50.195  1.00  0.00    -0.116 NA
HETATM    8  C6  UNL     1      20.481   0.457  50.967  1.00  0.00     0.406 A 
HETATM    9  N3  UNL     1      21.498   0.082  51.704  1.00  0.00    -0.026 NA
HETATM   10  C7  UNL     1      21.467  -0.503  52.867  1.00  0.00     0.727 A 
HETATM   11  N4  UNL     1      20.314  -0.797  53.462  1.00  0.00    -0.014 NA
HETATM   12  C8  UNL     1      19.170  -0.481  52.844  1.00  0.00     0.298 A 
HETATM   13  N6  UNL     1      19.652   0.031  51.820  1.00  0.00    -0.346 NA
HETATM   14  N7  UNL     1      22.691  -0.850  53.552  1.00  0.00    -0.219 N 
HETATM   15  C15 UNL     1      23.878  -1.043  54.325  1.00  0.00     0.166 C 
HETATM   16  C16 UNL     1      24.937  -0.051  54.196  1.00  0.00     0.006 C 
HETATM   17  C17 UNL     1      25.555   1.049  53.808  1.00  0.00     0.005 A 
HETATM   18  H14 UNL     1      22.724  -1.720  52.916  1.00  0.00     0.178 HD
ENDROOT
BRANCH  12  19
HETATM   19  N5  UNL     1      17.814  -0.670  53.184  1.00  0.00    -0.315 N 
HETATM   20  H8  UNL     1      17.286   0.188  53.537  1.00  0.00     0.170 HD
BRANCH  19  21
HETATM   21  C9  UNL     1      17.140  -1.903  53.079  1.00  0.00     0.035 A 
HETATM   22  C10 UNL     1      17.616  -3.053  53.660  1.00  0.00     0.029 A 
HETATM   23  C11 UNL     1      16.973  -4.280  53.582  1.00  0.00     0.002 A 
HETATM   24  C12 UNL     1      15.794  -4.244  52.859  1.00  0.00     0.000 A 
HETATM   25  C13 UNL     1      15.208  -3.154  52.229  1.00  0.00     0.002 A 
HETATM   26  C14 UNL     1      15.961  -1.989  52.388  1.00  0.00     0.029 A 
ENDBRANCH  19  21
ENDBRANCH  12  19
BRANCH   1  27
HETATM   27  O1  UNL     1      27.797   2.297  53.843  1.00  0.00    -0.356 OA
HETATM   28  C1  UNL     1      28.698   1.240  53.796  1.00  0.00     0.210 C 
ENDBRANCH   1  27
TORSDOF 3
ENDMDL
MODEL 7
REMARK VINA RESULT:      -8.0      3.665      5.850
REMARK  3 active torsions:
REMARK  status: ('A' for Active; 'I' for Inactive)
REMARK    1  A    between atoms: O1_2  and  C2_3 
REMARK    2  A    between atoms: C8_14  and  N5_15 
REMARK    3  A    between atoms: N5_15  and  C9_16 
ROOT
HETATM    1  C2  UNL     1      26.622   5.231  49.076  1.00  0.00     0.076 A 
HETATM    2  C3  UNL     1      26.794   3.935  49.172  1.00  0.00     0.047 A 
HETATM    3  C4  UNL     1      25.687   3.677  50.074  1.00  0.00     0.185 A 
HETATM    4  O2  UNL     1      26.025   3.176  51.293  1.00  0.00    -0.355 OA
HETATM    5  C5  UNL     1      26.573   1.897  51.237  1.00  0.00     0.342 C 
HETATM    6  N1  UNL     1      26.753   1.337  52.559  1.00  0.00    -0.166 NA
HETATM    7  N2  UNL     1      25.963   0.804  53.269  1.00  0.00    -0.116 NA
HETATM    8  C6  UNL     1      24.691   0.421  53.375  1.00  0.00     0.406 A 
HETATM    9  N3  UNL     1      24.525   1.660  52.983  1.00  0.00    -0.026 NA
HETATM   10  C7  UNL     1      23.404   2.283  52.761  1.00  0.00     0.727 A 
HETATM   11  N4  UNL     1      22.232   1.674  52.923  1.00  0.00    -0.014 NA
HETATM   12  C8  UNL     1      22.219   0.397  53.322  1.00  0.00     0.298 A 
HETATM   13  N6  UNL     1      23.445   0.220  53.407  1.00  0.00    -0.346 NA
HETATM   14  N7  UNL     1      23.397   3.661  52.328  1.00  0.00    -0.219 N 
HETATM   15  C15 UNL     1      23.366   4.960  51.733  1.00  0.00     0.166 C 
HETATM   16  C16 UNL     1      24.419   5.293  50.783  1.00  0.00     0.006 C 
HETATM   17  C17 UNL     1      25.477   5.135  50.009  1.00  0.00     0.005 A 
HETATM   18  H14 UNL     1      23.542   3.920  53.364  1.00  0.00     0.178 HD
ENDROOT
BRANCH  12  19
HETATM   19  N5  UNL     1      21.173  -0.509  53.601  1.00  0.00    -0.315 N 
HETATM   20  H8  UNL     1      21.362  -1.241  54.354  1.00  0.00     0.170 HD
BRANCH  19  21
HETATM   21  C9  UNL     1      19.921  -0.489  52.953  1.00  0.00     0.035 A 
HETATM   22  C10 UNL     1      19.699   0.230  51.804  1.00  0.00     0.029 A 
HETATM   23  C11 UNL     1      18.481   0.264  51.139  1.00  0.00     0.002 A 
HETATM   24  C12 UNL     1      17.498  -0.501  51.741  1.00  0.00     0.000 A 
HETATM   25  C13 UNL     1      17.596  -1.268  52.894  1.00  0.00     0.002 A 
HETATM   26  C14 UNL     1      18.871  -1.210  53.458  1.00  0.00     0.029 A 
ENDBRANCH  19  21
ENDBRANCH  12  19
BRANCH   1  27
HETATM   27  O1  UNL     1      27.133   6.355  48.475  1.00  0.00    -0.356 OA
HETATM   28  C1  UNL     1      28.481   6.535  48.190  1.00  0.00     0.210 C 
ENDBRANCH   1  27
TORSDOF 3
ENDMDL
MODEL 8
REMARK VINA RESULT:      -8.0      5.562      8.739
REMARK  3 active torsions:
REMARK  status: ('A' for Active; 'I' for Inactive)
REMARK    1  A    between atoms: O1_2  and  C2_3 
REMARK    2  A    between atoms: C8_14  and  N5_15 
REMARK    3  A    between atoms: N5_15  and  C9_16 
ROOT
HETATM    1  C2  UNL     1      26.881   1.495  52.598  1.00  0.00     0.076 A 
HETATM    2  C3  UNL     1      26.361   0.300  52.739  1.00  0.00     0.047 A 
HETATM    3  C4  UNL     1      24.971   0.697  52.605  1.00  0.00     0.185 A 
HETATM    4  O2  UNL     1      24.188   0.477  53.696  1.00  0.00    -0.355 OA
HETATM    5  C5  UNL     1      24.010  -0.872  53.990  1.00  0.00     0.342 C 
HETATM    6  N1  UNL     1      23.034  -1.063  55.043  1.00  0.00    -0.166 NA
HETATM    7  N2  UNL     1      21.849  -1.074  54.982  1.00  0.00    -0.116 NA
HETATM    8  C6  UNL     1      20.807  -0.959  54.158  1.00  0.00     0.406 A 
HETATM    9  N3  UNL     1      21.496   0.100  53.807  1.00  0.00    -0.026 NA
HETATM   10  C7  UNL     1      21.200   0.976  52.890  1.00  0.00     0.727 A 
HETATM   11  N4  UNL     1      20.088   0.870  52.168  1.00  0.00    -0.014 NA
HETATM   12  C8  UNL     1      19.265  -0.159  52.397  1.00  0.00     0.298 A 
HETATM   13  N6  UNL     1      19.909  -0.709  53.306  1.00  0.00    -0.346 NA
HETATM   14  N7  UNL     1      22.077   2.093  52.625  1.00  0.00    -0.219 N 
HETATM   15  C15 UNL     1      23.007   3.102  52.226  1.00  0.00     0.166 C 
HETATM   16  C16 UNL     1      24.425   2.777  52.289  1.00  0.00     0.006 C 
HETATM   17  C17 UNL     1      25.519   2.058  52.466  1.00  0.00     0.005 A 
HETATM   18  H14 UNL     1      21.622   2.569  53.479  1.00  0.00     0.178 HD
ENDROOT
BRANCH  12  19
HETATM   19  N5  UNL     1      18.028  -0.540  51.836  1.00  0.00    -0.315 N 
HETATM   20  H8  UNL     1      18.033  -1.402  51.205  1.00  0.00     0.170 HD
BRANCH  19  21
HETATM   21  C9  UNL     1      16.816   0.142  52.065  1.00  0.00     0.035 A 
HETATM   22  C10 UNL     1      16.566   1.390  51.549  1.00  0.00     0.029 A 
HETATM   23  C11 UNL     1      15.381   2.085  51.749  1.00  0.00     0.002 A 
HETATM   24  C12 UNL     1      14.461   1.401  52.524  1.00  0.00     0.000 A 
HETATM   25  C13 UNL     1      14.591   0.144  53.098  1.00  0.00     0.002 A 
HETATM   26  C14 UNL     1      15.829  -0.437  52.817  1.00  0.00     0.029 A 
ENDBRANCH  19  21
ENDBRANCH  12  19
BRANCH   1  27
HETATM   27  O1  UNL     1      28.081   2.161  52.564  1.00  0.00    -0.356 OA
HETATM   28  C1  UNL     1      28.862   2.406  53.687  1.00  0.00     0.210 C 
ENDBRANCH   1  27
TORSDOF 3
ENDMDL
MODEL 9
REMARK VINA RESULT:      -8.0      3.258      4.422
REMARK  3 active torsions:
REMARK  status: ('A' for Active; 'I' for Inactive)
REMARK    1  A    between atoms: O1_2  and  C2_3 
REMARK    2  A    between atoms: C8_14  and  N5_15 
REMARK    3  A    between atoms: N5_15  and  C9_16 
ROOT
HETATM    1  C2  UNL     1      21.587   3.676  46.958  1.00  0.00     0.076 A 
HETATM    2  C3  UNL     1      22.637   4.163  47.574  1.00  0.00     0.047 A 
HETATM    3  C4  UNL     1      22.695   3.173  48.633  1.00  0.00     0.185 A 
HETATM    4  O2  UNL     1      22.518   3.649  49.895  1.00  0.00    -0.355 OA
HETATM    5  C5  UNL     1      23.541   4.494  50.320  1.00  0.00     0.342 C 
HETATM    6  N1  UNL     1      23.403   4.833  51.721  1.00  0.00    -0.166 NA
HETATM    7  N2  UNL     1      23.719   4.214  52.683  1.00  0.00    -0.116 NA
HETATM    8  C6  UNL     1      24.275   3.078  53.104  1.00  0.00     0.406 A 
HETATM    9  N3  UNL     1      23.404   2.604  52.246  1.00  0.00    -0.026 NA
HETATM   10  C7  UNL     1      23.198   1.359  51.925  1.00  0.00     0.727 A 
HETATM   11  N4  UNL     1      23.904   0.377  52.478  1.00  0.00    -0.014 NA
HETATM   12  C8  UNL     1      24.842   0.686  53.382  1.00  0.00     0.298 A 
HETATM   13  N6  UNL     1      24.699   1.920  53.377  1.00  0.00    -0.346 NA
HETATM   14  N7  UNL     1      22.192   1.004  50.951  1.00  0.00    -0.219 N 
HETATM   15  C15 UNL     1      21.331   0.643  49.869  1.00  0.00     0.166 C 
HETATM   16  C16 UNL     1      21.241   1.561  48.741  1.00  0.00     0.006 C 
HETATM   17  C17 UNL     1      21.499   2.609  47.981  1.00  0.00     0.005 A 
HETATM   18  H14 UNL     1      21.475   1.103  51.750  1.00  0.00     0.178 HD
ENDROOT
BRANCH  12  19
HETATM   19  N5  UNL     1      25.727  -0.099  54.150  1.00  0.00    -0.315 N 
HETATM   20  H8  UNL     1      25.293  -0.690  54.925  1.00  0.00     0.170 HD
BRANCH  19  21
HETATM   21  C9  UNL     1      27.121  -0.143  53.945  1.00  0.00     0.035 A 
HETATM   22  C10 UNL     1      27.739  -1.199  53.322  1.00  0.00     0.029 A 
HETATM   23  C11 UNL     1      29.108  -1.269  53.099  1.00  0.00     0.002 A 
HETATM   24  C12 UNL     1      29.803  -0.168  53.565  1.00  0.00     0.000 A 
HETATM   25  C13 UNL     1      29.299   0.956  54.206  1.00  0.00     0.002 A 
HETATM   26  C14 UNL     1      27.914   0.893  54.365  1.00  0.00     0.029 A 
ENDBRANCH  19  21
ENDBRANCH  12  19
BRANCH   1  27
HETATM   27  O1  UNL     1      20.768   3.882  45.876  1.00  0.00    -0.356 OA
HETATM   28  C1  UNL     1      19.406   3.608  45.874  1.00  0.00     0.210 C 
ENDBRANCH   1  27
TORSDOF 3
ENDMDL
