MODEL 1
REMARK VINA RESULT:      -7.9      0.000      0.000
REMARK  8 active torsions:
REMARK  status: ('A' for Active; 'I' for Inactive)
REMARK    1  A    between atoms: C3_3  and  O1_4 
REMARK    2  A    between atoms: C12_14  and  C13_15 
REMARK    3  A    between atoms: C13_15  and  C14_16 
REMARK    4  A    between atoms: C14_16  and  N1_17 
REMARK    5  A    between atoms: N2_20  and  C17_21 
REMARK    6  A    between atoms: C17_21  and  C18_22 
REMARK    7  A    between atoms: C18_22  and  C19_23 
REMARK    8  A    between atoms: C19_23  and  C20_24 
ROOT
HETATM    1  C1  UNL     1      29.083  -2.556  53.199  1.00  0.00     0.022 C 
HETATM    2  C2  UNL     1      28.375  -1.470  53.398  1.00  0.00    -0.022 C 
HETATM    3  C3  UNL     1      26.948  -1.250  53.207  1.00  0.00     0.098 C 
HETATM    4  C4  UNL     1      26.162  -0.397  53.892  1.00  0.00     0.068 C 
HETATM    5  C5  UNL     1      26.750   0.410  54.945  1.00  0.00     0.029 C 
HETATM    6  C6  UNL     1      28.046   0.217  55.117  1.00  0.00    -0.013 C 
HETATM    7  C7  UNL     1      28.821  -0.105  53.897  1.00  0.00     0.067 C 
HETATM    8  C8  UNL     1      28.942   0.879  52.837  1.00  0.00     0.182 C 
HETATM    9  O2  UNL     1      28.191   1.940  52.625  1.00  0.00    -0.377 OA
HETATM   10  C9  UNL     1      26.903   2.016  52.395  1.00  0.00     0.168 C 
HETATM   11  C10 UNL     1      26.583   3.012  51.280  1.00  0.00     0.005 C 
HETATM   12  C11 UNL     1      25.284   2.717  50.944  1.00  0.00    -0.017 C 
HETATM   13  C12 UNL     1      24.313   1.901  51.769  1.00  0.00     0.059 C 
HETATM   14  C15 UNL     1      24.979   0.729  52.416  1.00  0.00     0.018 C 
HETATM   15  C16 UNL     1      26.213   0.798  51.831  1.00  0.00     0.034 C 
HETATM   16  N2  UNL     1      24.837  -0.375  53.370  1.00  0.00    -0.348 N 
ENDROOT
BRANCH  13  17
HETATM   17  C13 UNL     1      23.547   2.787  52.667  1.00  0.00     0.044 C 
BRANCH  17  18
HETATM   18  C14 UNL     1      22.997   3.961  51.866  1.00  0.00     0.267 C 
BRANCH  18  19
HETATM   19  N1  UNL     1      22.933   5.187  52.596  1.00  0.00     0.078 N 
HETATM   20  H17 UNL     1      23.880   5.376  53.012  1.00  0.00     0.312 HD
HETATM   21  H18 UNL     1      22.728   6.027  51.975  1.00  0.00     0.312 HD
ENDBRANCH  18  19
ENDBRANCH  17  18
ENDBRANCH  13  17
BRANCH  16  22
HETATM   22  C17 UNL     1      23.491  -0.870  53.309  1.00  0.00     0.129 C 
BRANCH  22  23
HETATM   23  C18 UNL     1      22.778  -0.974  54.608  1.00  0.00     0.020 C 
BRANCH  23  24
HETATM   24  C19 UNL     1      21.432  -0.304  54.586  1.00  0.00     0.001 C 
BRANCH  24  25
HETATM   25  C20 UNL     1      21.132   0.001  53.122  1.00  0.00    -0.004 C 
HETATM   26  C21 UNL     1      19.633  -0.190  52.936  1.00  0.00     0.005 C 
ENDBRANCH  24  25
ENDBRANCH  23  24
ENDBRANCH  22  23
ENDBRANCH  16  22
BRANCH   3  27
HETATM   27  O1  UNL     1      26.538  -2.087  52.180  1.00  0.00    -0.358 OA
HETATM   28  H3  UNL     1      26.148  -3.003  52.416  1.00  0.00     0.217 HD
ENDBRANCH   3  27
TORSDOF 8
ENDMDL
MODEL 2
REMARK VINA RESULT:      -7.6      2.429      5.254
REMARK  8 active torsions:
REMARK  status: ('A' for Active; 'I' for Inactive)
REMARK    1  A    between atoms: C3_3  and  O1_4 
REMARK    2  A    between atoms: C12_14  and  C13_15 
REMARK    3  A    between atoms: C13_15  and  C14_16 
REMARK    4  A    between atoms: C14_16  and  N1_17 
REMARK    5  A    between atoms: N2_20  and  C17_21 
REMARK    6  A    between atoms: C17_21  and  C18_22 
REMARK    7  A    between atoms: C18_22  and  C19_23 
REMARK    8  A    between atoms: C19_23  and  C20_24 
ROOT
HETATM    1  C1  UNL     1      28.576   0.965  54.983  1.00  0.00     0.022 C 
HETATM    2  C2  UNL     1      27.622   0.698  54.124  1.00  0.00    -0.022 C 
HETATM    3  C3  UNL     1      26.935   1.589  53.200  1.00  0.00     0.098 C 
HETATM    4  C4  UNL     1      26.406   1.263  52.004  1.00  0.00     0.068 C 
HETATM    5  C5  UNL     1      26.505  -0.108  51.541  1.00  0.00     0.029 C 
HETATM    6  C6  UNL     1      27.123  -0.922  52.381  1.00  0.00    -0.013 C 
HETATM    7  C7  UNL     1      26.940  -0.627  53.820  1.00  0.00     0.067 C 
HETATM    8  C8  UNL     1      25.623  -0.743  54.421  1.00  0.00     0.182 C 
HETATM    9  O2  UNL     1      24.455  -0.762  53.814  1.00  0.00    -0.377 OA
HETATM   10  C9  UNL     1      23.900   0.142  53.044  1.00  0.00     0.168 C 
HETATM   11  C10 UNL     1      22.418   0.332  53.367  1.00  0.00     0.005 C 
HETATM   12  C11 UNL     1      22.097   1.510  52.737  1.00  0.00    -0.017 C 
HETATM   13  C12 UNL     1      22.910   2.195  51.660  1.00  0.00     0.059 C 
HETATM   14  C15 UNL     1      24.377   2.116  51.935  1.00  0.00     0.018 C 
HETATM   15  C16 UNL     1      24.361   1.572  53.189  1.00  0.00     0.034 C 
HETATM   16  N2  UNL     1      25.725   2.368  51.417  1.00  0.00    -0.348 N 
ENDROOT
BRANCH  13  17
HETATM   17  C13 UNL     1      22.475   1.731  50.328  1.00  0.00     0.044 C 
BRANCH  17  18
HETATM   18  C14 UNL     1      20.956   1.604  50.311  1.00  0.00     0.267 C 
BRANCH  18  19
HETATM   19  N1  UNL     1      20.404   1.387  49.012  1.00  0.00     0.078 N 
HETATM   20  H17 UNL     1      19.367   1.240  49.112  1.00  0.00     0.312 HD
HETATM   21  H18 UNL     1      20.506   2.233  48.374  1.00  0.00     0.312 HD
ENDBRANCH  18  19
ENDBRANCH  17  18
ENDBRANCH  13  17
BRANCH  16  22
HETATM   22  C17 UNL     1      25.698   3.554  50.609  1.00  0.00     0.129 C 
BRANCH  22  23
HETATM   23  C18 UNL     1      26.705   3.620  49.518  1.00  0.00     0.020 C 
BRANCH  23  24
HETATM   24  C19 UNL     1      26.809   4.991  48.909  1.00  0.00     0.001 C 
BRANCH  24  25
HETATM   25  C20 UNL     1      28.259   5.152  48.467  1.00  0.00    -0.004 C 
HETATM   26  C21 UNL     1      28.388   6.560  47.900  1.00  0.00     0.005 C 
ENDBRANCH  24  25
ENDBRANCH  23  24
ENDBRANCH  22  23
ENDBRANCH  16  22
BRANCH   3  27
HETATM   27  O1  UNL     1      26.924   2.849  53.778  1.00  0.00    -0.358 OA
HETATM   28  H3  UNL     1      27.199   2.945  54.758  1.00  0.00     0.217 HD
ENDBRANCH   3  27
TORSDOF 8
ENDMDL
MODEL 3
REMARK VINA RESULT:      -7.4      2.090      5.906
REMARK  8 active torsions:
REMARK  status: ('A' for Active; 'I' for Inactive)
REMARK    1  A    between atoms: C3_3  and  O1_4 
REMARK    2  A    between atoms: C12_14  and  C13_15 
REMARK    3  A    between atoms: C13_15  and  C14_16 
REMARK    4  A    between atoms: C14_16  and  N1_17 
REMARK    5  A    between atoms: N2_20  and  C17_21 
REMARK    6  A    between atoms: C17_21  and  C18_22 
REMARK    7  A    between atoms: C18_22  and  C19_23 
REMARK    8  A    between atoms: C19_23  and  C20_24 
ROOT
HETATM    1  C1  UNL     1      25.814   4.662  49.520  1.00  0.00     0.022 C 
HETATM    2  C2  UNL     1      24.964   4.197  50.405  1.00  0.00    -0.022 C 
HETATM    3  C3  UNL     1      25.108   3.080  51.327  1.00  0.00     0.098 C 
HETATM    4  C4  UNL     1      24.535   2.952  52.540  1.00  0.00     0.068 C 
HETATM    5  C5  UNL     1      23.674   4.014  53.026  1.00  0.00     0.029 C 
HETATM    6  C6  UNL     1      23.535   5.027  52.188  1.00  0.00    -0.013 C 
HETATM    7  C7  UNL     1      23.566   4.685  50.748  1.00  0.00     0.067 C 
HETATM    8  C8  UNL     1      22.516   3.859  50.178  1.00  0.00     0.182 C 
HETATM    9  O2  UNL     1      21.675   3.067  50.811  1.00  0.00    -0.377 OA
HETATM   10  C9  UNL     1      21.920   2.032  51.576  1.00  0.00     0.168 C 
HETATM   11  C10 UNL     1      20.971   0.870  51.282  1.00  0.00     0.005 C 
HETATM   12  C11 UNL     1      21.569  -0.202  51.897  1.00  0.00    -0.017 C 
HETATM   13  C12 UNL     1      22.660  -0.135  52.943  1.00  0.00     0.059 C 
HETATM   14  C15 UNL     1      23.660   0.935  52.638  1.00  0.00     0.018 C 
HETATM   15  C16 UNL     1      23.236   1.315  51.395  1.00  0.00     0.034 C 
HETATM   16  N2  UNL     1      24.822   1.684  53.122  1.00  0.00    -0.348 N 
ENDROOT
BRANCH  13  17
HETATM   17  C13 UNL     1      22.063  -0.097  54.292  1.00  0.00     0.044 C 
BRANCH  17  18
HETATM   18  C14 UNL     1      22.265  -1.448  54.969  1.00  0.00     0.267 C 
BRANCH  18  19
HETATM   19  N1  UNL     1      23.447  -1.530  55.766  1.00  0.00     0.078 N 
HETATM   20  H17 UNL     1      23.213  -2.038  56.657  1.00  0.00     0.312 HD
HETATM   21  H18 UNL     1      24.214  -2.109  55.308  1.00  0.00     0.312 HD
ENDBRANCH  18  19
ENDBRANCH  17  18
ENDBRANCH  13  17
BRANCH  16  22
HETATM   22  C17 UNL     1      25.644   0.809  53.908  1.00  0.00     0.129 C 
BRANCH  22  23
HETATM   23  C18 UNL     1      26.154  -0.402  53.212  1.00  0.00     0.020 C 
BRANCH  23  24
HETATM   24  C19 UNL     1      27.579  -0.251  52.758  1.00  0.00     0.001 C 
BRANCH  24  25
HETATM   25  C20 UNL     1      28.438  -0.339  54.015  1.00  0.00    -0.004 C 
HETATM   26  C21 UNL     1      29.831  -0.757  53.562  1.00  0.00     0.005 C 
ENDBRANCH  24  25
ENDBRANCH  23  24
ENDBRANCH  22  23
ENDBRANCH  16  22
BRANCH   3  27
HETATM   27  O1  UNL     1      25.954   2.160  50.727  1.00  0.00    -0.358 OA
HETATM   28  H3  UNL     1      25.729   1.821  49.788  1.00  0.00     0.217 HD
ENDBRANCH   3  27
TORSDOF 8
ENDMDL
MODEL 4
REMARK VINA RESULT:      -7.1      2.463      5.398
REMARK  8 active torsions:
REMARK  status: ('A' for Active; 'I' for Inactive)
REMARK    1  A    between atoms: C3_3  and  O1_4 
REMARK    2  A    between atoms: C12_14  and  C13_15 
REMARK    3  A    between atoms: C13_15  and  C14_16 
REMARK    4  A    between atoms: C14_16  and  N1_17 
REMARK    5  A    between atoms: N2_20  and  C17_21 
REMARK    6  A    between atoms: C17_21  and  C18_22 
REMARK    7  A    between atoms: C18_22  and  C19_23 
REMARK    8  A    between atoms: C19_23  and  C20_24 
ROOT
HETATM    1  C1  UNL     1      24.541   6.341  50.815  1.00  0.00     0.022 C 
HETATM    2  C2  UNL     1      24.323   5.048  50.787  1.00  0.00    -0.022 C 
HETATM    3  C3  UNL     1      23.323   4.263  51.497  1.00  0.00     0.098 C 
HETATM    4  C4  UNL     1      22.749   3.117  51.082  1.00  0.00     0.068 C 
HETATM    5  C5  UNL     1      23.133   2.564  49.797  1.00  0.00     0.029 C 
HETATM    6  C6  UNL     1      24.046   3.270  49.152  1.00  0.00    -0.013 C 
HETATM    7  C7  UNL     1      25.042   3.966  49.997  1.00  0.00     0.067 C 
HETATM    8  C8  UNL     1      25.972   3.194  50.802  1.00  0.00     0.182 C 
HETATM    9  O2  UNL     1      25.875   1.933  51.168  1.00  0.00    -0.377 OA
HETATM   10  C9  UNL     1      24.946   1.339  51.876  1.00  0.00     0.168 C 
HETATM   11  C10 UNL     1      25.541   0.377  52.903  1.00  0.00     0.005 C 
HETATM   12  C11 UNL     1      24.495   0.122  53.755  1.00  0.00    -0.017 C 
HETATM   13  C12 UNL     1      23.033   0.400  53.479  1.00  0.00     0.059 C 
HETATM   14  C15 UNL     1      22.838   1.698  52.763  1.00  0.00     0.018 C 
HETATM   15  C16 UNL     1      24.113   2.191  52.803  1.00  0.00     0.034 C 
HETATM   16  N2  UNL     1      21.886   2.576  52.078  1.00  0.00    -0.348 N 
ENDROOT
BRANCH  13  17
HETATM   17  C13 UNL     1      22.404  -0.782  52.859  1.00  0.00     0.044 C 
BRANCH  17  18
HETATM   18  C14 UNL     1      21.556  -1.505  53.899  1.00  0.00     0.267 C 
BRANCH  18  19
HETATM   19  N1  UNL     1      20.955  -0.640  54.864  1.00  0.00     0.078 N 
HETATM   20  H17 UNL     1      19.990  -1.000  55.077  1.00  0.00     0.312 HD
HETATM   21  H18 UNL     1      21.467  -0.644  55.797  1.00  0.00     0.312 HD
ENDBRANCH  18  19
ENDBRANCH  17  18
ENDBRANCH  13  17
BRANCH  16  22
HETATM   22  C17 UNL     1      20.607   2.465  52.721  1.00  0.00     0.129 C 
BRANCH  22  23
HETATM   23  C18 UNL     1      19.461   2.134  51.834  1.00  0.00     0.020 C 
BRANCH  23  24
HETATM   24  C19 UNL     1      19.491   0.708  51.358  1.00  0.00     0.001 C 
BRANCH  24  25
HETATM   25  C20 UNL     1      18.069   0.178  51.512  1.00  0.00    -0.004 C 
HETATM   26  C21 UNL     1      18.100  -0.823  52.660  1.00  0.00     0.005 C 
ENDBRANCH  24  25
ENDBRANCH  23  24
ENDBRANCH  22  23
ENDBRANCH  16  22
BRANCH   3  27
HETATM   27  O1  UNL     1      23.062   4.917  52.692  1.00  0.00    -0.358 OA
HETATM   28  H3  UNL     1      23.437   5.859  52.831  1.00  0.00     0.217 HD
ENDBRANCH   3  27
TORSDOF 8
ENDMDL
MODEL 5
REMARK VINA RESULT:      -6.9      2.629      5.820
REMARK  8 active torsions:
REMARK  status: ('A' for Active; 'I' for Inactive)
REMARK    1  A    between atoms: C3_3  and  O1_4 
REMARK    2  A    between atoms: C12_14  and  C13_15 
REMARK    3  A    between atoms: C13_15  and  C14_16 
REMARK    4  A    between atoms: C14_16  and  N1_17 
REMARK    5  A    between atoms: N2_20  and  C17_21 
REMARK    6  A    between atoms: C17_21  and  C18_22 
REMARK    7  A    between atoms: C18_22  and  C19_23 
REMARK    8  A    between atoms: C19_23  and  C20_24 
ROOT
HETATM    1  C1  UNL     1      21.681  -0.326  54.264  1.00  0.00     0.022 C 
HETATM    2  C2  UNL     1      21.840   0.483  53.245  1.00  0.00    -0.022 C 
HETATM    3  C3  UNL     1      23.064   1.058  52.704  1.00  0.00     0.098 C 
HETATM    4  C4  UNL     1      23.302   1.396  51.422  1.00  0.00     0.068 C 
HETATM    5  C5  UNL     1      22.260   1.185  50.434  1.00  0.00     0.029 C 
HETATM    6  C6  UNL     1      21.145   0.669  50.923  1.00  0.00    -0.013 C 
HETATM    7  C7  UNL     1      20.799   1.069  52.306  1.00  0.00     0.067 C 
HETATM    8  C8  UNL     1      20.479   2.455  52.599  1.00  0.00     0.182 C 
HETATM    9  O2  UNL     1      20.761   3.521  51.880  1.00  0.00    -0.377 OA
HETATM   10  C9  UNL     1      21.926   3.988  51.502  1.00  0.00     0.168 C 
HETATM   11  C10 UNL     1      22.008   5.506  51.655  1.00  0.00     0.005 C 
HETATM   12  C11 UNL     1      23.352   5.771  51.554  1.00  0.00    -0.017 C 
HETATM   13  C12 UNL     1      24.406   4.834  51.007  1.00  0.00     0.059 C 
HETATM   14  C15 UNL     1      24.169   3.420  51.431  1.00  0.00     0.018 C 
HETATM   15  C16 UNL     1      23.139   3.601  52.312  1.00  0.00     0.034 C 
HETATM   16  N2  UNL     1      24.574   2.020  51.274  1.00  0.00    -0.348 N 
ENDROOT
BRANCH  13  17
HETATM   17  C13 UNL     1      24.574   5.054  49.557  1.00  0.00     0.044 C 
BRANCH  17  18
HETATM   18  C14 UNL     1      26.056   5.216  49.242  1.00  0.00     0.267 C 
BRANCH  18  19
HETATM   19  N1  UNL     1      26.610   6.461  49.669  1.00  0.00     0.078 N 
HETATM   20  H17 UNL     1      26.738   7.075  48.825  1.00  0.00     0.312 HD
HETATM   21  H18 UNL     1      25.958   7.004  50.313  1.00  0.00     0.312 HD
ENDBRANCH  18  19
ENDBRANCH  17  18
ENDBRANCH  13  17
BRANCH  16  22
HETATM   22  C17 UNL     1      25.992   1.969  51.060  1.00  0.00     0.129 C 
BRANCH  22  23
HETATM   23  C18 UNL     1      26.781   1.260  52.101  1.00  0.00     0.020 C 
BRANCH  23  24
HETATM   24  C19 UNL     1      26.698  -0.235  51.972  1.00  0.00     0.001 C 
BRANCH  24  25
HETATM   25  C20 UNL     1      27.172  -0.805  53.304  1.00  0.00    -0.004 C 
HETATM   26  C21 UNL     1      28.684  -0.615  53.345  1.00  0.00     0.005 C 
ENDBRANCH  24  25
ENDBRANCH  23  24
ENDBRANCH  22  23
ENDBRANCH  16  22
BRANCH   3  27
HETATM   27  O1  UNL     1      23.954   1.194  53.759  1.00  0.00    -0.358 OA
HETATM   28  H3  UNL     1      23.588   1.209  54.714  1.00  0.00     0.217 HD
ENDBRANCH   3  27
TORSDOF 8
ENDMDL
MODEL 6
REMARK VINA RESULT:      -6.9      2.900      6.955
REMARK  8 active torsions:
REMARK  status: ('A' for Active; 'I' for Inactive)
REMARK    1  A    between atoms: C3_3  and  O1_4 
REMARK    2  A    between atoms: C12_14  and  C13_15 
REMARK    3  A    between atoms: C13_15  and  C14_16 
REMARK    4  A    between atoms: C14_16  and  N1_17 
REMARK    5  A    between atoms: N2_20  and  C17_21 
REMARK    6  A    between atoms: C17_21  and  C18_22 
REMARK    7  A    between atoms: C18_22  and  C19_23 
REMARK    8  A    between atoms: C19_23  and  C20_24 
ROOT
HETATM    1  C1  UNL     1      20.672   3.252  49.290  1.00  0.00     0.022 C 
HETATM    2  C2  UNL     1      21.557   3.219  50.256  1.00  0.00    -0.022 C 
HETATM    3  C3  UNL     1      23.010   3.157  50.177  1.00  0.00     0.098 C 
HETATM    4  C4  UNL     1      23.891   3.663  51.061  1.00  0.00     0.068 C 
HETATM    5  C5  UNL     1      23.391   4.354  52.235  1.00  0.00     0.029 C 
HETATM    6  C6  UNL     1      22.072   4.407  52.314  1.00  0.00    -0.013 C 
HETATM    7  C7  UNL     1      21.344   3.243  51.761  1.00  0.00     0.067 C 
HETATM    8  C8  UNL     1      21.491   1.938  52.380  1.00  0.00     0.182 C 
HETATM    9  O2  UNL     1      22.445   1.528  53.191  1.00  0.00    -0.377 OA
HETATM   10  C9  UNL     1      23.737   1.452  52.986  1.00  0.00     0.168 C 
HETATM   11  C10 UNL     1      24.323   0.149  53.528  1.00  0.00     0.005 C 
HETATM   12  C11 UNL     1      25.563   0.081  52.941  1.00  0.00    -0.017 C 
HETATM   13  C12 UNL     1      26.296   1.223  52.274  1.00  0.00     0.059 C 
HETATM   14  C15 UNL     1      25.373   2.090  51.478  1.00  0.00     0.018 C 
HETATM   15  C16 UNL     1      24.222   1.356  51.560  1.00  0.00     0.034 C 
HETATM   16  N2  UNL     1      25.231   3.330  50.711  1.00  0.00    -0.348 N 
ENDROOT
BRANCH  13  17
HETATM   17  C13 UNL     1      27.148   1.919  53.258  1.00  0.00     0.044 C 
BRANCH  17  18
HETATM   18  C14 UNL     1      28.364   1.054  53.570  1.00  0.00     0.267 C 
BRANCH  18  19
HETATM   19  N1  UNL     1      28.550   0.791  54.962  1.00  0.00     0.078 N 
HETATM   20  H17 UNL     1      29.451   1.239  55.267  1.00  0.00     0.312 HD
HETATM   21  H18 UNL     1      27.797   1.236  55.570  1.00  0.00     0.312 HD
ENDBRANCH  18  19
ENDBRANCH  17  18
ENDBRANCH  13  17
BRANCH  16  22
HETATM   22  C17 UNL     1      26.459   3.587  50.013  1.00  0.00     0.129 C 
BRANCH  22  23
HETATM   23  C18 UNL     1      26.479   4.807  49.164  1.00  0.00     0.020 C 
BRANCH  23  24
HETATM   24  C19 UNL     1      27.824   5.055  48.540  1.00  0.00     0.001 C 
BRANCH  24  25
HETATM   25  C20 UNL     1      27.844   6.525  48.139  1.00  0.00    -0.004 C 
HETATM   26  C21 UNL     1      26.396   6.999  48.152  1.00  0.00     0.005 C 
ENDBRANCH  24  25
ENDBRANCH  23  24
ENDBRANCH  22  23
ENDBRANCH  16  22
BRANCH   3  27
HETATM   27  O1  UNL     1      23.328   2.476  49.011  1.00  0.00    -0.358 OA
HETATM   28  H3  UNL     1      22.946   2.812  48.124  1.00  0.00     0.217 HD
ENDBRANCH   3  27
TORSDOF 8
ENDMDL
MODEL 7
REMARK VINA RESULT:      -6.5      2.994      6.952
REMARK  8 active torsions:
REMARK  status: ('A' for Active; 'I' for Inactive)
REMARK    1  A    between atoms: C3_3  and  O1_4 
REMARK    2  A    between atoms: C12_14  and  C13_15 
REMARK    3  A    between atoms: C13_15  and  C14_16 
REMARK    4  A    between atoms: C14_16  and  N1_17 
REMARK    5  A    between atoms: N2_20  and  C17_21 
REMARK    6  A    between atoms: C17_21  and  C18_22 
REMARK    7  A    between atoms: C18_22  and  C19_23 
REMARK    8  A    between atoms: C19_23  and  C20_24 
ROOT
HETATM    1  C1  UNL     1      18.461   0.684  49.720  1.00  0.00     0.022 C 
HETATM    2  C2  UNL     1      19.362   1.097  50.579  1.00  0.00    -0.022 C 
HETATM    3  C3  UNL     1      20.761   1.436  50.360  1.00  0.00     0.098 C 
HETATM    4  C4  UNL     1      21.492   2.337  51.045  1.00  0.00     0.068 C 
HETATM    5  C5  UNL     1      20.865   3.075  52.126  1.00  0.00     0.029 C 
HETATM    6  C6  UNL     1      19.597   2.765  52.332  1.00  0.00    -0.013 C 
HETATM    7  C7  UNL     1      19.224   1.356  52.071  1.00  0.00     0.067 C 
HETATM    8  C8  UNL     1      19.786   0.296  52.889  1.00  0.00     0.182 C 
HETATM    9  O2  UNL     1      20.857   0.344  53.654  1.00  0.00    -0.377 OA
HETATM   10  C9  UNL     1      22.101   0.600  53.332  1.00  0.00     0.168 C 
HETATM   11  C10 UNL     1      23.076  -0.349  54.029  1.00  0.00     0.005 C 
HETATM   12  C11 UNL     1      24.249  -0.175  53.336  1.00  0.00    -0.017 C 
HETATM   13  C12 UNL     1      24.574   0.973  52.406  1.00  0.00     0.059 C 
HETATM   14  C15 UNL     1      23.396   1.365  51.573  1.00  0.00     0.018 C 
HETATM   15  C16 UNL     1      22.523   0.366  51.902  1.00  0.00     0.034 C 
HETATM   16  N2  UNL     1      22.851   2.337  50.620  1.00  0.00    -0.348 N 
ENDROOT
BRANCH  13  17
HETATM   17  C13 UNL     1      25.225   2.063  53.159  1.00  0.00     0.044 C 
BRANCH  17  18
HETATM   18  C14 UNL     1      26.725   1.801  53.225  1.00  0.00     0.267 C 
BRANCH  18  19
HETATM   19  N1  UNL     1      27.185   1.366  54.505  1.00  0.00     0.078 N 
HETATM   20  H17 UNL     1      27.808   0.530  54.367  1.00  0.00     0.312 HD
HETATM   21  H18 UNL     1      27.794   2.090  54.993  1.00  0.00     0.312 HD
ENDBRANCH  18  19
ENDBRANCH  17  18
ENDBRANCH  13  17
BRANCH  16  22
HETATM   22  C17 UNL     1      23.910   2.789  49.763  1.00  0.00     0.129 C 
BRANCH  22  23
HETATM   23  C18 UNL     1      24.291   4.219  49.901  1.00  0.00     0.020 C 
BRANCH  23  24
HETATM   24  C19 UNL     1      25.714   4.398  50.353  1.00  0.00     0.001 C 
BRANCH  24  25
HETATM   25  C20 UNL     1      26.581   3.678  49.327  1.00  0.00    -0.004 C 
HETATM   26  C21 UNL     1      27.492   4.733  48.711  1.00  0.00     0.005 C 
ENDBRANCH  24  25
ENDBRANCH  23  24
ENDBRANCH  22  23
ENDBRANCH  16  22
BRANCH   3  27
HETATM   27  O1  UNL     1      21.211   0.657  49.305  1.00  0.00    -0.358 OA
HETATM   28  H3  UNL     1      20.635  -0.127  48.989  1.00  0.00     0.217 HD
ENDBRANCH   3  27
TORSDOF 8
ENDMDL
MODEL 8
REMARK VINA RESULT:      -6.4      3.310      6.517
REMARK  8 active torsions:
REMARK  status: ('A' for Active; 'I' for Inactive)
REMARK    1  A    between atoms: C3_3  and  O1_4 
REMARK    2  A    between atoms: C12_14  and  C13_15 
REMARK    3  A    between atoms: C13_15  and  C14_16 
REMARK    4  A    between atoms: C14_16  and  N1_17 
REMARK    5  A    between atoms: N2_20  and  C17_21 
REMARK    6  A    between atoms: C17_21  and  C18_22 
REMARK    7  A    between atoms: C18_22  and  C19_23 
REMARK    8  A    between atoms: C19_23  and  C20_24 
ROOT
HETATM    1  C1  UNL     1      18.973  -0.126  51.817  1.00  0.00     0.022 C 
HETATM    2  C2  UNL     1      19.810   0.715  51.259  1.00  0.00    -0.022 C 
HETATM    3  C3  UNL     1      20.959   1.396  51.839  1.00  0.00     0.098 C 
HETATM    4  C4  UNL     1      22.081   1.779  51.198  1.00  0.00     0.068 C 
HETATM    5  C5  UNL     1      22.207   1.508  49.779  1.00  0.00     0.029 C 
HETATM    6  C6  UNL     1      21.163   0.895  49.247  1.00  0.00    -0.013 C 
HETATM    7  C7  UNL     1      19.846   1.237  49.832  1.00  0.00     0.067 C 
HETATM    8  C8  UNL     1      19.326   2.586  49.703  1.00  0.00     0.182 C 
HETATM    9  O2  UNL     1      19.990   3.687  49.417  1.00  0.00    -0.377 OA
HETATM   10  C9  UNL     1      20.983   4.252  50.059  1.00  0.00     0.168 C 
HETATM   11  C10 UNL     1      20.815   5.769  50.147  1.00  0.00     0.005 C 
HETATM   12  C11 UNL     1      21.719   6.141  51.111  1.00  0.00    -0.017 C 
HETATM   13  C12 UNL     1      22.867   5.302  51.628  1.00  0.00     0.059 C 
HETATM   14  C15 UNL     1      22.483   3.865  51.779  1.00  0.00     0.018 C 
HETATM   15  C16 UNL     1      21.141   3.945  51.528  1.00  0.00     0.034 C 
HETATM   16  N2  UNL     1      22.952   2.505  52.061  1.00  0.00    -0.348 N 
ENDROOT
BRANCH  13  17
HETATM   17  C13 UNL     1      24.082   5.566  50.833  1.00  0.00     0.044 C 
BRANCH  17  18
HETATM   18  C14 UNL     1      24.493   7.023  51.012  1.00  0.00     0.267 C 
BRANCH  18  19
HETATM   19  N1  UNL     1      25.889   7.261  50.834  1.00  0.00     0.078 N 
HETATM   20  H17 UNL     1      26.046   8.300  50.786  1.00  0.00     0.312 HD
HETATM   21  H18 UNL     1      26.473   6.929  51.660  1.00  0.00     0.312 HD
ENDBRANCH  18  19
ENDBRANCH  17  18
ENDBRANCH  13  17
BRANCH  16  22
HETATM   22  C17 UNL     1      24.011   2.571  53.027  1.00  0.00     0.129 C 
BRANCH  22  23
HETATM   23  C18 UNL     1      24.909   1.388  53.088  1.00  0.00     0.020 C 
BRANCH  23  24
HETATM   24  C19 UNL     1      24.186   0.133  53.489  1.00  0.00     0.001 C 
BRANCH  24  25
HETATM   25  C20 UNL     1      25.219  -0.752  54.178  1.00  0.00    -0.004 C 
HETATM   26  C21 UNL     1      26.331   0.171  54.659  1.00  0.00     0.005 C 
ENDBRANCH  24  25
ENDBRANCH  23  24
ENDBRANCH  22  23
ENDBRANCH  16  22
BRANCH   3  27
HETATM   27  O1  UNL     1      20.690   1.579  53.187  1.00  0.00    -0.358 OA
HETATM   28  H3  UNL     1      19.766   1.921  53.463  1.00  0.00     0.217 HD
ENDBRANCH   3  27
TORSDOF 8
ENDMDL
MODEL 9
REMARK VINA RESULT:      -6.2      3.638      6.545
REMARK  8 active torsions:
REMARK  status: ('A' for Active; 'I' for Inactive)
REMARK    1  A    between atoms: C3_3  and  O1_4 
REMARK    2  A    between atoms: C12_14  and  C13_15 
REMARK    3  A    between atoms: C13_15  and  C14_16 
REMARK    4  A    between atoms: C14_16  and  N1_17 
REMARK    5  A    between atoms: N2_20  and  C17_21 
REMARK    6  A    between atoms: C17_21  and  C18_22 
REMARK    7  A    between atoms: C18_22  and  C19_23 
REMARK    8  A    between atoms: C19_23  and  C20_24 
ROOT
HETATM    1  C1  UNL     1      21.771   0.660  51.024  1.00  0.00     0.022 C 
HETATM    2  C2  UNL     1      22.609   1.643  51.250  1.00  0.00    -0.022 C 
HETATM    3  C3  UNL     1      22.486   3.055  50.918  1.00  0.00     0.098 C 
HETATM    4  C4  UNL     1      23.018   4.094  51.592  1.00  0.00     0.068 C 
HETATM    5  C5  UNL     1      23.805   3.830  52.783  1.00  0.00     0.029 C 
HETATM    6  C6  UNL     1      23.924   2.548  53.083  1.00  0.00    -0.013 C 
HETATM    7  C7  UNL     1      23.966   1.616  51.934  1.00  0.00     0.067 C 
HETATM    8  C8  UNL     1      25.077   1.667  51.001  1.00  0.00     0.182 C 
HETATM    9  O2  UNL     1      25.933   2.650  50.814  1.00  0.00    -0.377 OA
HETATM   10  C9  UNL     1      25.713   3.888  50.445  1.00  0.00     0.168 C 
HETATM   11  C10 UNL     1      26.731   4.363  49.408  1.00  0.00     0.005 C 
HETATM   12  C11 UNL     1      26.165   5.505  48.896  1.00  0.00    -0.017 C 
HETATM   13  C12 UNL     1      25.033   6.294  49.516  1.00  0.00     0.059 C 
HETATM   14  C15 UNL     1      23.992   5.401  50.112  1.00  0.00     0.018 C 
HETATM   15  C16 UNL     1      24.443   4.183  49.684  1.00  0.00     0.034 C 
HETATM   16  N2  UNL     1      22.775   5.328  50.925  1.00  0.00    -0.348 N 
ENDROOT
BRANCH  13  17
HETATM   17  C13 UNL     1      25.575   7.339  50.405  1.00  0.00     0.044 C 
BRANCH  17  18
HETATM   18  C14 UNL     1      26.747   8.027  49.716  1.00  0.00     0.267 C 
BRANCH  18  19
HETATM   19  N1  UNL     1      27.543   8.834  50.585  1.00  0.00     0.078 N 
HETATM   20  H17 UNL     1      28.456   9.039  50.105  1.00  0.00     0.312 HD
HETATM   21  H18 UNL     1      27.108   9.786  50.777  1.00  0.00     0.312 HD
ENDBRANCH  18  19
ENDBRANCH  17  18
ENDBRANCH  13  17
BRANCH  16  22
HETATM   22  C17 UNL     1      21.969   6.487  50.658  1.00  0.00     0.129 C 
BRANCH  22  23
HETATM   23  C18 UNL     1      21.274   6.505  49.345  1.00  0.00     0.020 C 
BRANCH  23  24
HETATM   24  C19 UNL     1      21.145   7.891  48.777  1.00  0.00     0.001 C 
BRANCH  24  25
HETATM   25  C20 UNL     1      22.219   8.732  49.458  1.00  0.00    -0.004 C 
HETATM   26  C21 UNL     1      23.109   9.281  48.351  1.00  0.00     0.005 C 
ENDBRANCH  24  25
ENDBRANCH  23  24
ENDBRANCH  22  23
ENDBRANCH  16  22
BRANCH   3  27
HETATM   27  O1  UNL     1      21.712   3.142  49.771  1.00  0.00    -0.358 OA
HETATM   28  H3  UNL     1      22.175   3.104  48.859  1.00  0.00     0.217 HD
ENDBRANCH   3  27
TORSDOF 8
ENDMDL
