MODEL 1
REMARK VINA RESULT:      -7.8      0.000      0.000
REMARK  4 active torsions:
REMARK  status: ('A' for Active; 'I' for Inactive)
REMARK    1  A    between atoms: C4_6  and  C5_7 
REMARK    2  A    between atoms: C5_7  and  C6_8 
REMARK    3  A    between atoms: C8_10  and  C9_11 
REMARK    4  A    between atoms: C9_11  and  N3_12 
ROOT
HETATM    1  C6  UNL     1      22.963  -1.088  54.389  1.00  0.00     0.084 A 
HETATM    2  C7  UNL     1      24.080  -0.449  53.892  1.00  0.00     0.066 A 
HETATM    3  C8  UNL     1      25.103  -0.576  54.837  1.00  0.00     0.092 A 
HETATM    4  N4  UNL     1      24.523  -1.287  55.840  1.00  0.00    -0.131 NA
HETATM    5  O1  UNL     1      23.303  -1.571  55.569  1.00  0.00    -0.217 OA
ENDROOT
BRANCH   1   6
HETATM    6  C5  UNL     1      21.663  -1.157  53.640  1.00  0.00     0.094 C 
BRANCH   6   7
HETATM    7  C4  UNL     1      21.094   0.181  53.455  1.00  0.00    -0.014 C 
HETATM    8  C3  UNL     1      21.148   1.090  52.490  1.00  0.00    -0.036 C 
HETATM    9  C2  UNL     1      21.914   0.884  51.232  1.00  0.00     0.183 C 
HETATM   10  C15 UNL     1      20.401   2.359  52.709  1.00  0.00     0.308 C 
HETATM   11  N2  UNL     1      22.719   2.098  51.034  1.00  0.00    -0.263 N 
HETATM   12  N1  UNL     1      24.106   2.206  50.845  1.00  0.00    -0.171 NA
HETATM   13  C16 UNL     1      21.836   3.273  51.057  1.00  0.00     0.376 C 
HETATM   14  C1  UNL     1      24.495   3.317  51.557  1.00  0.00     0.120 C 
HETATM   15  P1  UNL     1      23.264   4.550  50.901  1.00  0.00     0.037 P 
HETATM   16  N5  UNL     1      21.252   3.455  52.366  1.00  0.00     0.116 N 
HETATM   17  H21 UNL     1      22.014   3.638  53.039  1.00  0.00     0.319 HD
ENDBRANCH   6   7
ENDBRANCH   1   6
BRANCH   3  18
HETATM   18  C9  UNL     1      26.510  -0.127  54.911  1.00  0.00     0.333 C 
BRANCH  18  19
HETATM   19  N3  UNL     1      27.046   0.084  53.588  1.00  0.00     0.094 N 
HETATM   20  C10 UNL     1      27.648  -1.098  53.029  1.00  0.00     0.273 C 
HETATM   21  C11 UNL     1      29.075  -1.294  53.462  1.00  0.00     0.030 C 
HETATM   22  C12 UNL     1      29.911  -0.056  53.425  1.00  0.00     0.003 C 
HETATM   23  C13 UNL     1      29.212   1.099  54.133  1.00  0.00     0.030 C 
HETATM   24  C14 UNL     1      27.875   1.249  53.491  1.00  0.00     0.273 C 
ENDBRANCH  18  19
ENDBRANCH   3  18
TORSDOF 4
ENDMDL
MODEL 2
REMARK VINA RESULT:      -7.6      2.125      2.993
REMARK  4 active torsions:
REMARK  status: ('A' for Active; 'I' for Inactive)
REMARK    1  A    between atoms: C4_6  and  C5_7 
REMARK    2  A    between atoms: C5_7  and  C6_8 
REMARK    3  A    between atoms: C8_10  and  C9_11 
REMARK    4  A    between atoms: C9_11  and  N3_12 
ROOT
HETATM    1  C6  UNL     1      21.423  -0.810  54.121  1.00  0.00     0.084 A 
HETATM    2  C7  UNL     1      22.690  -0.382  53.780  1.00  0.00     0.066 A 
HETATM    3  C8  UNL     1      23.590  -0.938  54.695  1.00  0.00     0.092 A 
HETATM    4  N4  UNL     1      22.795  -1.663  55.524  1.00  0.00    -0.131 NA
HETATM    5  O1  UNL     1      21.561  -1.580  55.183  1.00  0.00    -0.217 OA
ENDROOT
BRANCH   1   6
HETATM    6  C5  UNL     1      20.194  -0.410  53.355  1.00  0.00     0.094 C 
BRANCH   6   7
HETATM    7  C4  UNL     1      20.553   0.221  52.082  1.00  0.00    -0.014 C 
HETATM    8  C3  UNL     1      20.545   1.467  51.625  1.00  0.00    -0.036 C 
HETATM    9  C2  UNL     1      20.102   2.623  52.450  1.00  0.00     0.183 C 
HETATM   10  C15 UNL     1      21.003   1.681  50.226  1.00  0.00     0.308 C 
HETATM   11  N2  UNL     1      19.161   3.388  51.619  1.00  0.00    -0.263 N 
HETATM   12  N1  UNL     1      17.845   3.774  51.919  1.00  0.00    -0.171 NA
HETATM   13  C16 UNL     1      19.806   3.726  50.342  1.00  0.00     0.376 C 
HETATM   14  C1  UNL     1      17.134   3.619  50.752  1.00  0.00     0.120 C 
HETATM   15  P1  UNL     1      18.245   4.554  49.587  1.00  0.00     0.037 P 
HETATM   16  N5  UNL     1      20.067   2.536  49.565  1.00  0.00     0.116 N 
HETATM   17  H21 UNL     1      19.163   2.093  49.336  1.00  0.00     0.319 HD
ENDBRANCH   6   7
ENDBRANCH   1   6
BRANCH   3  18
HETATM   18  C9  UNL     1      25.056  -0.872  54.879  1.00  0.00     0.333 C 
BRANCH  18  19
HETATM   19  N3  UNL     1      25.661  -0.062  53.849  1.00  0.00     0.094 N 
HETATM   20  C10 UNL     1      26.119  -0.832  52.723  1.00  0.00     0.273 C 
HETATM   21  C11 UNL     1      27.492  -1.414  52.926  1.00  0.00     0.030 C 
HETATM   22  C12 UNL     1      28.486  -0.469  53.518  1.00  0.00     0.003 C 
HETATM   23  C13 UNL     1      27.923   0.212  54.760  1.00  0.00     0.030 C 
HETATM   24  C14 UNL     1      26.641   0.855  54.353  1.00  0.00     0.273 C 
ENDBRANCH  18  19
ENDBRANCH   3  18
TORSDOF 4
ENDMDL
MODEL 3
REMARK VINA RESULT:      -7.5      3.996      4.809
REMARK  4 active torsions:
REMARK  status: ('A' for Active; 'I' for Inactive)
REMARK    1  A    between atoms: C4_6  and  C5_7 
REMARK    2  A    between atoms: C5_7  and  C6_8 
REMARK    3  A    between atoms: C8_10  and  C9_11 
REMARK    4  A    between atoms: C9_11  and  N3_12 
ROOT
HETATM    1  C6  UNL     1      21.538  -0.446  54.171  1.00  0.00     0.084 A 
HETATM    2  C7  UNL     1      22.827  -0.142  53.783  1.00  0.00     0.066 A 
HETATM    3  C8  UNL     1      23.703  -0.822  54.637  1.00  0.00     0.092 A 
HETATM    4  N4  UNL     1      22.871  -1.488  55.481  1.00  0.00    -0.131 NA
HETATM    5  O1  UNL     1      21.640  -1.263  55.201  1.00  0.00    -0.217 OA
ENDROOT
BRANCH   1   6
HETATM    6  C5  UNL     1      20.327   0.108  53.477  1.00  0.00     0.094 C 
BRANCH   6   7
HETATM    7  C4  UNL     1      19.223  -0.855  53.500  1.00  0.00    -0.014 C 
HETATM    8  C3  UNL     1      18.155  -1.065  52.741  1.00  0.00    -0.036 C 
HETATM    9  C2  UNL     1      17.838  -0.234  51.550  1.00  0.00     0.183 C 
HETATM   10  C15 UNL     1      17.257  -2.188  53.128  1.00  0.00     0.308 C 
HETATM   11  N2  UNL     1      16.422   0.143  51.673  1.00  0.00    -0.263 N 
HETATM   12  N1  UNL     1      15.855   1.426  51.648  1.00  0.00    -0.171 NA
HETATM   13  C16 UNL     1      15.611  -1.072  51.837  1.00  0.00     0.376 C 
HETATM   14  C1  UNL     1      14.859   1.414  52.598  1.00  0.00     0.120 C 
HETATM   15  P1  UNL     1      13.954  -0.127  52.075  1.00  0.00     0.037 P 
HETATM   16  N5  UNL     1      15.905  -1.724  53.091  1.00  0.00     0.116 N 
HETATM   17  H21 UNL     1      15.647  -1.085  53.859  1.00  0.00     0.319 HD
ENDBRANCH   6   7
ENDBRANCH   1   6
BRANCH   3  18
HETATM   18  C9  UNL     1      25.174  -0.918  54.753  1.00  0.00     0.333 C 
BRANCH  18  19
HETATM   19  N3  UNL     1      25.816  -0.086  53.765  1.00  0.00     0.094 N 
HETATM   20  C10 UNL     1      26.344  -0.834  52.655  1.00  0.00     0.273 C 
HETATM   21  C11 UNL     1      27.713  -1.396  52.920  1.00  0.00     0.030 C 
HETATM   22  C12 UNL     1      28.661  -0.443  53.572  1.00  0.00     0.003 C 
HETATM   23  C13 UNL     1      28.024   0.213  54.792  1.00  0.00     0.030 C 
HETATM   24  C14 UNL     1      26.754   0.841  54.328  1.00  0.00     0.273 C 
ENDBRANCH  18  19
ENDBRANCH   3  18
TORSDOF 4
ENDMDL
MODEL 4
REMARK VINA RESULT:      -7.3      6.678      9.344
REMARK  4 active torsions:
REMARK  status: ('A' for Active; 'I' for Inactive)
REMARK    1  A    between atoms: C4_6  and  C5_7 
REMARK    2  A    between atoms: C5_7  and  C6_8 
REMARK    3  A    between atoms: C8_10  and  C9_11 
REMARK    4  A    between atoms: C9_11  and  N3_12 
ROOT
HETATM    1  C6  UNL     1      27.411   5.708  48.664  1.00  0.00     0.084 A 
HETATM    2  C7  UNL     1      27.242   4.365  48.933  1.00  0.00     0.066 A 
HETATM    3  C8  UNL     1      26.090   4.227  49.715  1.00  0.00     0.092 A 
HETATM    4  N4  UNL     1      25.649   5.504  49.860  1.00  0.00    -0.131 NA
HETATM    5  O1  UNL     1      26.413   6.337  49.255  1.00  0.00    -0.217 OA
ENDROOT
BRANCH   1   6
HETATM    6  C5  UNL     1      28.553   6.237  47.844  1.00  0.00     0.094 C 
BRANCH   6   7
HETATM    7  C4  UNL     1      29.801   6.222  48.612  1.00  0.00    -0.014 C 
HETATM    8  C3  UNL     1      31.088   6.169  48.296  1.00  0.00    -0.036 C 
HETATM    9  C2  UNL     1      31.570   6.103  46.890  1.00  0.00     0.183 C 
HETATM   10  C15 UNL     1      32.065   6.176  49.419  1.00  0.00     0.308 C 
HETATM   11  N2  UNL     1      32.553   5.011  46.839  1.00  0.00    -0.263 N 
HETATM   12  N1  UNL     1      32.573   3.893  45.990  1.00  0.00    -0.171 NA
HETATM   13  C16 UNL     1      33.587   5.243  47.857  1.00  0.00     0.376 C 
HETATM   14  C1  UNL     1      32.989   2.838  46.770  1.00  0.00     0.120 C 
HETATM   15  P1  UNL     1      34.516   3.594  47.522  1.00  0.00     0.037 P 
HETATM   16  N5  UNL     1      33.033   5.149  49.188  1.00  0.00     0.116 N 
HETATM   17  H21 UNL     1      32.686   4.187  49.328  1.00  0.00     0.319 HD
ENDBRANCH   6   7
ENDBRANCH   1   6
BRANCH   3  18
HETATM   18  C9  UNL     1      25.379   3.081  50.322  1.00  0.00     0.333 C 
BRANCH  18  19
HETATM   19  N3  UNL     1      25.771   2.913  51.701  1.00  0.00     0.094 N 
HETATM   20  C10 UNL     1      26.913   2.052  51.861  1.00  0.00     0.273 C 
HETATM   21  C11 UNL     1      26.551   0.592  51.895  1.00  0.00     0.030 C 
HETATM   22  C12 UNL     1      25.364   0.266  52.742  1.00  0.00     0.003 C 
HETATM   23  C13 UNL     1      24.188   1.178  52.411  1.00  0.00     0.030 C 
HETATM   24  C14 UNL     1      24.675   2.579  52.563  1.00  0.00     0.273 C 
ENDBRANCH  18  19
ENDBRANCH   3  18
TORSDOF 4
ENDMDL
MODEL 5
REMARK VINA RESULT:      -7.2      5.363      7.249
REMARK  4 active torsions:
REMARK  status: ('A' for Active; 'I' for Inactive)
REMARK    1  A    between atoms: C4_6  and  C5_7 
REMARK    2  A    between atoms: C5_7  and  C6_8 
REMARK    3  A    between atoms: C8_10  and  C9_11 
REMARK    4  A    between atoms: C9_11  and  N3_12 
ROOT
HETATM    1  C6  UNL     1      25.431   4.693  49.942  1.00  0.00     0.084 A 
HETATM    2  C7  UNL     1      26.416   3.727  49.914  1.00  0.00     0.066 A 
HETATM    3  C8  UNL     1      26.154   2.819  50.946  1.00  0.00     0.092 A 
HETATM    4  N4  UNL     1      25.026   3.309  51.523  1.00  0.00    -0.131 NA
HETATM    5  O1  UNL     1      24.626   4.378  50.939  1.00  0.00    -0.217 OA
ENDROOT
BRANCH   1   6
HETATM    6  C5  UNL     1      25.388   5.839  48.972  1.00  0.00     0.094 C 
BRANCH   6   7
HETATM    7  C4  UNL     1      25.938   7.056  49.574  1.00  0.00    -0.014 C 
HETATM    8  C3  UNL     1      26.818   7.971  49.187  1.00  0.00    -0.036 C 
HETATM    9  C2  UNL     1      27.510   7.916  47.871  1.00  0.00     0.183 C 
HETATM   10  C15 UNL     1      27.103   9.084  50.134  1.00  0.00     0.308 C 
HETATM   11  N2  UNL     1      28.939   8.122  48.146  1.00  0.00    -0.263 N 
HETATM   12  N1  UNL     1      30.024   7.310  47.780  1.00  0.00    -0.171 NA
HETATM   13  C16 UNL     1      29.112   9.369  48.905  1.00  0.00     0.376 C 
HETATM   14  C1  UNL     1      30.880   7.321  48.857  1.00  0.00     0.120 C 
HETATM   15  P1  UNL     1      31.009   9.158  49.130  1.00  0.00     0.037 P 
HETATM   16  N5  UNL     1      28.519   9.260  50.218  1.00  0.00     0.116 N 
HETATM   17  H21 UNL     1      29.017   8.520  50.739  1.00  0.00     0.319 HD
ENDBRANCH   6   7
ENDBRANCH   1   6
BRANCH   3  18
HETATM   18  C9  UNL     1      26.814   1.591  51.440  1.00  0.00     0.333 C 
BRANCH  18  19
HETATM   19  N3  UNL     1      26.776   1.538  52.881  1.00  0.00     0.094 N 
HETATM   20  C10 UNL     1      27.939   2.120  53.497  1.00  0.00     0.273 C 
HETATM   21  C11 UNL     1      29.095   1.161  53.597  1.00  0.00     0.030 C 
HETATM   22  C12 UNL     1      28.727  -0.210  54.063  1.00  0.00     0.003 C 
HETATM   23  C13 UNL     1      27.546  -0.758  53.270  1.00  0.00     0.030 C 
HETATM   24  C14 UNL     1      26.446   0.240  53.392  1.00  0.00     0.273 C 
ENDBRANCH  18  19
ENDBRANCH   3  18
TORSDOF 4
ENDMDL
MODEL 6
REMARK VINA RESULT:      -7.2      5.021      7.610
REMARK  4 active torsions:
REMARK  status: ('A' for Active; 'I' for Inactive)
REMARK    1  A    between atoms: C4_6  and  C5_7 
REMARK    2  A    between atoms: C5_7  and  C6_8 
REMARK    3  A    between atoms: C8_10  and  C9_11 
REMARK    4  A    between atoms: C9_11  and  N3_12 
ROOT
HETATM    1  C6  UNL     1      25.574   3.511  50.436  1.00  0.00     0.084 A 
HETATM    2  C7  UNL     1      25.454   2.380  51.218  1.00  0.00     0.066 A 
HETATM    3  C8  UNL     1      24.338   2.548  52.045  1.00  0.00     0.092 A 
HETATM    4  N4  UNL     1      23.866   3.774  51.698  1.00  0.00    -0.131 NA
HETATM    5  O1  UNL     1      24.582   4.310  50.779  1.00  0.00    -0.217 OA
ENDROOT
BRANCH   1   6
HETATM    6  C5  UNL     1      26.667   3.686  49.421  1.00  0.00     0.094 C 
BRANCH   6   7
HETATM    7  C4  UNL     1      26.926   5.106  49.170  1.00  0.00    -0.014 C 
HETATM    8  C3  UNL     1      27.897   5.785  48.572  1.00  0.00    -0.036 C 
HETATM    9  C2  UNL     1      29.078   5.124  47.955  1.00  0.00     0.183 C 
HETATM   10  C15 UNL     1      27.767   7.267  48.535  1.00  0.00     0.308 C 
HETATM   11  N2  UNL     1      30.260   5.844  48.451  1.00  0.00    -0.263 N 
HETATM   12  N1  UNL     1      31.390   5.324  49.102  1.00  0.00    -0.171 NA
HETATM   13  C16 UNL     1      30.110   7.278  48.164  1.00  0.00     0.376 C 
HETATM   14  C1  UNL     1      31.711   6.237  50.081  1.00  0.00     0.120 C 
HETATM   15  P1  UNL     1      31.732   7.791  49.057  1.00  0.00     0.037 P 
HETATM   16  N5  UNL     1      29.017   7.844  48.920  1.00  0.00     0.116 N 
HETATM   17  H21 UNL     1      29.240   7.761  49.925  1.00  0.00     0.319 HD
ENDBRANCH   6   7
ENDBRANCH   1   6
BRANCH   3  18
HETATM   18  C9  UNL     1      23.684   1.725  53.085  1.00  0.00     0.333 C 
BRANCH  18  19
HETATM   19  N3  UNL     1      23.302   0.440  52.551  1.00  0.00     0.094 N 
HETATM   20  C10 UNL     1      21.929   0.395  52.120  1.00  0.00     0.273 C 
HETATM   21  C11 UNL     1      20.970   0.098  53.240  1.00  0.00     0.030 C 
HETATM   22  C12 UNL     1      21.403  -1.002  54.155  1.00  0.00     0.003 C 
HETATM   23  C13 UNL     1      22.838  -0.791  54.621  1.00  0.00     0.030 C 
HETATM   24  C14 UNL     1      23.674  -0.657  53.394  1.00  0.00     0.273 C 
ENDBRANCH  18  19
ENDBRANCH   3  18
TORSDOF 4
ENDMDL
MODEL 7
REMARK VINA RESULT:      -7.1      1.741      2.209
REMARK  4 active torsions:
REMARK  status: ('A' for Active; 'I' for Inactive)
REMARK    1  A    between atoms: C4_6  and  C5_7 
REMARK    2  A    between atoms: C5_7  and  C6_8 
REMARK    3  A    between atoms: C8_10  and  C9_11 
REMARK    4  A    between atoms: C9_11  and  N3_12 
ROOT
HETATM    1  C6  UNL     1      22.557   0.580  52.789  1.00  0.00     0.084 A 
HETATM    2  C7  UNL     1      23.747   1.210  53.093  1.00  0.00     0.066 A 
HETATM    3  C8  UNL     1      24.601   0.260  53.664  1.00  0.00     0.092 A 
HETATM    4  N4  UNL     1      23.858  -0.878  53.662  1.00  0.00    -0.131 NA
HETATM    5  O1  UNL     1      22.695  -0.679  53.160  1.00  0.00    -0.217 OA
ENDROOT
BRANCH   1   6
HETATM    6  C5  UNL     1      21.396   1.294  52.159  1.00  0.00     0.094 C 
BRANCH   6   7
HETATM    7  C4  UNL     1      21.547   2.747  52.277  1.00  0.00    -0.014 C 
HETATM    8  C3  UNL     1      21.925   3.714  51.452  1.00  0.00    -0.036 C 
HETATM    9  C2  UNL     1      22.326   3.458  50.043  1.00  0.00     0.183 C 
HETATM   10  C15 UNL     1      21.938   5.101  51.991  1.00  0.00     0.308 C 
HETATM   11  N2  UNL     1      23.596   4.172  49.838  1.00  0.00    -0.263 N 
HETATM   12  N1  UNL     1      24.818   3.663  49.372  1.00  0.00    -0.171 NA
HETATM   13  C16 UNL     1      23.421   5.585  50.205  1.00  0.00     0.376 C 
HETATM   14  C1  UNL     1      25.791   4.281  50.124  1.00  0.00     0.120 C 
HETATM   15  P1  UNL     1      25.262   6.054  49.915  1.00  0.00     0.037 P 
HETATM   16  N5  UNL     1      23.171   5.723  51.621  1.00  0.00     0.116 N 
HETATM   17  H21 UNL     1      23.999   5.381  52.133  1.00  0.00     0.319 HD
ENDBRANCH   6   7
ENDBRANCH   1   6
BRANCH   3  18
HETATM   18  C9  UNL     1      25.981   0.290  54.193  1.00  0.00     0.333 C 
BRANCH  18  19
HETATM   19  N3  UNL     1      26.932   0.474  53.123  1.00  0.00     0.094 N 
HETATM   20  C10 UNL     1      27.263  -0.753  52.448  1.00  0.00     0.273 C 
HETATM   21  C11 UNL     1      28.350  -1.531  53.138  1.00  0.00     0.030 C 
HETATM   22  C12 UNL     1      29.508  -0.706  53.599  1.00  0.00     0.003 C 
HETATM   23  C13 UNL     1      29.034   0.510  54.386  1.00  0.00     0.030 C 
HETATM   24  C14 UNL     1      28.077   1.244  53.509  1.00  0.00     0.273 C 
ENDBRANCH  18  19
ENDBRANCH   3  18
TORSDOF 4
ENDMDL
MODEL 8
REMARK VINA RESULT:      -7.0      3.015      7.457
REMARK  4 active torsions:
REMARK  status: ('A' for Active; 'I' for Inactive)
REMARK    1  A    between atoms: C4_6  and  C5_7 
REMARK    2  A    between atoms: C5_7  and  C6_8 
REMARK    3  A    between atoms: C8_10  and  C9_11 
REMARK    4  A    between atoms: C9_11  and  N3_12 
ROOT
HETATM    1  C6  UNL     1      21.505  -0.465  53.147  1.00  0.00     0.084 A 
HETATM    2  C7  UNL     1      21.057   0.248  52.054  1.00  0.00     0.066 A 
HETATM    3  C8  UNL     1      19.658   0.243  52.083  1.00  0.00     0.092 A 
HETATM    4  N4  UNL     1      19.366  -0.477  53.198  1.00  0.00    -0.131 NA
HETATM    5  O1  UNL     1      20.430  -0.873  53.794  1.00  0.00    -0.217 OA
ENDROOT
BRANCH   1   6
HETATM    6  C5  UNL     1      22.963  -0.671  53.442  1.00  0.00     0.094 C 
BRANCH   6   7
HETATM    7  C4  UNL     1      23.685   0.604  53.432  1.00  0.00    -0.014 C 
HETATM    8  C3  UNL     1      24.888   0.989  53.027  1.00  0.00    -0.036 C 
HETATM    9  C2  UNL     1      25.870   0.053  52.418  1.00  0.00     0.183 C 
HETATM   10  C15 UNL     1      25.238   2.425  53.205  1.00  0.00     0.308 C 
HETATM   11  N2  UNL     1      27.146   0.280  53.114  1.00  0.00    -0.263 N 
HETATM   12  N1  UNL     1      27.961  -0.656  53.769  1.00  0.00    -0.171 NA
HETATM   13  C16 UNL     1      27.492   1.706  53.036  1.00  0.00     0.376 C 
HETATM   14  C1  UNL     1      28.425  -0.021  54.899  1.00  0.00     0.120 C 
HETATM   15  P1  UNL     1      29.065   1.549  54.129  1.00  0.00     0.037 P 
HETATM   16  N5  UNL     1      26.546   2.509  53.777  1.00  0.00     0.116 N 
HETATM   17  H21 UNL     1      26.601   2.240  54.772  1.00  0.00     0.319 HD
ENDBRANCH   6   7
ENDBRANCH   1   6
BRANCH   3  18
HETATM   18  C9  UNL     1      18.600   0.812  51.221  1.00  0.00     0.333 C 
BRANCH  18  19
HETATM   19  N3  UNL     1      19.016   2.082  50.676  1.00  0.00     0.094 N 
HETATM   20  C10 UNL     1      18.788   3.182  51.575  1.00  0.00     0.273 C 
HETATM   21  C11 UNL     1      17.387   3.726  51.496  1.00  0.00     0.030 C 
HETATM   22  C12 UNL     1      16.865   3.899  50.107  1.00  0.00     0.003 C 
HETATM   23  C13 UNL     1      17.075   2.634  49.282  1.00  0.00     0.030 C 
HETATM   24  C14 UNL     1      18.530   2.315  49.348  1.00  0.00     0.273 C 
ENDBRANCH  18  19
ENDBRANCH   3  18
TORSDOF 4
ENDMDL
MODEL 9
REMARK VINA RESULT:      -7.0      6.141      8.494
REMARK  4 active torsions:
REMARK  status: ('A' for Active; 'I' for Inactive)
REMARK    1  A    between atoms: C4_6  and  C5_7 
REMARK    2  A    between atoms: C5_7  and  C6_8 
REMARK    3  A    between atoms: C8_10  and  C9_11 
REMARK    4  A    between atoms: C9_11  and  N3_12 
ROOT
HETATM    1  C6  UNL     1      26.410   5.619  48.873  1.00  0.00     0.084 A 
HETATM    2  C7  UNL     1      25.407   4.994  49.586  1.00  0.00     0.066 A 
HETATM    3  C8  UNL     1      25.848   3.704  49.903  1.00  0.00     0.092 A 
HETATM    4  N4  UNL     1      27.090   3.648  49.355  1.00  0.00    -0.131 NA
HETATM    5  O1  UNL     1      27.396   4.749  48.771  1.00  0.00    -0.217 OA
ENDROOT
BRANCH   1   6
HETATM    6  C5  UNL     1      26.288   7.026  48.361  1.00  0.00     0.094 C 
BRANCH   6   7
HETATM    7  C4  UNL     1      27.372   7.866  48.876  1.00  0.00    -0.014 C 
HETATM    8  C3  UNL     1      28.612   8.132  48.484  1.00  0.00    -0.036 C 
HETATM    9  C2  UNL     1      29.216   7.532  47.264  1.00  0.00     0.183 C 
HETATM   10  C15 UNL     1      29.403   9.073  49.323  1.00  0.00     0.308 C 
HETATM   11  N2  UNL     1      30.534   7.018  47.665  1.00  0.00    -0.263 N 
HETATM   12  N1  UNL     1      31.049   5.721  47.512  1.00  0.00    -0.171 NA
HETATM   13  C16 UNL     1      31.305   8.101  48.292  1.00  0.00     0.376 C 
HETATM   14  C1  UNL     1      31.750   5.458  48.667  1.00  0.00     0.120 C 
HETATM   15  P1  UNL     1      32.807   6.988  48.742  1.00  0.00     0.037 P 
HETATM   16  N5  UNL     1      30.701   8.512  49.538  1.00  0.00     0.116 N 
HETATM   17  H21 UNL     1      30.723   7.711  50.190  1.00  0.00     0.319 HD
ENDBRANCH   6   7
ENDBRANCH   1   6
BRANCH   3  18
HETATM   18  C9  UNL     1      25.265   2.558  50.634  1.00  0.00     0.333 C 
BRANCH  18  19
HETATM   19  N3  UNL     1      25.829   2.459  51.958  1.00  0.00     0.094 N 
HETATM   20  C10 UNL     1      26.831   1.432  52.068  1.00  0.00     0.273 C 
HETATM   21  C11 UNL     1      26.251   0.068  52.327  1.00  0.00     0.030 C 
HETATM   22  C12 UNL     1      25.170   0.039  53.358  1.00  0.00     0.003 C 
HETATM   23  C13 UNL     1      24.118   1.106  53.079  1.00  0.00     0.030 C 
HETATM   24  C14 UNL     1      24.839   2.408  52.993  1.00  0.00     0.273 C 
ENDBRANCH  18  19
ENDBRANCH   3  18
TORSDOF 4
ENDMDL
