MODEL 1
REMARK VINA RESULT:      -8.0      0.000      0.000
REMARK  2 active torsions:
REMARK  status: ('A' for Active; 'I' for Inactive)
REMARK    1  A    between atoms: N1_3  and  C3_4 
REMARK    2  A    between atoms: C7_8  and  C8_9 
ROOT
HETATM    1  C3  UNL     1      22.555  -0.033  52.939  1.00  0.00     0.134 A 
HETATM    2  C4  UNL     1      21.767  -0.599  53.889  1.00  0.00     0.051 A 
HETATM    3  C5  UNL     1      22.429  -1.145  54.996  1.00  0.00     0.006 A 
HETATM    4  C6  UNL     1      23.825  -1.071  55.048  1.00  0.00     0.032 A 
HETATM    5  C7  UNL     1      24.572  -0.494  54.069  1.00  0.00     0.070 A 
HETATM    6  N3  UNL     1      23.882   0.021  53.016  1.00  0.00    -0.230 NA
ENDROOT
BRANCH   1   7
HETATM    7  N1  UNL     1      21.871   0.513  51.828  1.00  0.00    -0.319 N 
HETATM    8  C2  UNL     1      20.512   0.326  51.462  1.00  0.00     0.101 C 
HETATM    9  C1  UNL     1      19.262   0.615  51.230  1.00  0.00     0.161 A 
HETATM   10  C17 UNL     1      18.459   1.848  51.316  1.00  0.00     0.090 A 
HETATM   11  N4  UNL     1      19.645   2.037  51.635  1.00  0.00    -0.377 N 
HETATM   12  C16 UNL     1      20.208   3.317  52.052  1.00  0.00     0.127 C 
HETATM   13  C15 UNL     1      21.692   3.066  52.333  1.00  0.00     0.048 C 
HETATM   14  C14 UNL     1      22.378   2.647  51.087  1.00  0.00    -0.007 C 
HETATM   15  C13 UNL     1      22.460   1.372  50.858  1.00  0.00     0.094 C 
ENDBRANCH   1   7
BRANCH   5  16
HETATM   16  C8  UNL     1      26.024  -0.389  54.068  1.00  0.00     0.010 A 
HETATM   17  C9  UNL     1      26.728  -1.114  53.129  1.00  0.00     0.017 A 
HETATM   18  C10 UNL     1      28.122  -1.059  53.074  1.00  0.00     0.020 A 
HETATM   19  C11 UNL     1      28.714  -0.232  54.023  1.00  0.00     0.116 A 
HETATM   20  N2  UNL     1      28.040   0.485  54.949  1.00  0.00    -0.272 NA
HETATM   21  C12 UNL     1      26.683   0.408  54.975  1.00  0.00     0.130 A 
ENDBRANCH   5  16
TORSDOF 2
ENDMDL
MODEL 2
REMARK VINA RESULT:      -8.0      1.151      2.246
REMARK  2 active torsions:
REMARK  status: ('A' for Active; 'I' for Inactive)
REMARK    1  A    between atoms: N1_3  and  C3_4 
REMARK    2  A    between atoms: C7_8  and  C8_9 
ROOT
HETATM    1  C3  UNL     1      22.038   0.622  53.366  1.00  0.00     0.134 A 
HETATM    2  C4  UNL     1      21.234  -0.140  54.153  1.00  0.00     0.051 A 
HETATM    3  C5  UNL     1      21.877  -1.088  54.957  1.00  0.00     0.006 A 
HETATM    4  C6  UNL     1      23.271  -1.185  54.900  1.00  0.00     0.032 A 
HETATM    5  C7  UNL     1      24.034  -0.399  54.095  1.00  0.00     0.070 A 
HETATM    6  N3  UNL     1      23.364   0.506  53.333  1.00  0.00    -0.230 NA
ENDROOT
BRANCH   1   7
HETATM    7  N1  UNL     1      21.374   1.575  52.559  1.00  0.00    -0.319 N 
HETATM    8  C2  UNL     1      21.819   2.874  52.200  1.00  0.00     0.101 C 
HETATM    9  C1  UNL     1      22.231   3.856  51.446  1.00  0.00     0.161 A 
HETATM   10  C17 UNL     1      22.495   4.004  50.005  1.00  0.00     0.090 A 
HETATM   11  N4  UNL     1      22.103   2.862  50.295  1.00  0.00    -0.377 N 
HETATM   12  C16 UNL     1      21.916   1.771  49.343  1.00  0.00     0.127 C 
HETATM   13  C15 UNL     1      21.415   0.572  50.152  1.00  0.00     0.048 C 
HETATM   14  C14 UNL     1      20.098   0.884  50.756  1.00  0.00    -0.007 C 
HETATM   15  C13 UNL     1      20.101   1.378  51.957  1.00  0.00     0.094 C 
ENDBRANCH   1   7
BRANCH   5  16
HETATM   16  C8  UNL     1      25.486  -0.455  53.993  1.00  0.00     0.010 A 
HETATM   17  C9  UNL     1      26.037  -0.968  52.838  1.00  0.00     0.017 A 
HETATM   18  C10 UNL     1      27.422  -1.051  52.675  1.00  0.00     0.020 A 
HETATM   19  C11 UNL     1      28.167  -0.581  53.752  1.00  0.00     0.116 A 
HETATM   20  N2  UNL     1      27.643  -0.075  54.891  1.00  0.00    -0.272 NA
HETATM   21  C12 UNL     1      26.291  -0.010  55.015  1.00  0.00     0.130 A 
ENDBRANCH   5  16
TORSDOF 2
ENDMDL
MODEL 3
REMARK VINA RESULT:      -7.9      2.164      3.253
REMARK  2 active torsions:
REMARK  status: ('A' for Active; 'I' for Inactive)
REMARK    1  A    between atoms: N1_3  and  C3_4 
REMARK    2  A    between atoms: C7_8  and  C8_9 
ROOT
HETATM    1  C3  UNL     1      23.192   1.577  51.952  1.00  0.00     0.134 A 
HETATM    2  C4  UNL     1      22.157   0.723  52.163  1.00  0.00     0.051 A 
HETATM    3  C5  UNL     1      22.455  -0.442  52.881  1.00  0.00     0.006 A 
HETATM    4  C6  UNL     1      23.766  -0.643  53.324  1.00  0.00     0.032 A 
HETATM    5  C7  UNL     1      24.770   0.243  53.088  1.00  0.00     0.070 A 
HETATM    6  N3  UNL     1      24.431   1.358  52.386  1.00  0.00    -0.230 NA
ENDROOT
BRANCH   1   7
HETATM    7  N1  UNL     1      22.876   2.749  51.226  1.00  0.00    -0.319 N 
HETATM    8  C2  UNL     1      22.731   4.070  51.723  1.00  0.00     0.101 C 
HETATM    9  C1  UNL     1      22.981   5.337  51.908  1.00  0.00     0.161 A 
HETATM   10  C17 UNL     1      24.009   6.265  51.405  1.00  0.00     0.090 A 
HETATM   11  N4  UNL     1      24.152   5.117  50.953  1.00  0.00    -0.377 N 
HETATM   12  C16 UNL     1      25.205   4.704  50.031  1.00  0.00     0.127 C 
HETATM   13  C15 UNL     1      24.974   3.217  49.749  1.00  0.00     0.048 C 
HETATM   14  C14 UNL     1      23.670   3.029  49.069  1.00  0.00    -0.007 C 
HETATM   15  C13 UNL     1      22.640   2.792  49.824  1.00  0.00     0.094 C 
ENDBRANCH   1   7
BRANCH   5  16
HETATM   16  C8  UNL     1      26.151   0.088  53.522  1.00  0.00     0.010 A 
HETATM   17  C9  UNL     1      26.960  -0.781  52.820  1.00  0.00     0.017 A 
HETATM   18  C10 UNL     1      28.294  -0.977  53.184  1.00  0.00     0.020 A 
HETATM   19  C11 UNL     1      28.716  -0.238  54.284  1.00  0.00     0.116 A 
HETATM   20  N2  UNL     1      27.936   0.618  54.983  1.00  0.00    -0.272 NA
HETATM   21  C12 UNL     1      26.643   0.784  54.601  1.00  0.00     0.130 A 
ENDBRANCH   5  16
TORSDOF 2
ENDMDL
MODEL 4
REMARK VINA RESULT:      -7.7      1.959      2.259
REMARK  2 active torsions:
REMARK  status: ('A' for Active; 'I' for Inactive)
REMARK    1  A    between atoms: N1_3  and  C3_4 
REMARK    2  A    between atoms: C7_8  and  C8_9 
ROOT
HETATM    1  C3  UNL     1      24.144   1.309  51.890  1.00  0.00     0.134 A 
HETATM    2  C4  UNL     1      23.124   0.674  52.524  1.00  0.00     0.051 A 
HETATM    3  C5  UNL     1      23.492  -0.282  53.480  1.00  0.00     0.006 A 
HETATM    4  C6  UNL     1      24.851  -0.511  53.713  1.00  0.00     0.032 A 
HETATM    5  C7  UNL     1      25.837   0.152  53.052  1.00  0.00     0.070 A 
HETATM    6  N3  UNL     1      25.430   1.069  52.134  1.00  0.00    -0.230 NA
ENDROOT
BRANCH   1   7
HETATM    7  N1  UNL     1      23.757   2.271  50.928  1.00  0.00    -0.319 N 
HETATM    8  C2  UNL     1      22.641   2.228  50.052  1.00  0.00     0.101 C 
HETATM    9  C1  UNL     1      21.496   2.556  49.520  1.00  0.00     0.161 A 
HETATM   10  C17 UNL     1      20.496   3.602  49.796  1.00  0.00     0.090 A 
HETATM   11  N4  UNL     1      21.465   3.662  50.571  1.00  0.00    -0.377 N 
HETATM   12  C16 UNL     1      21.625   4.642  51.641  1.00  0.00     0.127 C 
HETATM   13  C15 UNL     1      22.964   4.334  52.314  1.00  0.00     0.048 C 
HETATM   14  C14 UNL     1      24.072   4.526  51.348  1.00  0.00    -0.007 C 
HETATM   15  C13 UNL     1      24.453   3.485  50.672  1.00  0.00     0.094 C 
ENDBRANCH   1   7
BRANCH   5  16
HETATM   16  C8  UNL     1      27.266  -0.045  53.252  1.00  0.00     0.010 A 
HETATM   17  C9  UNL     1      27.785  -1.305  53.038  1.00  0.00     0.017 A 
HETATM   18  C10 UNL     1      29.147  -1.563  53.212  1.00  0.00     0.020 A 
HETATM   19  C11 UNL     1      29.905  -0.465  53.607  1.00  0.00     0.116 A 
HETATM   20  N2  UNL     1      29.412   0.776  53.821  1.00  0.00    -0.272 NA
HETATM   21  C12 UNL     1      28.082   0.991  53.642  1.00  0.00     0.130 A 
ENDBRANCH   5  16
TORSDOF 2
ENDMDL
MODEL 5
REMARK VINA RESULT:      -7.5      2.223      3.478
REMARK  2 active torsions:
REMARK  status: ('A' for Active; 'I' for Inactive)
REMARK    1  A    between atoms: N1_3  and  C3_4 
REMARK    2  A    between atoms: C7_8  and  C8_9 
ROOT
HETATM    1  C3  UNL     1      23.958   2.776  50.226  1.00  0.00     0.134 A 
HETATM    2  C4  UNL     1      24.509   3.714  49.412  1.00  0.00     0.051 A 
HETATM    3  C5  UNL     1      25.884   3.932  49.564  1.00  0.00     0.006 A 
HETATM    4  C6  UNL     1      26.582   3.187  50.519  1.00  0.00     0.032 A 
HETATM    5  C7  UNL     1      25.985   2.257  51.312  1.00  0.00     0.070 A 
HETATM    6  N3  UNL     1      24.649   2.082  51.127  1.00  0.00    -0.230 NA
ENDROOT
BRANCH   1   7
HETATM    7  N1  UNL     1      22.569   2.567  50.060  1.00  0.00    -0.319 N 
HETATM    8  C2  UNL     1      21.855   1.343  50.147  1.00  0.00     0.101 C 
HETATM    9  C1  UNL     1      21.021   0.448  50.599  1.00  0.00     0.161 A 
HETATM   10  C17 UNL     1      20.082   0.400  51.733  1.00  0.00     0.090 A 
HETATM   11  N4  UNL     1      20.691   1.481  51.674  1.00  0.00    -0.377 N 
HETATM   12  C16 UNL     1      20.519   2.593  52.604  1.00  0.00     0.127 C 
HETATM   13  C15 UNL     1      21.462   3.702  52.131  1.00  0.00     0.048 C 
HETATM   14  C14 UNL     1      21.059   4.166  50.782  1.00  0.00    -0.007 C 
HETATM   15  C13 UNL     1      21.627   3.591  49.766  1.00  0.00     0.094 C 
ENDBRANCH   1   7
BRANCH   5  16
HETATM   16  C8  UNL     1      26.659   1.454  52.323  1.00  0.00     0.010 A 
HETATM   17  C9  UNL     1      26.726   0.090  52.131  1.00  0.00     0.017 A 
HETATM   18  C10 UNL     1      27.357  -0.739  53.061  1.00  0.00     0.020 A 
HETATM   19  C11 UNL     1      27.895  -0.080  54.162  1.00  0.00     0.116 A 
HETATM   20  N2  UNL     1      27.838   1.255  54.365  1.00  0.00    -0.272 NA
HETATM   21  C12 UNL     1      27.216   2.032  53.439  1.00  0.00     0.130 A 
ENDBRANCH   5  16
TORSDOF 2
ENDMDL
MODEL 6
REMARK VINA RESULT:      -7.5      2.022      3.343
REMARK  2 active torsions:
REMARK  status: ('A' for Active; 'I' for Inactive)
REMARK    1  A    between atoms: N1_3  and  C3_4 
REMARK    2  A    between atoms: C7_8  and  C8_9 
ROOT
HETATM    1  C3  UNL     1      23.930   2.446  51.569  1.00  0.00     0.134 A 
HETATM    2  C4  UNL     1      24.092   3.110  50.395  1.00  0.00     0.051 A 
HETATM    3  C5  UNL     1      25.411   3.262  49.949  1.00  0.00     0.006 A 
HETATM    4  C6  UNL     1      26.448   2.730  50.723  1.00  0.00     0.032 A 
HETATM    5  C7  UNL     1      26.235   2.072  51.893  1.00  0.00     0.070 A 
HETATM    6  N3  UNL     1      24.938   1.951  52.284  1.00  0.00    -0.230 NA
ENDROOT
BRANCH   1   7
HETATM    7  N1  UNL     1      22.592   2.301  52.006  1.00  0.00    -0.319 N 
HETATM    8  C2  UNL     1      21.567   3.282  52.014  1.00  0.00     0.101 C 
HETATM    9  C1  UNL     1      20.450   3.880  51.703  1.00  0.00     0.161 A 
HETATM   10  C17 UNL     1      19.340   3.571  50.785  1.00  0.00     0.090 A 
HETATM   11  N4  UNL     1      20.223   2.697  50.765  1.00  0.00    -0.377 N 
HETATM   12  C16 UNL     1      20.194   1.494  49.939  1.00  0.00     0.127 C 
HETATM   13  C15 UNL     1      21.476   0.720  50.257  1.00  0.00     0.048 C 
HETATM   14  C14 UNL     1      21.473   0.301  51.679  1.00  0.00    -0.007 C 
HETATM   15  C13 UNL     1      22.039   1.100  52.531  1.00  0.00     0.094 C 
ENDBRANCH   1   7
BRANCH   5  16
HETATM   16  C8  UNL     1      27.273   1.500  52.739  1.00  0.00     0.010 A 
HETATM   17  C9  UNL     1      27.431   0.130  52.738  1.00  0.00     0.017 A 
HETATM   18  C10 UNL     1      28.407  -0.484  53.526  1.00  0.00     0.020 A 
HETATM   19  C11 UNL     1      29.179   0.389  54.287  1.00  0.00     0.116 A 
HETATM   20  N2  UNL     1      29.037   1.733  54.300  1.00  0.00    -0.272 NA
HETATM   21  C12 UNL     1      28.077   2.296  53.520  1.00  0.00     0.130 A 
ENDBRANCH   5  16
TORSDOF 2
ENDMDL
MODEL 7
REMARK VINA RESULT:      -7.4      4.109      6.400
REMARK  2 active torsions:
REMARK  status: ('A' for Active; 'I' for Inactive)
REMARK    1  A    between atoms: N1_3  and  C3_4 
REMARK    2  A    between atoms: C7_8  and  C8_9 
ROOT
HETATM    1  C3  UNL     1      23.981   2.982  51.208  1.00  0.00     0.134 A 
HETATM    2  C4  UNL     1      23.137   2.422  50.303  1.00  0.00     0.051 A 
HETATM    3  C5  UNL     1      23.149   2.981  49.019  1.00  0.00     0.006 A 
HETATM    4  C6  UNL     1      24.009   4.053  48.760  1.00  0.00     0.032 A 
HETATM    5  C7  UNL     1      24.837   4.580  49.701  1.00  0.00     0.070 A 
HETATM    6  N3  UNL     1      24.789   4.003  50.932  1.00  0.00    -0.230 NA
ENDROOT
BRANCH   1   7
HETATM    7  N1  UNL     1      23.958   2.406  52.500  1.00  0.00    -0.319 N 
HETATM    8  C2  UNL     1      23.005   1.498  53.032  1.00  0.00     0.101 C 
HETATM    9  C1  UNL     1      22.515   0.389  53.513  1.00  0.00     0.161 A 
HETATM   10  C17 UNL     1      23.077  -0.942  53.803  1.00  0.00     0.090 A 
HETATM   11  N4  UNL     1      23.928  -0.163  53.343  1.00  0.00    -0.377 N 
HETATM   12  C16 UNL     1      25.329  -0.497  53.104  1.00  0.00     0.127 C 
HETATM   13  C15 UNL     1      25.987   0.768  52.547  1.00  0.00     0.048 C 
HETATM   14  C14 UNL     1      25.939   1.850  53.560  1.00  0.00    -0.007 C 
HETATM   15  C13 UNL     1      24.923   2.656  53.514  1.00  0.00     0.094 C 
ENDBRANCH   1   7
BRANCH   5  16
HETATM   16  C8  UNL     1      25.752   5.693  49.490  1.00  0.00     0.010 A 
HETATM   17  C9  UNL     1      26.827   5.502  48.648  1.00  0.00     0.017 A 
HETATM   18  C10 UNL     1      27.742   6.527  48.403  1.00  0.00     0.020 A 
HETATM   19  C11 UNL     1      27.475   7.722  49.064  1.00  0.00     0.116 A 
HETATM   20  N2  UNL     1      26.425   7.927  49.892  1.00  0.00    -0.272 NA
HETATM   21  C12 UNL     1      25.555   6.906  50.109  1.00  0.00     0.130 A 
ENDBRANCH   5  16
TORSDOF 2
ENDMDL
MODEL 8
REMARK VINA RESULT:      -7.2      1.471      1.826
REMARK  2 active torsions:
REMARK  status: ('A' for Active; 'I' for Inactive)
REMARK    1  A    between atoms: N1_3  and  C3_4 
REMARK    2  A    between atoms: C7_8  and  C8_9 
ROOT
HETATM    1  C3  UNL     1      21.115   0.054  52.494  1.00  0.00     0.134 A 
HETATM    2  C4  UNL     1      20.482  -0.361  53.623  1.00  0.00     0.051 A 
HETATM    3  C5  UNL     1      21.307  -0.728  54.693  1.00  0.00     0.006 A 
HETATM    4  C6  UNL     1      22.694  -0.644  54.534  1.00  0.00     0.032 A 
HETATM    5  C7  UNL     1      23.281  -0.222  53.383  1.00  0.00     0.070 A 
HETATM    6  N3  UNL     1      22.438   0.122  52.372  1.00  0.00    -0.230 NA
ENDROOT
BRANCH   1   7
HETATM    7  N1  UNL     1      20.269   0.421  51.422  1.00  0.00    -0.319 N 
HETATM    8  C2  UNL     1      18.885   0.144  51.270  1.00  0.00     0.101 C 
HETATM    9  C1  UNL     1      17.603   0.361  51.171  1.00  0.00     0.161 A 
HETATM   10  C17 UNL     1      16.760   1.569  51.199  1.00  0.00     0.090 A 
HETATM   11  N4  UNL     1      17.966   1.835  51.329  1.00  0.00    -0.377 N 
HETATM   12  C16 UNL     1      18.516   3.177  51.493  1.00  0.00     0.127 C 
HETATM   13  C15 UNL     1      20.034   3.013  51.604  1.00  0.00     0.048 C 
HETATM   14  C14 UNL     1      20.573   2.447  50.344  1.00  0.00    -0.007 C 
HETATM   15  C13 UNL     1      20.686   1.155  50.278  1.00  0.00     0.094 C 
ENDBRANCH   1   7
BRANCH   5  16
HETATM   16  C8  UNL     1      24.716  -0.116  53.159  1.00  0.00     0.010 A 
HETATM   17  C9  UNL     1      25.164   0.811  52.241  1.00  0.00     0.017 A 
HETATM   18  C10 UNL     1      26.527   0.964  51.978  1.00  0.00     0.020 A 
HETATM   19  C11 UNL     1      27.363   0.123  52.707  1.00  0.00     0.116 A 
HETATM   20  N2  UNL     1      26.940  -0.790  53.610  1.00  0.00    -0.272 NA
HETATM   21  C12 UNL     1      25.606  -0.912  53.841  1.00  0.00     0.130 A 
ENDBRANCH   5  16
TORSDOF 2
ENDMDL
MODEL 9
REMARK VINA RESULT:      -7.2      2.708      4.717
REMARK  2 active torsions:
REMARK  status: ('A' for Active; 'I' for Inactive)
REMARK    1  A    between atoms: N1_3  and  C3_4 
REMARK    2  A    between atoms: C7_8  and  C8_9 
ROOT
HETATM    1  C3  UNL     1      24.907   2.511  50.966  1.00  0.00     0.134 A 
HETATM    2  C4  UNL     1      26.241   2.279  51.071  1.00  0.00     0.051 A 
HETATM    3  C5  UNL     1      26.620   1.229  51.917  1.00  0.00     0.006 A 
HETATM    4  C6  UNL     1      25.623   0.506  52.580  1.00  0.00     0.032 A 
HETATM    5  C7  UNL     1      24.298   0.777  52.442  1.00  0.00     0.070 A 
HETATM    6  N3  UNL     1      23.981   1.805  51.611  1.00  0.00    -0.230 NA
ENDROOT
BRANCH   1   7
HETATM    7  N1  UNL     1      24.540   3.574  50.108  1.00  0.00    -0.319 N 
HETATM    8  C2  UNL     1      23.629   3.542  49.020  1.00  0.00     0.101 C 
HETATM    9  C1  UNL     1      22.563   3.801  48.316  1.00  0.00     0.161 A 
HETATM   10  C17 UNL     1      21.361   4.625  48.536  1.00  0.00     0.090 A 
HETATM   11  N4  UNL     1      22.146   4.673  49.498  1.00  0.00    -0.377 N 
HETATM   12  C16 UNL     1      21.931   5.444  50.718  1.00  0.00     0.127 C 
HETATM   13  C15 UNL     1      23.157   5.204  51.603  1.00  0.00     0.048 C 
HETATM   14  C14 UNL     1      24.372   5.730  50.936  1.00  0.00    -0.007 C 
HETATM   15  C13 UNL     1      25.048   4.900  50.201  1.00  0.00     0.094 C 
ENDBRANCH   1   7
BRANCH   5  16
HETATM   16  C8  UNL     1      23.218   0.060  53.106  1.00  0.00     0.010 A 
HETATM   17  C9  UNL     1      23.518  -0.662  54.242  1.00  0.00     0.017 A 
HETATM   18  C10 UNL     1      22.529  -1.372  54.927  1.00  0.00     0.020 A 
HETATM   19  C11 UNL     1      21.255  -1.284  54.374  1.00  0.00     0.116 A 
HETATM   20  N2  UNL     1      20.944  -0.581  53.262  1.00  0.00    -0.272 NA
HETATM   21  C12 UNL     1      21.931   0.098  52.620  1.00  0.00     0.130 A 
ENDBRANCH   5  16
TORSDOF 2
ENDMDL
