MODEL 1
REMARK VINA RESULT:      -8.4      0.000      0.000
REMARK  5 active torsions:
REMARK  status: ('A' for Active; 'I' for Inactive)
REMARK    1  A    between atoms: C3_3  and  C4_4 
REMARK    2  A    between atoms: N1_6  and  S1_7 
REMARK    3  A    between atoms: C7_10  and  C16_24 
REMARK    4  A    between atoms: C9_14  and  N4_15 
REMARK    5  A    between atoms: N4_15  and  C10_16 
ROOT
HETATM    1  C1  UNL     1      17.901  -0.278  52.391  1.00  0.00     0.112 C 
HETATM    2  C2  UNL     1      19.183  -0.548  52.972  1.00  0.00    -0.107 C 
HETATM    3  C3  UNL     1      20.208  -0.756  53.415  1.00  0.00    -0.050 C 
ENDROOT
BRANCH   3   4
HETATM    4  C4  UNL     1      21.542  -1.011  54.016  1.00  0.00     0.227 A 
HETATM    5  O1  UNL     1      22.199  -0.126  53.222  1.00  0.00    -0.198 OA
HETATM    6  N1  UNL     1      22.293  -1.846  55.112  1.00  0.00    -0.230 NA
HETATM    7  H4  UNL     1      21.400  -1.880  54.920  1.00  0.00     0.211 HD
BRANCH   6   8
HETATM    8  S1  UNL     1      24.476  -0.448  54.219  1.00  0.00    -0.136 SA
HETATM    9  C5  UNL     1      25.294   0.100  53.894  1.00  0.00     0.135 A 
HETATM   10  C6  UNL     1      26.304   0.780  53.517  1.00  0.00     0.039 A 
HETATM   11  C7  UNL     1      26.666   0.267  54.764  1.00  0.00     0.145 A 
HETATM   12  N5  UNL     1      24.404  -0.496  54.248  1.00  0.00    -0.227 NA
HETATM   13  C9  UNL     1      25.937   1.223  52.393  1.00  0.00     0.137 A 
HETATM   14  N3  UNL     1      27.178   1.853  52.366  1.00  0.00    -0.224 NA
HETATM   15  C8  UNL     1      28.036   1.689  53.426  1.00  0.00     0.230 A 
HETATM   16  N2  UNL     1      27.898   0.976  54.582  1.00  0.00    -0.261 NA
HETATM   17  C16 UNL     1      25.876  -0.617  55.737  1.00  0.00     0.169 A 
HETATM   18  H5  UNL     1      23.421  -1.191  54.629  1.00  0.00     0.106 HD
BRANCH  13  19
HETATM   19  N4  UNL     1      24.964   1.350  51.499  1.00  0.00    -0.341 N 
HETATM   20  H7  UNL     1      24.233   1.272  50.814  1.00  0.00     0.167 HD
BRANCH  19  21
HETATM   21  C10 UNL     1      24.634   2.764  51.339  1.00  0.00     0.035 A 
HETATM   22  C11 UNL     1      23.875   3.307  52.404  1.00  0.00     0.032 A 
HETATM   23  C12 UNL     1      23.422   4.625  52.486  1.00  0.00     0.046 A 
HETATM   24  C13 UNL     1      23.758   5.458  51.429  1.00  0.00     0.138 A 
HETATM   25  F1  UNL     1      23.391   6.762  51.382  1.00  0.00    -0.204 F 
HETATM   26  C14 UNL     1      24.485   5.048  50.351  1.00  0.00     0.074 A 
HETATM   27 CL1  UNL     1      24.987   5.943  48.961  1.00  0.00    -0.081 Cl
HETATM   28  C15 UNL     1      24.879   3.742  50.360  1.00  0.00     0.056 A 
ENDBRANCH  19  21
ENDBRANCH  13  19
ENDBRANCH   6   8
ENDBRANCH   3   4
TORSDOF 5
ENDMDL
MODEL 2
REMARK VINA RESULT:      -8.1      2.313      2.707
REMARK  5 active torsions:
REMARK  status: ('A' for Active; 'I' for Inactive)
REMARK    1  A    between atoms: C3_3  and  C4_4 
REMARK    2  A    between atoms: N1_6  and  S1_7 
REMARK    3  A    between atoms: C7_10  and  C16_24 
REMARK    4  A    between atoms: C9_14  and  N4_15 
REMARK    5  A    between atoms: N4_15  and  C10_16 
ROOT
HETATM    1  C1  UNL     1      16.725  -0.750  52.512  1.00  0.00     0.112 C 
HETATM    2  C2  UNL     1      18.096  -0.805  52.921  1.00  0.00    -0.107 C 
HETATM    3  C3  UNL     1      19.190  -0.839  53.230  1.00  0.00    -0.050 C 
ENDROOT
BRANCH   3   4
HETATM    4  C4  UNL     1      20.612  -0.871  53.657  1.00  0.00     0.227 A 
HETATM    5  O1  UNL     1      21.042  -0.012  52.696  1.00  0.00    -0.198 OA
HETATM    6  N1  UNL     1      21.598  -1.485  54.711  1.00  0.00    -0.230 NA
HETATM    7  H4  UNL     1      20.700  -1.643  54.652  1.00  0.00     0.211 HD
BRANCH   6   8
HETATM    8  S1  UNL     1      23.450   0.042  53.386  1.00  0.00    -0.136 SA
HETATM    9  C5  UNL     1      24.156   0.632  52.906  1.00  0.00     0.135 A 
HETATM   10  C6  UNL     1      25.038   1.351  52.334  1.00  0.00     0.039 A 
HETATM   11  C7  UNL     1      25.757   0.313  52.927  1.00  0.00     0.145 A 
HETATM   12  N5  UNL     1      23.389  -0.010  53.429  1.00  0.00    -0.227 NA
HETATM   13  C9  UNL     1      24.350   2.274  51.813  1.00  0.00     0.137 A 
HETATM   14  N3  UNL     1      25.570   2.779  51.373  1.00  0.00    -0.224 NA
HETATM   15  C8  UNL     1      26.726   2.107  51.689  1.00  0.00     0.230 A 
HETATM   16  N2  UNL     1      26.923   0.958  52.401  1.00  0.00    -0.261 NA
HETATM   17  C16 UNL     1      25.270  -0.870  53.774  1.00  0.00     0.169 A 
HETATM   18  H5  UNL     1      22.527  -0.746  53.986  1.00  0.00     0.106 HD
BRANCH  13  19
HETATM   19  N4  UNL     1      23.159   2.844  51.673  1.00  0.00    -0.341 N 
HETATM   20  H7  UNL     1      22.253   3.272  51.741  1.00  0.00     0.167 HD
BRANCH  19  21
HETATM   21  C10 UNL     1      22.883   3.047  50.253  1.00  0.00     0.035 A 
HETATM   22  C11 UNL     1      22.478   1.877  49.567  1.00  0.00     0.032 A 
HETATM   23  C12 UNL     1      22.168   1.801  48.208  1.00  0.00     0.046 A 
HETATM   24  C13 UNL     1      22.269   2.982  47.487  1.00  0.00     0.138 A 
HETATM   25  F1  UNL     1      21.992   3.055  46.162  1.00  0.00    -0.204 F 
HETATM   26  C14 UNL     1      22.649   4.169  48.039  1.00  0.00     0.074 A 
HETATM   27 CL1  UNL     1      22.826   5.719  47.296  1.00  0.00    -0.081 Cl
HETATM   28  C15 UNL     1      22.933   4.142  49.373  1.00  0.00     0.056 A 
ENDBRANCH  19  21
ENDBRANCH  13  19
ENDBRANCH   6   8
ENDBRANCH   3   4
TORSDOF 5
ENDMDL
MODEL 3
REMARK VINA RESULT:      -8.1      3.061      4.067
REMARK  5 active torsions:
REMARK  status: ('A' for Active; 'I' for Inactive)
REMARK    1  A    between atoms: C3_3  and  C4_4 
REMARK    2  A    between atoms: N1_6  and  S1_7 
REMARK    3  A    between atoms: C7_10  and  C16_24 
REMARK    4  A    between atoms: C9_14  and  N4_15 
REMARK    5  A    between atoms: N4_15  and  C10_16 
ROOT
HETATM    1  C1  UNL     1      14.885  -0.628  49.551  1.00  0.00     0.112 C 
HETATM    2  C2  UNL     1      15.851  -0.732  50.604  1.00  0.00    -0.107 C 
HETATM    3  C3  UNL     1      16.631  -0.806  51.427  1.00  0.00    -0.050 C 
ENDROOT
BRANCH   3   4
HETATM    4  C4  UNL     1      17.634  -0.888  52.519  1.00  0.00     0.227 A 
HETATM    5  O1  UNL     1      18.653  -0.376  51.782  1.00  0.00    -0.198 OA
HETATM    6  N1  UNL     1      17.834  -1.308  54.018  1.00  0.00    -0.230 NA
HETATM    7  H4  UNL     1      17.060  -1.369  53.535  1.00  0.00     0.211 HD
BRANCH   6   8
HETATM    8  S1  UNL     1      20.392  -0.421  53.586  1.00  0.00    -0.136 SA
HETATM    9  C5  UNL     1      21.360  -0.075  53.445  1.00  0.00     0.135 A 
HETATM   10  C6  UNL     1      22.554   0.341  53.293  1.00  0.00     0.039 A 
HETATM   11  C7  UNL     1      22.683  -0.860  53.993  1.00  0.00     0.145 A 
HETATM   12  N5  UNL     1      20.307  -0.452  53.599  1.00  0.00    -0.227 NA
HETATM   13  C9  UNL     1      22.395   1.422  52.659  1.00  0.00     0.137 A 
HETATM   14  N3  UNL     1      23.780   1.532  52.728  1.00  0.00    -0.224 NA
HETATM   15  C8  UNL     1      24.501   0.548  53.359  1.00  0.00     0.230 A 
HETATM   16  N2  UNL     1      24.092  -0.600  53.976  1.00  0.00    -0.261 NA
HETATM   17  C16 UNL     1      21.607  -1.833  54.492  1.00  0.00     0.169 A 
HETATM   18  H5  UNL     1      19.132  -0.890  53.742  1.00  0.00     0.106 HD
BRANCH  13  19
HETATM   19  N4  UNL     1      21.551   2.321  52.169  1.00  0.00    -0.341 N 
HETATM   20  H7  UNL     1      20.849   3.010  51.961  1.00  0.00     0.167 HD
BRANCH  19  21
HETATM   21  C10 UNL     1      21.829   2.525  50.750  1.00  0.00     0.035 A 
HETATM   22  C11 UNL     1      21.494   1.421  49.929  1.00  0.00     0.032 A 
HETATM   23  C12 UNL     1      21.673   1.357  48.545  1.00  0.00     0.046 A 
HETATM   24  C13 UNL     1      22.222   2.480  47.943  1.00  0.00     0.138 A 
HETATM   25  F1  UNL     1      22.443   2.558  46.608  1.00  0.00    -0.204 F 
HETATM   26  C14 UNL     1      22.583   3.600  48.631  1.00  0.00     0.074 A 
HETATM   27 CL1  UNL     1      23.273   5.072  48.046  1.00  0.00    -0.081 Cl
HETATM   28  C15 UNL     1      22.372   3.566  49.979  1.00  0.00     0.056 A 
ENDBRANCH  19  21
ENDBRANCH  13  19
ENDBRANCH   6   8
ENDBRANCH   3   4
TORSDOF 5
ENDMDL
MODEL 4
REMARK VINA RESULT:      -7.9      4.287      7.595
REMARK  5 active torsions:
REMARK  status: ('A' for Active; 'I' for Inactive)
REMARK    1  A    between atoms: C3_3  and  C4_4 
REMARK    2  A    between atoms: N1_6  and  S1_7 
REMARK    3  A    between atoms: C7_10  and  C16_24 
REMARK    4  A    between atoms: C9_14  and  N4_15 
REMARK    5  A    between atoms: N4_15  and  C10_16 
ROOT
HETATM    1  C1  UNL     1      28.905   7.125  47.103  1.00  0.00     0.112 C 
HETATM    2  C2  UNL     1      27.720   6.829  47.852  1.00  0.00    -0.107 C 
HETATM    3  C3  UNL     1      26.772   6.612  48.441  1.00  0.00    -0.050 C 
ENDROOT
BRANCH   3   4
HETATM    4  C4  UNL     1      25.531   6.306  49.196  1.00  0.00     0.227 A 
HETATM    5  O1  UNL     1      25.953   5.088  49.625  1.00  0.00    -0.198 OA
HETATM    6  N1  UNL     1      24.122   6.872  49.588  1.00  0.00    -0.230 NA
HETATM    7  H4  UNL     1      24.746   7.286  49.064  1.00  0.00     0.211 HD
BRANCH   6   8
HETATM    8  S1  UNL     1      23.920   4.516  50.975  1.00  0.00    -0.136 SA
HETATM    9  C5  UNL     1      23.841   3.637  51.521  1.00  0.00     0.135 A 
HETATM   10  C6  UNL     1      23.724   2.566  52.201  1.00  0.00     0.039 A 
HETATM   11  C7  UNL     1      22.412   2.962  51.934  1.00  0.00     0.145 A 
HETATM   12  N5  UNL     1      23.927   4.593  50.927  1.00  0.00    -0.227 NA
HETATM   13  C9  UNL     1      24.925   2.243  52.420  1.00  0.00     0.137 A 
HETATM   14  N3  UNL     1      24.387   1.172  53.127  1.00  0.00    -0.224 NA
HETATM   15  C8  UNL     1      23.022   1.041  53.209  1.00  0.00     0.230 A 
HETATM   16  N2  UNL     1      22.020   1.812  52.693  1.00  0.00    -0.261 NA
HETATM   17  C16 UNL     1      21.885   4.183  51.171  1.00  0.00     0.169 A 
HETATM   18  H5  UNL     1      24.023   5.645  50.235  1.00  0.00     0.106 HD
BRANCH  13  19
HETATM   19  N4  UNL     1      26.210   2.562  52.321  1.00  0.00    -0.341 N 
HETATM   20  H7  UNL     1      27.124   2.960  52.194  1.00  0.00     0.167 HD
BRANCH  19  21
HETATM   21  C10 UNL     1      27.026   1.422  52.729  1.00  0.00     0.035 A 
HETATM   22  C11 UNL     1      28.159   1.768  53.506  1.00  0.00     0.032 A 
HETATM   23  C12 UNL     1      29.101   0.868  54.008  1.00  0.00     0.046 A 
HETATM   24  C13 UNL     1      28.892  -0.471  53.714  1.00  0.00     0.138 A 
HETATM   25  F1  UNL     1      29.723  -1.452  54.143  1.00  0.00    -0.204 F 
HETATM   26  C14 UNL     1      27.838  -0.922  52.976  1.00  0.00     0.074 A 
HETATM   27 CL1  UNL     1      27.429  -2.538  52.520  1.00  0.00    -0.081 Cl
HETATM   28  C15 UNL     1      26.972   0.032  52.527  1.00  0.00     0.056 A 
ENDBRANCH  19  21
ENDBRANCH  13  19
ENDBRANCH   6   8
ENDBRANCH   3   4
TORSDOF 5
ENDMDL
MODEL 5
REMARK VINA RESULT:      -7.8      3.995      6.119
REMARK  5 active torsions:
REMARK  status: ('A' for Active; 'I' for Inactive)
REMARK    1  A    between atoms: C3_3  and  C4_4 
REMARK    2  A    between atoms: N1_6  and  S1_7 
REMARK    3  A    between atoms: C7_10  and  C16_24 
REMARK    4  A    between atoms: C9_14  and  N4_15 
REMARK    5  A    between atoms: N4_15  and  C10_16 
ROOT
HETATM    1  C1  UNL     1      22.062   3.502  45.765  1.00  0.00     0.112 C 
HETATM    2  C2  UNL     1      21.882   3.396  47.182  1.00  0.00    -0.107 C 
HETATM    3  C3  UNL     1      21.729   3.329  48.307  1.00  0.00    -0.050 C 
ENDROOT
BRANCH   3   4
HETATM    4  C4  UNL     1      21.518   3.218  49.772  1.00  0.00     0.227 A 
HETATM    5  O1  UNL     1      22.289   2.109  49.918  1.00  0.00    -0.198 OA
HETATM    6  N1  UNL     1      20.801   3.887  50.997  1.00  0.00    -0.230 NA
HETATM    7  H4  UNL     1      20.764   4.166  50.127  1.00  0.00     0.211 HD
BRANCH   6   8
HETATM    8  S1  UNL     1      22.036   1.881  52.401  1.00  0.00    -0.136 SA
HETATM    9  C5  UNL     1      22.505   1.137  52.952  1.00  0.00     0.135 A 
HETATM   10  C6  UNL     1      23.065   0.228  53.646  1.00  0.00     0.039 A 
HETATM   11  C7  UNL     1      21.711   0.142  53.975  1.00  0.00     0.145 A 
HETATM   12  N5  UNL     1      21.994   1.947  52.353  1.00  0.00    -0.227 NA
HETATM   13  C9  UNL     1      24.280   0.337  53.320  1.00  0.00     0.137 A 
HETATM   14  N3  UNL     1      24.496  -0.698  54.225  1.00  0.00    -0.224 NA
HETATM   15  C8  UNL     1      23.427  -1.227  54.906  1.00  0.00     0.230 A 
HETATM   16  N2  UNL     1      22.099  -0.912  54.863  1.00  0.00    -0.261 NA
HETATM   17  C16 UNL     1      20.520   0.978  53.486  1.00  0.00     0.169 A 
HETATM   18  H5  UNL     1      21.419   2.830  51.658  1.00  0.00     0.106 HD
BRANCH  13  19
HETATM   19  N4  UNL     1      25.207   1.015  52.654  1.00  0.00    -0.341 N 
HETATM   20  H7  UNL     1      25.775   1.624  52.092  1.00  0.00     0.167 HD
BRANCH  19  21
HETATM   21  C10 UNL     1      26.523   0.452  52.946  1.00  0.00     0.035 A 
HETATM   22  C11 UNL     1      27.472   1.401  53.398  1.00  0.00     0.032 A 
HETATM   23  C12 UNL     1      28.799   1.123  53.731  1.00  0.00     0.046 A 
HETATM   24  C13 UNL     1      29.201  -0.199  53.607  1.00  0.00     0.138 A 
HETATM   25  F1  UNL     1      30.458  -0.611  53.903  1.00  0.00    -0.204 F 
HETATM   26  C14 UNL     1      28.376  -1.198  53.183  1.00  0.00     0.074 A 
HETATM   27 CL1  UNL     1      28.709  -2.881  52.972  1.00  0.00    -0.081 Cl
HETATM   28  C15 UNL     1      27.099  -0.828  52.878  1.00  0.00     0.056 A 
ENDBRANCH  19  21
ENDBRANCH  13  19
ENDBRANCH   6   8
ENDBRANCH   3   4
TORSDOF 5
ENDMDL
MODEL 6
REMARK VINA RESULT:      -7.4      4.057      7.475
REMARK  5 active torsions:
REMARK  status: ('A' for Active; 'I' for Inactive)
REMARK    1  A    between atoms: C3_3  and  C4_4 
REMARK    2  A    between atoms: N1_6  and  S1_7 
REMARK    3  A    between atoms: C7_10  and  C16_24 
REMARK    4  A    between atoms: C9_14  and  N4_15 
REMARK    5  A    between atoms: N4_15  and  C10_16 
ROOT
HETATM    1  C1  UNL     1      27.160   4.353  49.072  1.00  0.00     0.112 C 
HETATM    2  C2  UNL     1      25.744   4.416  49.282  1.00  0.00    -0.107 C 
HETATM    3  C3  UNL     1      24.618   4.469  49.429  1.00  0.00    -0.050 C 
ENDROOT
BRANCH   3   4
HETATM    4  C4  UNL     1      23.148   4.514  49.632  1.00  0.00     0.227 A 
HETATM    5  O1  UNL     1      23.038   3.204  49.977  1.00  0.00    -0.198 OA
HETATM    6  N1  UNL     1      21.897   5.460  49.586  1.00  0.00    -0.230 NA
HETATM    7  H4  UNL     1      22.760   5.691  49.394  1.00  0.00     0.211 HD
BRANCH   6   8
HETATM    8  S1  UNL     1      20.568   3.205  50.402  1.00  0.00    -0.136 SA
HETATM    9  C5  UNL     1      20.045   2.366  50.718  1.00  0.00     0.135 A 
HETATM   10  C6  UNL     1      19.385   1.342  51.091  1.00  0.00     0.039 A 
HETATM   11  C7  UNL     1      18.983   1.562  49.772  1.00  0.00     0.145 A 
HETATM   12  N5  UNL     1      20.613   3.279  50.375  1.00  0.00    -0.227 NA
HETATM   13  C9  UNL     1      19.775   1.178  52.281  1.00  0.00     0.137 A 
HETATM   14  N3  UNL     1      18.886   0.107  52.303  1.00  0.00    -0.224 NA
HETATM   15  C8  UNL     1      18.150  -0.176  51.177  1.00  0.00     0.230 A 
HETATM   16  N2  UNL     1      18.120   0.434  49.956  1.00  0.00    -0.261 NA
HETATM   17  C16 UNL     1      19.404   2.653  48.780  1.00  0.00     0.169 A 
HETATM   18  H5  UNL     1      21.273   4.280  49.980  1.00  0.00     0.106 HD
BRANCH  13  19
HETATM   19  N4  UNL     1      20.489   1.637  53.302  1.00  0.00    -0.341 N 
HETATM   20  H7  UNL     1      20.886   2.076  54.114  1.00  0.00     0.167 HD
BRANCH  19  21
HETATM   21  C10 UNL     1      21.811   1.018  53.286  1.00  0.00     0.035 A 
HETATM   22  C11 UNL     1      21.925  -0.129  54.110  1.00  0.00     0.032 A 
HETATM   23  C12 UNL     1      23.082  -0.893  54.279  1.00  0.00     0.046 A 
HETATM   24  C13 UNL     1      24.201  -0.480  53.571  1.00  0.00     0.138 A 
HETATM   25  F1  UNL     1      25.388  -1.132  53.637  1.00  0.00    -0.204 F 
HETATM   26  C14 UNL     1      24.211   0.607  52.749  1.00  0.00     0.074 A 
HETATM   27 CL1  UNL     1      25.503   1.255  51.802  1.00  0.00    -0.081 Cl
HETATM   28  C15 UNL     1      23.034   1.290  52.650  1.00  0.00     0.056 A 
ENDBRANCH  19  21
ENDBRANCH  13  19
ENDBRANCH   6   8
ENDBRANCH   3   4
TORSDOF 5
ENDMDL
MODEL 7
REMARK VINA RESULT:      -7.4      4.003      6.203
REMARK  5 active torsions:
REMARK  status: ('A' for Active; 'I' for Inactive)
REMARK    1  A    between atoms: C3_3  and  C4_4 
REMARK    2  A    between atoms: N1_6  and  S1_7 
REMARK    3  A    between atoms: C7_10  and  C16_24 
REMARK    4  A    between atoms: C9_14  and  N4_15 
REMARK    5  A    between atoms: N4_15  and  C10_16 
ROOT
HETATM    1  C1  UNL     1      21.885   3.768  45.564  1.00  0.00     0.112 C 
HETATM    2  C2  UNL     1      21.309   3.427  46.830  1.00  0.00    -0.107 C 
HETATM    3  C3  UNL     1      20.840   3.173  47.834  1.00  0.00    -0.050 C 
ENDROOT
BRANCH   3   4
HETATM    4  C4  UNL     1      20.221   2.816  49.136  1.00  0.00     0.227 A 
HETATM    5  O1  UNL     1      21.237   2.005  49.531  1.00  0.00    -0.198 OA
HETATM    6  N1  UNL     1      18.964   3.060  50.043  1.00  0.00    -0.230 NA
HETATM    7  H4  UNL     1      19.115   3.419  49.216  1.00  0.00     0.211 HD
BRANCH   6   8
HETATM    8  S1  UNL     1      20.294   1.399  51.773  1.00  0.00    -0.136 SA
HETATM    9  C5  UNL     1      20.787   0.783  52.446  1.00  0.00     0.135 A 
HETATM   10  C6  UNL     1      21.372   0.023  53.284  1.00  0.00     0.039 A 
HETATM   11  C7  UNL     1      20.096  -0.525  53.138  1.00  0.00     0.145 A 
HETATM   12  N5  UNL     1      20.250   1.454  51.714  1.00  0.00    -0.227 NA
HETATM   13  C9  UNL     1      22.515   0.550  53.387  1.00  0.00     0.137 A 
HETATM   14  N3  UNL     1      22.772  -0.462  54.308  1.00  0.00    -0.224 NA
HETATM   15  C8  UNL     1      21.787  -1.379  54.588  1.00  0.00     0.230 A 
HETATM   16  N2  UNL     1      20.517  -1.498  54.102  1.00  0.00    -0.261 NA
HETATM   17  C16 UNL     1      18.913  -0.058  52.281  1.00  0.00     0.169 A 
HETATM   18  H5  UNL     1      19.660   2.184  50.870  1.00  0.00     0.106 HD
BRANCH  13  19
HETATM   19  N4  UNL     1      23.319   1.559  53.075  1.00  0.00    -0.341 N 
HETATM   20  H7  UNL     1      23.780   2.418  52.831  1.00  0.00     0.167 HD
BRANCH  19  21
HETATM   21  C10 UNL     1      24.702   1.092  53.063  1.00  0.00     0.035 A 
HETATM   22  C11 UNL     1      25.660   2.109  53.298  1.00  0.00     0.032 A 
HETATM   23  C12 UNL     1      27.044   1.927  53.326  1.00  0.00     0.046 A 
HETATM   24  C13 UNL     1      27.499   0.635  53.107  1.00  0.00     0.138 A 
HETATM   25  F1  UNL     1      28.816   0.314  53.113  1.00  0.00    -0.204 F 
HETATM   26  C14 UNL     1      26.673  -0.423  52.871  1.00  0.00     0.074 A 
HETATM   27 CL1  UNL     1      27.067  -2.080  52.581  1.00  0.00    -0.081 Cl
HETATM   28  C15 UNL     1      25.337  -0.145  52.861  1.00  0.00     0.056 A 
ENDBRANCH  19  21
ENDBRANCH  13  19
ENDBRANCH   6   8
ENDBRANCH   3   4
TORSDOF 5
ENDMDL
MODEL 8
REMARK VINA RESULT:      -7.4      3.961      7.247
REMARK  5 active torsions:
REMARK  status: ('A' for Active; 'I' for Inactive)
REMARK    1  A    between atoms: C3_3  and  C4_4 
REMARK    2  A    between atoms: N1_6  and  S1_7 
REMARK    3  A    between atoms: C7_10  and  C16_24 
REMARK    4  A    between atoms: C9_14  and  N4_15 
REMARK    5  A    between atoms: N4_15  and  C10_16 
ROOT
HETATM    1  C1  UNL     1      27.471   7.547  47.628  1.00  0.00     0.112 C 
HETATM    2  C2  UNL     1      26.574   7.074  48.640  1.00  0.00    -0.107 C 
HETATM    3  C3  UNL     1      25.854   6.686  49.429  1.00  0.00    -0.050 C 
ENDROOT
BRANCH   3   4
HETATM    4  C4  UNL     1      24.935   6.173  50.477  1.00  0.00     0.227 A 
HETATM    5  O1  UNL     1      24.759   4.959  49.893  1.00  0.00    -0.198 OA
HETATM    6  N1  UNL     1      24.233   6.544  51.830  1.00  0.00    -0.230 NA
HETATM    7  H4  UNL     1      24.789   7.081  51.341  1.00  0.00     0.211 HD
BRANCH   6   8
HETATM    8  S1  UNL     1      23.252   3.991  51.646  1.00  0.00    -0.136 SA
HETATM    9  C5  UNL     1      22.860   3.032  51.588  1.00  0.00     0.135 A 
HETATM   10  C6  UNL     1      22.358   1.864  51.508  1.00  0.00     0.039 A 
HETATM   11  C7  UNL     1      21.845   2.547  50.404  1.00  0.00     0.145 A 
HETATM   12  N5  UNL     1      23.286   4.075  51.651  1.00  0.00    -0.227 NA
HETATM   13  C9  UNL     1      22.845   1.282  52.517  1.00  0.00     0.137 A 
HETATM   14  N3  UNL     1      22.099   0.183  52.100  1.00  0.00    -0.224 NA
HETATM   15  C8  UNL     1      21.330   0.287  50.966  1.00  0.00     0.230 A 
HETATM   16  N2  UNL     1      21.143   1.333  50.109  1.00  0.00    -0.261 NA
HETATM   17  C16 UNL     1      22.060   3.997  49.952  1.00  0.00     0.169 A 
HETATM   18  H5  UNL     1      23.788   5.232  51.703  1.00  0.00     0.106 HD
BRANCH  13  19
HETATM   19  N4  UNL     1      23.562   1.376  53.630  1.00  0.00    -0.341 N 
HETATM   20  H7  UNL     1      23.960   1.515  54.542  1.00  0.00     0.167 HD
BRANCH  19  21
HETATM   21  C10 UNL     1      24.900   0.842  53.391  1.00  0.00     0.035 A 
HETATM   22  C11 UNL     1      25.939   1.793  53.541  1.00  0.00     0.032 A 
HETATM   23  C12 UNL     1      27.300   1.541  53.356  1.00  0.00     0.046 A 
HETATM   24  C13 UNL     1      27.644   0.245  53.000  1.00  0.00     0.138 A 
HETATM   25  F1  UNL     1      28.927  -0.140  52.796  1.00  0.00    -0.204 F 
HETATM   26  C14 UNL     1      26.732  -0.753  52.828  1.00  0.00     0.074 A 
HETATM   27 CL1  UNL     1      26.983  -2.406  52.390  1.00  0.00    -0.081 Cl
HETATM   28  C15 UNL     1      25.427  -0.409  53.028  1.00  0.00     0.056 A 
ENDBRANCH  19  21
ENDBRANCH  13  19
ENDBRANCH   6   8
ENDBRANCH   3   4
TORSDOF 5
ENDMDL
MODEL 9
REMARK VINA RESULT:      -7.3      9.046     11.571
REMARK  5 active torsions:
REMARK  status: ('A' for Active; 'I' for Inactive)
REMARK    1  A    between atoms: C3_3  and  C4_4 
REMARK    2  A    between atoms: N1_6  and  S1_7 
REMARK    3  A    between atoms: C7_10  and  C16_24 
REMARK    4  A    between atoms: C9_14  and  N4_15 
REMARK    5  A    between atoms: N4_15  and  C10_16 
ROOT
HETATM    1  C1  UNL     1      23.985   6.390  48.313  1.00  0.00     0.112 C 
HETATM    2  C2  UNL     1      25.109   7.126  48.811  1.00  0.00    -0.107 C 
HETATM    3  C3  UNL     1      26.005   7.715  49.187  1.00  0.00    -0.050 C 
ENDROOT
BRANCH   3   4
HETATM    4  C4  UNL     1      27.160   8.500  49.694  1.00  0.00     0.227 A 
HETATM    5  O1  UNL     1      27.986   8.168  48.668  1.00  0.00    -0.198 OA
HETATM    6  N1  UNL     1      27.629   9.445  50.855  1.00  0.00    -0.230 NA
HETATM    7  H4  UNL     1      26.807   9.054  50.771  1.00  0.00     0.211 HD
BRANCH   6   8
HETATM    8  S1  UNL     1      29.963   9.514  49.417  1.00  0.00    -0.136 SA
HETATM    9  C5  UNL     1      30.833   9.534  48.852  1.00  0.00     0.135 A 
HETATM   10  C6  UNL     1      31.891   9.574  48.143  1.00  0.00     0.039 A 
HETATM   11  C7  UNL     1      31.318  10.839  47.998  1.00  0.00     0.145 A 
HETATM   12  N5  UNL     1      29.886   9.512  49.466  1.00  0.00    -0.227 NA
HETATM   13  C9  UNL     1      32.376   8.419  48.302  1.00  0.00     0.137 A 
HETATM   14  N3  UNL     1      33.378   8.846  47.436  1.00  0.00    -0.224 NA
HETATM   15  C8  UNL     1      33.327  10.123  46.930  1.00  0.00     0.230 A 
HETATM   16  N2  UNL     1      32.420  11.124  47.126  1.00  0.00    -0.261 NA
HETATM   17  C16 UNL     1      30.024  11.412  48.589  1.00  0.00     0.169 A 
HETATM   18  H5  UNL     1      28.844   9.498  50.179  1.00  0.00     0.106 HD
BRANCH  13  19
HETATM   19  N4  UNL     1      32.229   7.199  48.804  1.00  0.00    -0.341 N 
HETATM   20  H7  UNL     1      32.022   6.354  49.307  1.00  0.00     0.167 HD
BRANCH  19  21
HETATM   21  C10 UNL     1      32.930   6.238  47.956  1.00  0.00     0.035 A 
HETATM   22  C11 UNL     1      34.026   5.600  48.586  1.00  0.00     0.032 A 
HETATM   23  C12 UNL     1      34.864   4.654  47.991  1.00  0.00     0.046 A 
HETATM   24  C13 UNL     1      34.579   4.322  46.675  1.00  0.00     0.138 A 
HETATM   25  F1  UNL     1      35.305   3.414  45.978  1.00  0.00    -0.204 F 
HETATM   26  C14 UNL     1      33.551   4.869  45.967  1.00  0.00     0.074 A 
HETATM   27 CL1  UNL     1      33.059   4.573  44.337  1.00  0.00    -0.081 Cl
HETATM   28  C15 UNL     1      32.790   5.786  46.633  1.00  0.00     0.056 A 
ENDBRANCH  19  21
ENDBRANCH  13  19
ENDBRANCH   6   8
ENDBRANCH   3   4
TORSDOF 5
ENDMDL
