MODEL 1
REMARK VINA RESULT:      -6.7      0.000      0.000
REMARK  5 active torsions:
REMARK  status: ('A' for Active; 'I' for Inactive)
REMARK    1  A    between atoms: C8_8  and  C9_9 
REMARK    2  A    between atoms: C10_10  and  C11_11 
REMARK    3  A    between atoms: C11_11  and  C12_12 
REMARK    4  A    between atoms: C12_12  and  O2_14 
REMARK    5  A    between atoms: C16_20  and  N2_21 
ROOT
HETATM    1  C1  UNL     1      26.736  -1.497  52.346  1.00  0.00     0.049 C 
HETATM    2  C2  UNL     1      26.643  -0.049  52.692  1.00  0.00    -0.051 A 
HETATM    3  C3  UNL     1      27.572   0.832  53.017  1.00  0.00     0.008 A 
HETATM    4  C4  UNL     1      26.838   2.091  53.243  1.00  0.00     0.011 A 
HETATM    5  C5  UNL     1      25.543   1.885  53.042  1.00  0.00    -0.014 A 
HETATM    6  C6  UNL     1      25.272   0.481  52.659  1.00  0.00    -0.025 A 
HETATM    7  C7  UNL     1      23.957   0.584  52.583  1.00  0.00    -0.001 C 
HETATM    8  C8  UNL     1      23.239   1.905  52.667  1.00  0.00     0.098 C 
HETATM    9  C16 UNL     1      24.311   2.671  53.207  1.00  0.00     0.265 C 
ENDROOT
BRANCH   8  10
HETATM   10  C9  UNL     1      22.741   1.919  51.288  1.00  0.00     0.035 A 
HETATM   11  C10 UNL     1      23.236   2.359  50.173  1.00  0.00     0.016 A 
HETATM   12  S1  UNL     1      22.483   2.281  48.527  1.00  0.00    -0.103 SA
HETATM   13  C13 UNL     1      20.931   1.452  48.814  1.00  0.00     0.067 A 
HETATM   14  C14 UNL     1      20.666   1.102  50.046  1.00  0.00     0.097 A 
HETATM   15  N1  UNL     1      21.429   1.275  51.227  1.00  0.00    -0.362 N 
HETATM   16  C15 UNL     1      20.596   0.668  52.251  1.00  0.00     0.155 C 
BRANCH  11  17
HETATM   17  C11 UNL     1      24.481   3.000  49.886  1.00  0.00     0.158 C 
BRANCH  17  18
HETATM   18  C12 UNL     1      24.288   4.462  49.475  1.00  0.00     0.144 C 
HETATM   19  O1  UNL     1      24.017   5.197  50.463  1.00  0.00    -0.650 OA
BRANCH  18  20
HETATM   20  O2  UNL     1      24.198   5.597  48.726  1.00  0.00    -0.776 OA
HETATM   21  H10 UNL     1      24.806   6.395  48.924  1.00  0.00     0.167 HD
ENDBRANCH  18  20
ENDBRANCH  17  18
ENDBRANCH  11  17
ENDBRANCH   8  10
BRANCH   9  22
HETATM   22  N2  UNL     1      24.423   4.066  53.278  1.00  0.00     0.088 NA
HETATM   23  H17 UNL     1      25.383   4.454  53.298  1.00  0.00     0.313 HD
HETATM   24  H18 UNL     1      23.827   4.498  52.540  1.00  0.00     0.313 HD
ENDBRANCH   9  22
TORSDOF 5
ENDMDL
MODEL 2
REMARK VINA RESULT:      -6.4      2.796      4.915
REMARK  5 active torsions:
REMARK  status: ('A' for Active; 'I' for Inactive)
REMARK    1  A    between atoms: C8_8  and  C9_9 
REMARK    2  A    between atoms: C10_10  and  C11_11 
REMARK    3  A    between atoms: C11_11  and  C12_12 
REMARK    4  A    between atoms: C12_12  and  O2_14 
REMARK    5  A    between atoms: C16_20  and  N2_21 
ROOT
HETATM    1  C1  UNL     1      21.122   1.268  49.284  1.00  0.00     0.049 C 
HETATM    2  C2  UNL     1      21.927   1.335  50.539  1.00  0.00    -0.051 A 
HETATM    3  C3  UNL     1      22.221   0.411  51.436  1.00  0.00     0.008 A 
HETATM    4  C4  UNL     1      23.050   1.107  52.438  1.00  0.00     0.011 A 
HETATM    5  C5  UNL     1      23.194   2.376  52.081  1.00  0.00    -0.014 A 
HETATM    6  C6  UNL     1      22.490   2.664  50.812  1.00  0.00    -0.025 A 
HETATM    7  C7  UNL     1      22.771   3.954  50.759  1.00  0.00    -0.001 C 
HETATM    8  C8  UNL     1      23.740   4.615  51.705  1.00  0.00     0.098 C 
HETATM    9  C16 UNL     1      23.787   3.580  52.682  1.00  0.00     0.265 C 
ENDROOT
BRANCH   8  10
HETATM   10  C9  UNL     1      24.762   4.940  50.704  1.00  0.00     0.035 A 
HETATM   11  C10 UNL     1      25.671   4.235  50.106  1.00  0.00     0.016 A 
HETATM   12  S1  UNL     1      26.863   4.800  48.863  1.00  0.00    -0.103 SA
HETATM   13  C13 UNL     1      26.470   6.528  48.661  1.00  0.00     0.067 A 
HETATM   14  C14 UNL     1      25.493   7.002  49.388  1.00  0.00     0.097 A 
HETATM   15  N1  UNL     1      24.666   6.354  50.339  1.00  0.00    -0.362 N 
HETATM   16  C15 UNL     1      23.780   7.415  50.786  1.00  0.00     0.155 C 
BRANCH  11  17
HETATM   17  C11 UNL     1      26.005   2.849  50.209  1.00  0.00     0.158 C 
BRANCH  17  18
HETATM   18  C12 UNL     1      26.892   2.566  51.425  1.00  0.00     0.144 C 
HETATM   19  O1  UNL     1      26.641   1.443  51.940  1.00  0.00    -0.650 OA
BRANCH  18  20
HETATM   20  O2  UNL     1      27.830   2.700  52.404  1.00  0.00    -0.776 OA
HETATM   21  H10 UNL     1      28.502   1.949  52.580  1.00  0.00     0.167 HD
ENDBRANCH  18  20
ENDBRANCH  17  18
ENDBRANCH  11  17
ENDBRANCH   8  10
BRANCH   9  22
HETATM   22  N2  UNL     1      24.720   3.413  53.714  1.00  0.00     0.088 NA
HETATM   23  H17 UNL     1      24.489   3.852  54.623  1.00  0.00     0.313 HD
HETATM   24  H18 UNL     1      24.960   2.402  53.803  1.00  0.00     0.313 HD
ENDBRANCH   9  22
TORSDOF 5
ENDMDL
MODEL 3
REMARK VINA RESULT:      -6.3      2.848      5.153
REMARK  5 active torsions:
REMARK  status: ('A' for Active; 'I' for Inactive)
REMARK    1  A    between atoms: C8_8  and  C9_9 
REMARK    2  A    between atoms: C10_10  and  C11_11 
REMARK    3  A    between atoms: C11_11  and  C12_12 
REMARK    4  A    between atoms: C12_12  and  O2_14 
REMARK    5  A    between atoms: C16_20  and  N2_21 
ROOT
HETATM    1  C1  UNL     1      26.054   2.080  53.839  1.00  0.00     0.049 C 
HETATM    2  C2  UNL     1      25.010   1.979  52.777  1.00  0.00    -0.051 A 
HETATM    3  C3  UNL     1      23.850   1.348  52.752  1.00  0.00     0.008 A 
HETATM    4  C4  UNL     1      23.290   1.637  51.419  1.00  0.00     0.011 A 
HETATM    5  C5  UNL     1      24.136   2.406  50.746  1.00  0.00    -0.014 A 
HETATM    6  C6  UNL     1      25.339   2.717  51.550  1.00  0.00    -0.025 A 
HETATM    7  C7  UNL     1      25.973   3.421  50.629  1.00  0.00    -0.001 C 
HETATM    8  C8  UNL     1      25.326   3.832  49.331  1.00  0.00     0.098 C 
HETATM    9  C16 UNL     1      24.222   2.933  49.376  1.00  0.00     0.265 C 
ENDROOT
BRANCH   8  10
HETATM   10  C9  UNL     1      25.311   5.274  49.596  1.00  0.00     0.035 A 
HETATM   11  C10 UNL     1      24.453   6.060  50.170  1.00  0.00     0.016 A 
HETATM   12  S1  UNL     1      24.599   7.847  50.433  1.00  0.00    -0.103 SA
HETATM   13  C13 UNL     1      26.191   8.244  49.735  1.00  0.00     0.067 A 
HETATM   14  C14 UNL     1      26.872   7.257  49.214  1.00  0.00     0.097 A 
HETATM   15  N1  UNL     1      26.549   5.882  49.108  1.00  0.00    -0.362 N 
HETATM   16  C15 UNL     1      27.711   5.319  48.443  1.00  0.00     0.155 C 
BRANCH  11  17
HETATM   17  C11 UNL     1      23.184   5.788  50.769  1.00  0.00     0.158 C 
BRANCH  17  18
HETATM   18  C12 UNL     1      23.317   5.448  52.256  1.00  0.00     0.144 C 
HETATM   19  O1  UNL     1      22.319   4.808  52.685  1.00  0.00    -0.650 OA
BRANCH  18  20
HETATM   20  O2  UNL     1      23.803   5.353  53.525  1.00  0.00    -0.776 OA
HETATM   21  H10 UNL     1      24.710   5.764  53.762  1.00  0.00     0.167 HD
ENDBRANCH  18  20
ENDBRANCH  17  18
ENDBRANCH  11  17
ENDBRANCH   8  10
BRANCH   9  22
HETATM   22  N2  UNL     1      23.051   2.970  48.607  1.00  0.00     0.088 NA
HETATM   23  H17 UNL     1      23.101   2.540  47.666  1.00  0.00     0.313 HD
HETATM   24  H18 UNL     1      22.254   2.610  49.175  1.00  0.00     0.313 HD
ENDBRANCH   9  22
TORSDOF 5
ENDMDL
MODEL 4
REMARK VINA RESULT:      -6.0      1.798      2.258
REMARK  5 active torsions:
REMARK  status: ('A' for Active; 'I' for Inactive)
REMARK    1  A    between atoms: C8_8  and  C9_9 
REMARK    2  A    between atoms: C10_10  and  C11_11 
REMARK    3  A    between atoms: C11_11  and  C12_12 
REMARK    4  A    between atoms: C12_12  and  O2_14 
REMARK    5  A    between atoms: C16_20  and  N2_21 
ROOT
HETATM    1  C1  UNL     1      23.621  -0.600  53.146  1.00  0.00     0.049 C 
HETATM    2  C2  UNL     1      24.137   0.799  53.199  1.00  0.00    -0.051 A 
HETATM    3  C3  UNL     1      25.301   1.285  53.594  1.00  0.00     0.008 A 
HETATM    4  C4  UNL     1      25.188   2.743  53.401  1.00  0.00     0.011 A 
HETATM    5  C5  UNL     1      23.987   3.027  52.913  1.00  0.00    -0.014 A 
HETATM    6  C6  UNL     1      23.176   1.804  52.724  1.00  0.00    -0.025 A 
HETATM    7  C7  UNL     1      22.078   2.401  52.296  1.00  0.00    -0.001 C 
HETATM    8  C8  UNL     1      22.028   3.869  51.962  1.00  0.00     0.098 C 
HETATM    9  C16 UNL     1      23.232   4.254  52.617  1.00  0.00     0.265 C 
ENDROOT
BRANCH   8  10
HETATM   10  C9  UNL     1      21.810   3.711  50.521  1.00  0.00     0.035 A 
HETATM   11  C10 UNL     1      22.611   3.496  49.523  1.00  0.00     0.016 A 
HETATM   12  S1  UNL     1      22.168   3.306  47.776  1.00  0.00    -0.103 SA
HETATM   13  C13 UNL     1      20.393   3.470  47.774  1.00  0.00     0.067 A 
HETATM   14  C14 UNL     1      19.816   3.681  48.928  1.00  0.00     0.097 A 
HETATM   15  N1  UNL     1      20.381   3.805  50.221  1.00  0.00    -0.362 N 
HETATM   16  C15 UNL     1      19.223   4.020  51.070  1.00  0.00     0.155 C 
BRANCH  11  17
HETATM   17  C11 UNL     1      24.029   3.327  49.476  1.00  0.00     0.158 C 
BRANCH  17  18
HETATM   18  C12 UNL     1      24.751   4.649  49.198  1.00  0.00     0.144 C 
HETATM   19  O1  UNL     1      25.679   4.862  50.024  1.00  0.00    -0.650 OA
BRANCH  18  20
HETATM   20  O2  UNL     1      25.107   5.837  48.635  1.00  0.00    -0.776 OA
HETATM   21  H10 UNL     1      25.703   5.857  47.805  1.00  0.00     0.167 HD
ENDBRANCH  18  20
ENDBRANCH  17  18
ENDBRANCH  11  17
ENDBRANCH   8  10
BRANCH   9  22
HETATM   22  N2  UNL     1      23.948   5.450  52.470  1.00  0.00     0.088 NA
HETATM   23  H17 UNL     1      23.744   6.011  51.623  1.00  0.00     0.313 HD
HETATM   24  H18 UNL     1      23.877   6.006  53.349  1.00  0.00     0.313 HD
ENDBRANCH   9  22
TORSDOF 5
ENDMDL
MODEL 5
REMARK VINA RESULT:      -6.0      2.703      5.216
REMARK  5 active torsions:
REMARK  status: ('A' for Active; 'I' for Inactive)
REMARK    1  A    between atoms: C8_8  and  C9_9 
REMARK    2  A    between atoms: C10_10  and  C11_11 
REMARK    3  A    between atoms: C11_11  and  C12_12 
REMARK    4  A    between atoms: C12_12  and  O2_14 
REMARK    5  A    between atoms: C16_20  and  N2_21 
ROOT
HETATM    1  C1  UNL     1      21.284   7.573  50.396  1.00  0.00     0.049 C 
HETATM    2  C2  UNL     1      22.716   7.169  50.509  1.00  0.00    -0.051 A 
HETATM    3  C3  UNL     1      23.783   7.840  50.905  1.00  0.00     0.008 A 
HETATM    4  C4  UNL     1      24.899   6.882  50.787  1.00  0.00     0.011 A 
HETATM    5  C5  UNL     1      24.434   5.724  50.336  1.00  0.00    -0.014 A 
HETATM    6  C6  UNL     1      22.973   5.778  50.111  1.00  0.00    -0.025 A 
HETATM    7  C7  UNL     1      22.835   4.550  49.641  1.00  0.00    -0.001 C 
HETATM    8  C8  UNL     1      23.951   3.539  49.668  1.00  0.00     0.098 C 
HETATM    9  C16 UNL     1      25.023   4.446  49.908  1.00  0.00     0.265 C 
ENDROOT
BRANCH   8  10
HETATM   10  C9  UNL     1      23.329   2.622  50.628  1.00  0.00     0.035 A 
HETATM   11  C10 UNL     1      23.419   2.493  51.915  1.00  0.00     0.016 A 
HETATM   12  S1  UNL     1      22.555   1.296  52.966  1.00  0.00    -0.103 SA
HETATM   13  C13 UNL     1      21.560   0.369  51.814  1.00  0.00     0.067 A 
HETATM   14  C14 UNL     1      21.648   0.703  50.553  1.00  0.00     0.097 A 
HETATM   15  N1  UNL     1      22.424   1.710  49.928  1.00  0.00    -0.362 N 
HETATM   16  C15 UNL     1      22.072   1.577  48.525  1.00  0.00     0.155 C 
BRANCH  11  17
HETATM   17  C11 UNL     1      24.174   3.226  52.882  1.00  0.00     0.158 C 
BRANCH  17  18
HETATM   18  C12 UNL     1      25.359   2.415  53.414  1.00  0.00     0.144 C 
HETATM   19  O1  UNL     1      26.074   1.959  52.481  1.00  0.00    -0.650 OA
BRANCH  18  20
HETATM   20  O2  UNL     1      26.235   1.801  54.258  1.00  0.00    -0.776 OA
HETATM   21  H10 UNL     1      26.043   1.763  55.262  1.00  0.00     0.167 HD
ENDBRANCH  18  20
ENDBRANCH  17  18
ENDBRANCH  11  17
ENDBRANCH   8  10
BRANCH   9  22
HETATM   22  N2  UNL     1      26.326   4.146  50.327  1.00  0.00     0.088 NA
HETATM   23  H17 UNL     1      26.858   3.476  49.743  1.00  0.00     0.313 HD
HETATM   24  H18 UNL     1      26.846   5.032  50.501  1.00  0.00     0.313 HD
ENDBRANCH   9  22
TORSDOF 5
ENDMDL
MODEL 6
REMARK VINA RESULT:      -6.0      2.705      4.790
REMARK  5 active torsions:
REMARK  status: ('A' for Active; 'I' for Inactive)
REMARK    1  A    between atoms: C8_8  and  C9_9 
REMARK    2  A    between atoms: C10_10  and  C11_11 
REMARK    3  A    between atoms: C11_11  and  C12_12 
REMARK    4  A    between atoms: C12_12  and  O2_14 
REMARK    5  A    between atoms: C16_20  and  N2_21 
ROOT
HETATM    1  C1  UNL     1      22.620   2.097  47.640  1.00  0.00     0.049 C 
HETATM    2  C2  UNL     1      22.816   3.113  48.715  1.00  0.00    -0.051 A 
HETATM    3  C3  UNL     1      22.634   4.421  48.722  1.00  0.00     0.008 A 
HETATM    4  C4  UNL     1      23.005   4.849  50.084  1.00  0.00     0.011 A 
HETATM    5  C5  UNL     1      23.377   3.789  50.788  1.00  0.00    -0.014 A 
HETATM    6  C6  UNL     1      23.293   2.548  49.986  1.00  0.00    -0.025 A 
HETATM    7  C7  UNL     1      23.752   1.724  50.910  1.00  0.00    -0.001 C 
HETATM    8  C8  UNL     1      23.983   2.149  52.337  1.00  0.00     0.098 C 
HETATM    9  C16 UNL     1      23.949   3.556  52.124  1.00  0.00     0.265 C 
ENDROOT
BRANCH   8  10
HETATM   10  C9  UNL     1      22.937   1.314  52.935  1.00  0.00     0.035 A 
HETATM   11  C10 UNL     1      21.649   1.436  53.024  1.00  0.00     0.016 A 
HETATM   12  S1  UNL     1      20.483   0.284  53.797  1.00  0.00    -0.103 SA
HETATM   13  C13 UNL     1      21.526  -1.039  54.380  1.00  0.00     0.067 A 
HETATM   14  C14 UNL     1      22.809  -0.923  54.159  1.00  0.00     0.097 A 
HETATM   15  N1  UNL     1      23.534   0.109  53.513  1.00  0.00    -0.362 N 
HETATM   16  C15 UNL     1      24.908  -0.356  53.584  1.00  0.00     0.155 C 
BRANCH  11  17
HETATM   17  C11 UNL     1      20.767   2.456  52.550  1.00  0.00     0.158 C 
BRANCH  17  18
HETATM   18  C12 UNL     1      19.964   1.993  51.331  1.00  0.00     0.144 C 
HETATM   19  O1  UNL     1      19.792   2.924  50.499  1.00  0.00    -0.650 OA
BRANCH  18  20
HETATM   20  O2  UNL     1      19.255   1.216  50.465  1.00  0.00    -0.776 OA
HETATM   21  H10 UNL     1      19.603   1.051  49.518  1.00  0.00     0.167 HD
ENDBRANCH  18  20
ENDBRANCH  17  18
ENDBRANCH  11  17
ENDBRANCH   8  10
BRANCH   9  22
HETATM   22  N2  UNL     1      23.817   4.569  53.083  1.00  0.00     0.088 NA
HETATM   23  H17 UNL     1      22.953   4.557  53.654  1.00  0.00     0.313 HD
HETATM   24  H18 UNL     1      24.683   4.612  53.661  1.00  0.00     0.313 HD
ENDBRANCH   9  22
TORSDOF 5
ENDMDL
MODEL 7
REMARK VINA RESULT:      -5.9      3.046      5.080
REMARK  5 active torsions:
REMARK  status: ('A' for Active; 'I' for Inactive)
REMARK    1  A    between atoms: C8_8  and  C9_9 
REMARK    2  A    between atoms: C10_10  and  C11_11 
REMARK    3  A    between atoms: C11_11  and  C12_12 
REMARK    4  A    between atoms: C12_12  and  O2_14 
REMARK    5  A    between atoms: C16_20  and  N2_21 
ROOT
HETATM    1  C1  UNL     1      23.439   0.625  53.445  1.00  0.00     0.049 C 
HETATM    2  C2  UNL     1      22.630   0.629  52.191  1.00  0.00    -0.051 A 
HETATM    3  C3  UNL     1      21.602  -0.110  51.815  1.00  0.00     0.008 A 
HETATM    4  C4  UNL     1      21.253   0.383  50.469  1.00  0.00     0.011 A 
HETATM    5  C5  UNL     1      22.080   1.365  50.136  1.00  0.00    -0.014 A 
HETATM    6  C6  UNL     1      23.058   1.637  51.212  1.00  0.00    -0.025 A 
HETATM    7  C7  UNL     1      23.733   2.583  50.583  1.00  0.00    -0.001 C 
HETATM    8  C8  UNL     1      23.275   3.178  49.277  1.00  0.00     0.098 C 
HETATM    9  C16 UNL     1      22.330   2.170  48.931  1.00  0.00     0.265 C 
ENDROOT
BRANCH   8  10
HETATM   10  C9  UNL     1      22.995   4.523  49.789  1.00  0.00     0.035 A 
HETATM   11  C10 UNL     1      21.909   5.109  50.191  1.00  0.00     0.016 A 
HETATM   12  S1  UNL     1      21.738   6.800  50.819  1.00  0.00    -0.103 SA
HETATM   13  C13 UNL     1      23.402   7.438  50.764  1.00  0.00     0.067 A 
HETATM   14  C14 UNL     1      24.331   6.633  50.316  1.00  0.00     0.097 A 
HETATM   15  N1  UNL     1      24.234   5.298  49.853  1.00  0.00    -0.362 N 
HETATM   16  C15 UNL     1      25.606   4.967  49.508  1.00  0.00     0.155 C 
BRANCH  11  17
HETATM   17  C11 UNL     1      20.564   4.635  50.283  1.00  0.00     0.158 C 
BRANCH  17  18
HETATM   18  C12 UNL     1      20.287   3.967  51.633  1.00  0.00     0.144 C 
HETATM   19  O1  UNL     1      19.052   3.853  51.857  1.00  0.00    -0.650 OA
BRANCH  18  20
HETATM   20  O2  UNL     1      20.466   3.371  52.844  1.00  0.00    -0.776 OA
HETATM   21  H10 UNL     1      19.721   3.392  53.544  1.00  0.00     0.167 HD
ENDBRANCH  18  20
ENDBRANCH  17  18
ENDBRANCH  11  17
ENDBRANCH   8  10
BRANCH   9  22
HETATM   22  N2  UNL     1      21.323   2.232  47.958  1.00  0.00     0.088 NA
HETATM   23  H17 UNL     1      20.857   3.149  47.831  1.00  0.00     0.313 HD
HETATM   24  H18 UNL     1      21.681   1.834  47.064  1.00  0.00     0.313 HD
ENDBRANCH   9  22
TORSDOF 5
ENDMDL
MODEL 8
REMARK VINA RESULT:      -5.9     10.268     11.715
REMARK  5 active torsions:
REMARK  status: ('A' for Active; 'I' for Inactive)
REMARK    1  A    between atoms: C8_8  and  C9_9 
REMARK    2  A    between atoms: C10_10  and  C11_11 
REMARK    3  A    between atoms: C11_11  and  C12_12 
REMARK    4  A    between atoms: C12_12  and  O2_14 
REMARK    5  A    between atoms: C16_20  and  N2_21 
ROOT
HETATM    1  C1  UNL     1      31.744   2.894  46.582  1.00  0.00     0.049 C 
HETATM    2  C2  UNL     1      32.993   3.579  47.028  1.00  0.00    -0.051 A 
HETATM    3  C3  UNL     1      34.259   3.205  46.976  1.00  0.00     0.008 A 
HETATM    4  C4  UNL     1      35.010   4.323  47.578  1.00  0.00     0.011 A 
HETATM    5  C5  UNL     1      34.160   5.274  47.943  1.00  0.00    -0.014 A 
HETATM    6  C6  UNL     1      32.763   4.902  47.624  1.00  0.00    -0.025 A 
HETATM    7  C7  UNL     1      32.188   5.979  48.130  1.00  0.00    -0.001 C 
HETATM    8  C8  UNL     1      32.975   7.175  48.602  1.00  0.00     0.098 C 
HETATM    9  C16 UNL     1      34.251   6.546  48.674  1.00  0.00     0.265 C 
ENDROOT
BRANCH   8  10
HETATM   10  C9  UNL     1      32.500   8.109  47.577  1.00  0.00     0.035 A 
HETATM   11  C10 UNL     1      32.897   8.378  46.372  1.00  0.00     0.016 A 
HETATM   12  S1  UNL     1      32.175   9.571  45.214  1.00  0.00    -0.103 SA
HETATM   13  C13 UNL     1      30.801  10.256  46.121  1.00  0.00     0.067 A 
HETATM   14  C14 UNL     1      30.609   9.807  47.334  1.00  0.00     0.097 A 
HETATM   15  N1  UNL     1      31.330   8.836  48.072  1.00  0.00    -0.362 N 
HETATM   16  C15 UNL     1      30.617   8.784  49.336  1.00  0.00     0.155 C 
BRANCH  11  17
HETATM   17  C11 UNL     1      33.966   7.838  45.592  1.00  0.00     0.158 C 
BRANCH  17  18
HETATM   18  C12 UNL     1      35.168   8.785  45.541  1.00  0.00     0.144 C 
HETATM   19  O1  UNL     1      35.461   9.237  46.681  1.00  0.00    -0.650 OA
BRANCH  18  20
HETATM   20  O2  UNL     1      36.212   9.531  45.082  1.00  0.00    -0.776 OA
HETATM   21  H10 UNL     1      36.588  10.294  45.648  1.00  0.00     0.167 HD
ENDBRANCH  18  20
ENDBRANCH  17  18
ENDBRANCH  11  17
ENDBRANCH   8  10
BRANCH   9  22
HETATM   22  N2  UNL     1      35.507   7.159  48.780  1.00  0.00     0.088 NA
HETATM   23  H17 UNL     1      35.648   7.791  49.588  1.00  0.00     0.313 HD
HETATM   24  H18 UNL     1      36.252   6.435  48.698  1.00  0.00     0.313 HD
ENDBRANCH   9  22
TORSDOF 5
ENDMDL
MODEL 9
REMARK VINA RESULT:      -5.7      9.527     11.585
REMARK  5 active torsions:
REMARK  status: ('A' for Active; 'I' for Inactive)
REMARK    1  A    between atoms: C8_8  and  C9_9 
REMARK    2  A    between atoms: C10_10  and  C11_11 
REMARK    3  A    between atoms: C11_11  and  C12_12 
REMARK    4  A    between atoms: C12_12  and  O2_14 
REMARK    5  A    between atoms: C16_20  and  N2_21 
ROOT
HETATM    1  C1  UNL     1      35.429   5.490  49.284  1.00  0.00     0.049 C 
HETATM    2  C2  UNL     1      34.784   5.378  47.943  1.00  0.00    -0.051 A 
HETATM    3  C3  UNL     1      34.621   4.343  47.138  1.00  0.00     0.008 A 
HETATM    4  C4  UNL     1      33.908   4.885  45.965  1.00  0.00     0.011 A 
HETATM    5  C5  UNL     1      33.696   6.182  46.143  1.00  0.00    -0.014 A 
HETATM    6  C6  UNL     1      34.233   6.645  47.442  1.00  0.00    -0.025 A 
HETATM    7  C7  UNL     1      33.922   7.921  47.302  1.00  0.00    -0.001 C 
HETATM    8  C8  UNL     1      33.064   8.430  46.172  1.00  0.00     0.098 C 
HETATM    9  C16 UNL     1      33.159   7.284  45.331  1.00  0.00     0.265 C 
ENDROOT
BRANCH   8  10
HETATM   10  C9  UNL     1      31.921   8.837  46.995  1.00  0.00     0.035 A 
HETATM   11  C10 UNL     1      30.884   8.202  47.446  1.00  0.00     0.016 A 
HETATM   12  S1  UNL     1      29.550   8.864  48.480  1.00  0.00    -0.103 SA
HETATM   13  C13 UNL     1      30.019  10.566  48.729  1.00  0.00     0.067 A 
HETATM   14  C14 UNL     1      31.128  10.964  48.163  1.00  0.00     0.097 A 
HETATM   15  N1  UNL     1      32.050  10.248  47.360  1.00  0.00    -0.362 N 
HETATM   16  C15 UNL     1      33.063  11.243  47.053  1.00  0.00     0.155 C 
BRANCH  11  17
HETATM   17  C11 UNL     1      30.480   6.839  47.301  1.00  0.00     0.158 C 
BRANCH  17  18
HETATM   18  C12 UNL     1      30.547   6.081  48.630  1.00  0.00     0.144 C 
HETATM   19  O1  UNL     1      29.632   5.219  48.727  1.00  0.00    -0.650 OA
BRANCH  18  20
HETATM   20  O2  UNL     1      30.938   5.667  49.867  1.00  0.00    -0.776 OA
HETATM   21  H10 UNL     1      31.899   5.355  50.027  1.00  0.00     0.167 HD
ENDBRANCH  18  20
ENDBRANCH  17  18
ENDBRANCH  11  17
ENDBRANCH   8  10
BRANCH   9  22
HETATM   22  N2  UNL     1      32.364   6.962  44.223  1.00  0.00     0.088 NA
HETATM   23  H17 UNL     1      32.286   7.682  43.483  1.00  0.00     0.313 HD
HETATM   24  H18 UNL     1      32.648   6.030  43.853  1.00  0.00     0.313 HD
ENDBRANCH   9  22
TORSDOF 5
ENDMDL
