MODEL 1
REMARK VINA RESULT:      -7.7      0.000      0.000
REMARK  5 active torsions:
REMARK  status: ('A' for Active; 'I' for Inactive)
REMARK    1  A    between atoms: C2_2  and  C18_25 
REMARK    2  A    between atoms: C3_3  and  N1_4 
REMARK    3  A    between atoms: N1_4  and  C4_5 
REMARK    4  A    between atoms: C8_11  and  O1_12 
REMARK    5  A    between atoms: O1_12  and  C9_13 
ROOT
HETATM    1  C4  UNL     1      25.079   2.133  51.858  1.00  0.00     0.144 A 
HETATM    2  N2  UNL     1      25.452   3.070  50.960  1.00  0.00    -0.223 NA
HETATM    3  C5  UNL     1      24.601   3.396  49.991  1.00  0.00     0.236 A 
HETATM    4  N3  UNL     1      23.382   2.790  49.916  1.00  0.00    -0.241 NA
HETATM    5  C6  UNL     1      23.002   1.862  50.797  1.00  0.00     0.077 A 
HETATM    6  C7  UNL     1      21.765   1.272  50.691  1.00  0.00     0.072 A 
HETATM    7  C8  UNL     1      21.316   0.309  51.570  1.00  0.00     0.107 A 
HETATM    8  C13 UNL     1      22.194  -0.052  52.602  1.00  0.00     0.136 A 
HETATM    9  C14 UNL     1      23.451   0.542  52.715  1.00  0.00     0.121 A 
HETATM   10  C15 UNL     1      23.855   1.499  51.813  1.00  0.00     0.075 A 
HETATM   11  O3  UNL     1      24.322   0.196  53.724  1.00  0.00    -0.345 OA
HETATM   12  C16 UNL     1      24.041  -0.965  54.516  1.00  0.00     0.202 C 
HETATM   13  C17 UNL     1      22.541  -0.938  54.805  1.00  0.00     0.202 C 
HETATM   14  O4  UNL     1      21.862  -1.015  53.558  1.00  0.00    -0.344 OA
ENDROOT
BRANCH   1  15
HETATM   15  N1  UNL     1      26.000   1.799  52.883  1.00  0.00    -0.350 N 
HETATM   16  H5  UNL     1      25.407   1.373  53.646  1.00  0.00     0.166 HD
BRANCH  15  17
HETATM   17  C3  UNL     1      27.367   1.812  53.268  1.00  0.00     0.093 C 
HETATM   18  C2  UNL     1      28.023   0.666  53.322  1.00  0.00    -0.055 C 
HETATM   19  C1  UNL     1      27.550  -0.709  53.033  1.00  0.00     0.046 C 
BRANCH  18  20
HETATM   20  C18 UNL     1      29.444   0.505  53.703  1.00  0.00     0.149 C 
HETATM   21 CL1  UNL     1      29.995  -1.171  53.691  1.00  0.00    -0.126 Cl
ENDBRANCH  18  20
ENDBRANCH  15  17
ENDBRANCH   1  15
BRANCH   7  22
HETATM   22  O1  UNL     1      20.106  -0.357  51.575  1.00  0.00    -0.341 OA
BRANCH  22  23
HETATM   23  C9  UNL     1      18.928   0.085  52.207  1.00  0.00     0.154 C 
HETATM   24  C10 UNL     1      17.722  -0.027  51.263  1.00  0.00     0.061 C 
HETATM   25  C11 UNL     1      16.617  -0.257  52.256  1.00  0.00     0.170 C 
HETATM   26  O2  UNL     1      17.140  -0.935  53.326  1.00  0.00    -0.389 OA
HETATM   27  C12 UNL     1      18.506  -0.917  53.259  1.00  0.00     0.200 C 
ENDBRANCH  22  23
ENDBRANCH   7  22
TORSDOF 5
ENDMDL
MODEL 2
REMARK VINA RESULT:      -7.7      1.903      3.447
REMARK  5 active torsions:
REMARK  status: ('A' for Active; 'I' for Inactive)
REMARK    1  A    between atoms: C2_2  and  C18_25 
REMARK    2  A    between atoms: C3_3  and  N1_4 
REMARK    3  A    between atoms: N1_4  and  C4_5 
REMARK    4  A    between atoms: C8_11  and  O1_12 
REMARK    5  A    between atoms: O1_12  and  C9_13 
ROOT
HETATM    1  C4  UNL     1      24.154  -0.278  53.888  1.00  0.00     0.144 A 
HETATM    2  N2  UNL     1      24.391  -1.021  54.991  1.00  0.00    -0.223 NA
HETATM    3  C5  UNL     1      23.355  -1.564  55.626  1.00  0.00     0.236 A 
HETATM    4  N3  UNL     1      22.087  -1.366  55.164  1.00  0.00    -0.241 NA
HETATM    5  C6  UNL     1      21.841  -0.633  54.075  1.00  0.00     0.077 A 
HETATM    6  C7  UNL     1      20.550  -0.455  53.638  1.00  0.00     0.072 A 
HETATM    7  C8  UNL     1      20.233   0.289  52.522  1.00  0.00     0.107 A 
HETATM    8  C13 UNL     1      21.306   0.871  51.833  1.00  0.00     0.136 A 
HETATM    9  C14 UNL     1      22.619   0.695  52.272  1.00  0.00     0.121 A 
HETATM   10  C15 UNL     1      22.886  -0.057  53.392  1.00  0.00     0.075 A 
HETATM   11  O3  UNL     1      23.682   1.262  51.604  1.00  0.00    -0.345 OA
HETATM   12  C16 UNL     1      23.424   2.249  50.599  1.00  0.00     0.202 C 
HETATM   13  C17 UNL     1      22.226   1.746  49.797  1.00  0.00     0.202 C 
HETATM   14  O4  UNL     1      21.122   1.649  50.688  1.00  0.00    -0.344 OA
ENDROOT
BRANCH   1  15
HETATM   15  N1  UNL     1      25.271   0.292  53.226  1.00  0.00    -0.350 N 
HETATM   16  H5  UNL     1      25.012   0.274  52.203  1.00  0.00     0.166 HD
BRANCH  15  17
HETATM   17  C3  UNL     1      26.561   0.861  53.399  1.00  0.00     0.093 C 
HETATM   18  C2  UNL     1      27.620   0.076  53.300  1.00  0.00    -0.055 C 
HETATM   19  C1  UNL     1      27.696  -1.379  53.025  1.00  0.00     0.046 C 
BRANCH  18  20
HETATM   20  C18 UNL     1      29.027   0.506  53.452  1.00  0.00     0.149 C 
HETATM   21 CL1  UNL     1      30.164  -0.834  53.617  1.00  0.00    -0.126 Cl
ENDBRANCH  18  20
ENDBRANCH  15  17
ENDBRANCH   1  15
BRANCH   7  22
HETATM   22  O1  UNL     1      18.988   0.543  51.981  1.00  0.00    -0.341 OA
BRANCH  22  23
HETATM   23  C9  UNL     1      18.128  -0.416  51.412  1.00  0.00     0.154 C 
HETATM   24  C10 UNL     1      16.927  -0.690  52.329  1.00  0.00     0.061 C 
HETATM   25  C11 UNL     1      15.883  -1.057  51.312  1.00  0.00     0.170 C 
HETATM   26  O2  UNL     1      16.148  -0.363  50.160  1.00  0.00    -0.389 OA
HETATM   27  C12 UNL     1      17.398   0.187  50.233  1.00  0.00     0.200 C 
ENDBRANCH  22  23
ENDBRANCH   7  22
TORSDOF 5
ENDMDL
MODEL 3
REMARK VINA RESULT:      -7.7      1.900      2.166
REMARK  5 active torsions:
REMARK  status: ('A' for Active; 'I' for Inactive)
REMARK    1  A    between atoms: C2_2  and  C18_25 
REMARK    2  A    between atoms: C3_3  and  N1_4 
REMARK    3  A    between atoms: N1_4  and  C4_5 
REMARK    4  A    between atoms: C8_11  and  O1_12 
REMARK    5  A    between atoms: O1_12  and  C9_13 
ROOT
HETATM    1  C4  UNL     1      26.045   2.308  51.499  1.00  0.00     0.144 A 
HETATM    2  N2  UNL     1      26.848   3.102  50.759  1.00  0.00    -0.223 NA
HETATM    3  C5  UNL     1      26.323   3.746  49.721  1.00  0.00     0.236 A 
HETATM    4  N3  UNL     1      25.002   3.599  49.420  1.00  0.00    -0.241 NA
HETATM    5  C6  UNL     1      24.198   2.817  50.143  1.00  0.00     0.077 A 
HETATM    6  C7  UNL     1      22.869   2.693  49.811  1.00  0.00     0.072 A 
HETATM    7  C8  UNL     1      21.990   1.902  50.519  1.00  0.00     0.107 A 
HETATM    8  C13 UNL     1      22.518   1.212  51.619  1.00  0.00     0.136 A 
HETATM    9  C14 UNL     1      23.865   1.333  51.962  1.00  0.00     0.121 A 
HETATM   10  C15 UNL     1      24.704   2.135  51.225  1.00  0.00     0.075 A 
HETATM   11  O3  UNL     1      24.395   0.661  53.041  1.00  0.00    -0.345 OA
HETATM   12  C16 UNL     1      23.621  -0.370  53.666  1.00  0.00     0.202 C 
HETATM   13  C17 UNL     1      22.189   0.156  53.749  1.00  0.00     0.202 C 
HETATM   14  O4  UNL     1      21.735   0.377  52.420  1.00  0.00    -0.344 OA
ENDROOT
BRANCH   1  15
HETATM   15  N1  UNL     1      26.624   1.629  52.601  1.00  0.00    -0.350 N 
HETATM   16  H5  UNL     1      25.811   1.418  53.241  1.00  0.00     0.166 HD
BRANCH  15  17
HETATM   17  C3  UNL     1      27.833   1.137  53.160  1.00  0.00     0.093 C 
HETATM   18  C2  UNL     1      28.032  -0.170  53.195  1.00  0.00    -0.055 C 
HETATM   19  C1  UNL     1      27.158  -1.272  52.725  1.00  0.00     0.046 C 
BRANCH  18  20
HETATM   20  C18 UNL     1      29.231  -0.844  53.740  1.00  0.00     0.149 C 
HETATM   21 CL1  UNL     1      29.333  -2.555  53.321  1.00  0.00    -0.126 Cl
ENDBRANCH  18  20
ENDBRANCH  15  17
ENDBRANCH   1  15
BRANCH   7  22
HETATM   22  O1  UNL     1      20.644   1.692  50.291  1.00  0.00    -0.341 OA
BRANCH  22  23
HETATM   23  C9  UNL     1      19.638   2.676  50.350  1.00  0.00     0.154 C 
HETATM   24  C10 UNL     1      18.244   2.035  50.400  1.00  0.00     0.061 C 
HETATM   25  C11 UNL     1      17.491   3.077  51.179  1.00  0.00     0.170 C 
HETATM   26  O2  UNL     1      18.367   3.679  52.044  1.00  0.00    -0.389 OA
HETATM   27  C12 UNL     1      19.650   3.338  51.710  1.00  0.00     0.200 C 
ENDBRANCH  22  23
ENDBRANCH   7  22
TORSDOF 5
ENDMDL
MODEL 4
REMARK VINA RESULT:      -7.6      3.797      8.052
REMARK  5 active torsions:
REMARK  status: ('A' for Active; 'I' for Inactive)
REMARK    1  A    between atoms: C2_2  and  C18_25 
REMARK    2  A    between atoms: C3_3  and  N1_4 
REMARK    3  A    between atoms: N1_4  and  C4_5 
REMARK    4  A    between atoms: C8_11  and  O1_12 
REMARK    5  A    between atoms: O1_12  and  C9_13 
ROOT
HETATM    1  C4  UNL     1      21.233   0.287  52.892  1.00  0.00     0.144 A 
HETATM    2  N2  UNL     1      20.564  -0.542  53.722  1.00  0.00    -0.223 NA
HETATM    3  C5  UNL     1      21.262  -1.281  54.580  1.00  0.00     0.236 A 
HETATM    4  N3  UNL     1      22.622  -1.195  54.611  1.00  0.00    -0.241 NA
HETATM    5  C6  UNL     1      23.294  -0.380  53.795  1.00  0.00     0.077 A 
HETATM    6  C7  UNL     1      24.666  -0.318  53.854  1.00  0.00     0.072 A 
HETATM    7  C8  UNL     1      25.416   0.504  53.040  1.00  0.00     0.107 A 
HETATM    8  C13 UNL     1      24.704   1.294  52.126  1.00  0.00     0.136 A 
HETATM    9  C14 UNL     1      23.312   1.236  52.061  1.00  0.00     0.121 A 
HETATM   10  C15 UNL     1      22.607   0.400  52.895  1.00  0.00     0.075 A 
HETATM   11  O3  UNL     1      22.602   2.008  51.168  1.00  0.00    -0.345 OA
HETATM   12  C16 UNL     1      23.308   2.689  50.123  1.00  0.00     0.202 C 
HETATM   13  C17 UNL     1      24.573   3.261  50.758  1.00  0.00     0.202 C 
HETATM   14  O4  UNL     1      25.343   2.169  51.244  1.00  0.00    -0.344 OA
ENDROOT
BRANCH   1  15
HETATM   15  N1  UNL     1      20.471   1.066  51.984  1.00  0.00    -0.350 N 
HETATM   16  H5  UNL     1      21.021   1.039  51.083  1.00  0.00     0.166 HD
BRANCH  15  17
HETATM   17  C3  UNL     1      19.293   1.842  51.821  1.00  0.00     0.093 C 
HETATM   18  C2  UNL     1      18.170   1.230  51.485  1.00  0.00    -0.055 C 
HETATM   19  C1  UNL     1      17.916  -0.209  51.234  1.00  0.00     0.046 C 
BRANCH  18  20
HETATM   20  C18 UNL     1      16.861   1.887  51.276  1.00  0.00     0.149 C 
HETATM   21 CL1  UNL     1      16.829   3.577  51.785  1.00  0.00    -0.126 Cl
ENDBRANCH  18  20
ENDBRANCH  15  17
ENDBRANCH   1  15
BRANCH   7  22
HETATM   22  O1  UNL     1      26.787   0.658  52.998  1.00  0.00    -0.341 OA
BRANCH  22  23
HETATM   23  C9  UNL     1      27.722  -0.107  53.723  1.00  0.00     0.154 C 
HETATM   24  C10 UNL     1      28.056  -1.411  52.985  1.00  0.00     0.061 C 
HETATM   25  C11 UNL     1      29.467  -1.636  53.450  1.00  0.00     0.170 C 
HETATM   26  O2  UNL     1      30.044  -0.412  53.669  1.00  0.00    -0.389 OA
HETATM   27  C12 UNL     1      29.079   0.558  53.667  1.00  0.00     0.200 C 
ENDBRANCH  22  23
ENDBRANCH   7  22
TORSDOF 5
ENDMDL
MODEL 5
REMARK VINA RESULT:      -7.2      3.605      7.245
REMARK  5 active torsions:
REMARK  status: ('A' for Active; 'I' for Inactive)
REMARK    1  A    between atoms: C2_2  and  C18_25 
REMARK    2  A    between atoms: C3_3  and  N1_4 
REMARK    3  A    between atoms: N1_4  and  C4_5 
REMARK    4  A    between atoms: C8_11  and  O1_12 
REMARK    5  A    between atoms: O1_12  and  C9_13 
ROOT
HETATM    1  C4  UNL     1      24.535   2.852  50.116  1.00  0.00     0.144 A 
HETATM    2  N2  UNL     1      25.146   3.644  49.209  1.00  0.00    -0.223 NA
HETATM    3  C5  UNL     1      26.425   3.958  49.399  1.00  0.00     0.236 A 
HETATM    4  N3  UNL     1      27.092   3.485  50.489  1.00  0.00    -0.241 NA
HETATM    5  C6  UNL     1      26.499   2.702  51.393  1.00  0.00     0.077 A 
HETATM    6  C7  UNL     1      27.203   2.243  52.481  1.00  0.00     0.072 A 
HETATM    7  C8  UNL     1      26.646   1.431  53.446  1.00  0.00     0.107 A 
HETATM    8  C13 UNL     1      25.299   1.085  53.269  1.00  0.00     0.136 A 
HETATM    9  C14 UNL     1      24.579   1.548  52.169  1.00  0.00     0.121 A 
HETATM   10  C15 UNL     1      25.178   2.356  51.230  1.00  0.00     0.075 A 
HETATM   11  O3  UNL     1      23.255   1.214  51.984  1.00  0.00    -0.345 OA
HETATM   12  C16 UNL     1      22.538   0.596  53.059  1.00  0.00     0.202 C 
HETATM   13  C17 UNL     1      23.485  -0.432  53.674  1.00  0.00     0.202 C 
HETATM   14  O4  UNL     1      24.616   0.270  54.174  1.00  0.00    -0.344 OA
ENDROOT
BRANCH   1  15
HETATM   15  N1  UNL     1      23.171   2.530  49.896  1.00  0.00    -0.350 N 
HETATM   16  H5  UNL     1      23.060   1.559  50.295  1.00  0.00     0.166 HD
BRANCH  15  17
HETATM   17  C3  UNL     1      21.937   2.992  49.366  1.00  0.00     0.093 C 
HETATM   18  C2  UNL     1      20.931   2.140  49.267  1.00  0.00    -0.055 C 
HETATM   19  C1  UNL     1      20.866   0.705  49.633  1.00  0.00     0.046 C 
BRANCH  18  20
HETATM   20  C18 UNL     1      19.585   2.458  48.740  1.00  0.00     0.149 C 
HETATM   21 CL1  UNL     1      19.613   3.400  47.248  1.00  0.00    -0.126 Cl
ENDBRANCH  18  20
ENDBRANCH  15  17
ENDBRANCH   1  15
BRANCH   7  22
HETATM   22  O1  UNL     1      27.239   0.906  54.578  1.00  0.00    -0.341 OA
BRANCH  22  23
HETATM   23  C9  UNL     1      28.234  -0.091  54.596  1.00  0.00     0.154 C 
HETATM   24  C10 UNL     1      28.034  -1.087  53.445  1.00  0.00     0.061 C 
HETATM   25  C11 UNL     1      29.456  -1.508  53.197  1.00  0.00     0.170 C 
HETATM   26  O2  UNL     1      30.272  -0.448  53.497  1.00  0.00    -0.389 OA
HETATM   27  C12 UNL     1      29.559   0.503  54.174  1.00  0.00     0.200 C 
ENDBRANCH  22  23
ENDBRANCH   7  22
TORSDOF 5
ENDMDL
MODEL 6
REMARK VINA RESULT:      -7.2      2.977      4.780
REMARK  5 active torsions:
REMARK  status: ('A' for Active; 'I' for Inactive)
REMARK    1  A    between atoms: C2_2  and  C18_25 
REMARK    2  A    between atoms: C3_3  and  N1_4 
REMARK    3  A    between atoms: N1_4  and  C4_5 
REMARK    4  A    between atoms: C8_11  and  O1_12 
REMARK    5  A    between atoms: O1_12  and  C9_13 
ROOT
HETATM    1  C4  UNL     1      26.214   2.831  50.867  1.00  0.00     0.144 A 
HETATM    2  N2  UNL     1      27.273   2.546  51.655  1.00  0.00    -0.223 NA
HETATM    3  C5  UNL     1      27.056   1.930  52.814  1.00  0.00     0.236 A 
HETATM    4  N3  UNL     1      25.787   1.598  53.187  1.00  0.00    -0.241 NA
HETATM    5  C6  UNL     1      24.732   1.874  52.416  1.00  0.00     0.077 A 
HETATM    6  C7  UNL     1      23.467   1.524  52.824  1.00  0.00     0.072 A 
HETATM    7  C8  UNL     1      22.339   1.781  52.074  1.00  0.00     0.107 A 
HETATM    8  C13 UNL     1      22.541   2.430  50.847  1.00  0.00     0.136 A 
HETATM    9  C14 UNL     1      23.822   2.788  50.428  1.00  0.00     0.121 A 
HETATM   10  C15 UNL     1      24.917   2.510  51.211  1.00  0.00     0.075 A 
HETATM   11  O3  UNL     1      24.032   3.425  49.224  1.00  0.00    -0.345 OA
HETATM   12  C16 UNL     1      22.907   3.953  48.512  1.00  0.00     0.202 C 
HETATM   13  C17 UNL     1      21.801   2.906  48.615  1.00  0.00     0.202 C 
HETATM   14  O4  UNL     1      21.483   2.749  49.992  1.00  0.00    -0.344 OA
ENDROOT
BRANCH   1  15
HETATM   15  N1  UNL     1      26.466   3.489  49.637  1.00  0.00    -0.350 N 
HETATM   16  H5  UNL     1      25.631   3.255  49.034  1.00  0.00     0.166 HD
BRANCH  15  17
HETATM   17  C3  UNL     1      27.375   4.314  48.923  1.00  0.00     0.093 C 
HETATM   18  C2  UNL     1      27.076   5.591  48.755  1.00  0.00    -0.055 C 
HETATM   19  C1  UNL     1      25.886   6.351  49.207  1.00  0.00     0.046 C 
BRANCH  18  20
HETATM   20  C18 UNL     1      27.909   6.583  48.040  1.00  0.00     0.149 C 
HETATM   21 CL1  UNL     1      29.598   6.098  47.871  1.00  0.00    -0.126 Cl
ENDBRANCH  18  20
ENDBRANCH  15  17
ENDBRANCH   1  15
BRANCH   7  22
HETATM   22  O1  UNL     1      21.023   1.485  52.366  1.00  0.00    -0.341 OA
BRANCH  22  23
HETATM   23  C9  UNL     1      20.422   0.217  52.252  1.00  0.00     0.154 C 
HETATM   24  C10 UNL     1      19.807  -0.223  53.589  1.00  0.00     0.061 C 
HETATM   25  C11 UNL     1      18.676  -1.085  53.101  1.00  0.00     0.170 C 
HETATM   26  O2  UNL     1      18.248  -0.586  51.899  1.00  0.00    -0.389 OA
HETATM   27  C12 UNL     1      19.157   0.323  51.429  1.00  0.00     0.200 C 
ENDBRANCH  22  23
ENDBRANCH   7  22
TORSDOF 5
ENDMDL
MODEL 7
REMARK VINA RESULT:      -7.2      3.011      4.698
REMARK  5 active torsions:
REMARK  status: ('A' for Active; 'I' for Inactive)
REMARK    1  A    between atoms: C2_2  and  C18_25 
REMARK    2  A    between atoms: C3_3  and  N1_4 
REMARK    3  A    between atoms: N1_4  and  C4_5 
REMARK    4  A    between atoms: C8_11  and  O1_12 
REMARK    5  A    between atoms: O1_12  and  C9_13 
ROOT
HETATM    1  C4  UNL     1      25.048   4.360  49.600  1.00  0.00     0.144 A 
HETATM    2  N2  UNL     1      24.355   5.051  48.669  1.00  0.00    -0.223 NA
HETATM    3  C5  UNL     1      23.027   4.969  48.675  1.00  0.00     0.236 A 
HETATM    4  N3  UNL     1      22.391   4.199  49.604  1.00  0.00    -0.241 NA
HETATM    5  C6  UNL     1      23.066   3.512  50.529  1.00  0.00     0.077 A 
HETATM    6  C7  UNL     1      22.392   2.747  51.452  1.00  0.00     0.072 A 
HETATM    7  C8  UNL     1      23.032   2.016  52.430  1.00  0.00     0.107 A 
HETATM    8  C13 UNL     1      24.432   2.086  52.447  1.00  0.00     0.136 A 
HETATM    9  C14 UNL     1      25.122   2.860  51.513  1.00  0.00     0.121 A 
HETATM   10  C15 UNL     1      24.439   3.573  50.555  1.00  0.00     0.075 A 
HETATM   11  O3  UNL     1      26.497   2.937  51.520  1.00  0.00    -0.345 OA
HETATM   12  C16 UNL     1      27.240   2.018  52.329  1.00  0.00     0.202 C 
HETATM   13  C17 UNL     1      26.496   1.912  53.658  1.00  0.00     0.202 C 
HETATM   14  O4  UNL     1      25.200   1.394  53.385  1.00  0.00    -0.344 OA
ENDROOT
BRANCH   1  15
HETATM   15  N1  UNL     1      26.462   4.461  49.577  1.00  0.00    -0.350 N 
HETATM   16  H5  UNL     1      26.762   4.230  50.563  1.00  0.00     0.166 HD
BRANCH  15  17
HETATM   17  C3  UNL     1      27.596   4.741  48.768  1.00  0.00     0.093 C 
HETATM   18  C2  UNL     1      27.859   5.998  48.458  1.00  0.00    -0.055 C 
HETATM   19  C1  UNL     1      27.132   7.236  48.828  1.00  0.00     0.046 C 
BRANCH  18  20
HETATM   20  C18 UNL     1      28.995   6.460  47.629  1.00  0.00     0.149 C 
HETATM   21 CL1  UNL     1      30.436   5.452  47.780  1.00  0.00    -0.126 Cl
ENDBRANCH  18  20
ENDBRANCH  15  17
ENDBRANCH   1  15
BRANCH   7  22
HETATM   22  O1  UNL     1      22.477   1.214  53.408  1.00  0.00    -0.341 OA
BRANCH  22  23
HETATM   23  C9  UNL     1      21.951  -0.077  53.209  1.00  0.00     0.154 C 
HETATM   24  C10 UNL     1      22.154  -0.951  54.456  1.00  0.00     0.061 C 
HETATM   25  C11 UNL     1      20.967  -1.866  54.345  1.00  0.00     0.170 C 
HETATM   26  O2  UNL     1      19.950  -1.175  53.740  1.00  0.00    -0.389 OA
HETATM   27  C12 UNL     1      20.440  -0.017  53.199  1.00  0.00     0.200 C 
ENDBRANCH  22  23
ENDBRANCH   7  22
TORSDOF 5
ENDMDL
MODEL 8
REMARK VINA RESULT:      -7.1      3.108      4.204
REMARK  5 active torsions:
REMARK  status: ('A' for Active; 'I' for Inactive)
REMARK    1  A    between atoms: C2_2  and  C18_25 
REMARK    2  A    between atoms: C3_3  and  N1_4 
REMARK    3  A    between atoms: N1_4  and  C4_5 
REMARK    4  A    between atoms: C8_11  and  O1_12 
REMARK    5  A    between atoms: O1_12  and  C9_13 
ROOT
HETATM    1  C4  UNL     1      23.179  -0.333  53.770  1.00  0.00     0.144 A 
HETATM    2  N2  UNL     1      22.782  -1.462  54.397  1.00  0.00    -0.223 NA
HETATM    3  C5  UNL     1      21.481  -1.654  54.596  1.00  0.00     0.236 A 
HETATM    4  N3  UNL     1      20.577  -0.724  54.174  1.00  0.00    -0.241 NA
HETATM    5  C6  UNL     1      20.958   0.396  53.554  1.00  0.00     0.077 A 
HETATM    6  C7  UNL     1      20.019   1.312  53.142  1.00  0.00     0.072 A 
HETATM    7  C8  UNL     1      20.349   2.485  52.497  1.00  0.00     0.107 A 
HETATM    8  C13 UNL     1      21.715   2.711  52.273  1.00  0.00     0.136 A 
HETATM    9  C14 UNL     1      22.672   1.786  52.690  1.00  0.00     0.121 A 
HETATM   10  C15 UNL     1      22.294   0.629  53.329  1.00  0.00     0.075 A 
HETATM   11  O3  UNL     1      24.016   1.997  52.475  1.00  0.00    -0.345 OA
HETATM   12  C16 UNL     1      24.457   3.292  52.049  1.00  0.00     0.202 C 
HETATM   13  C17 UNL     1      23.454   3.766  51.000  1.00  0.00     0.202 C 
HETATM   14  O4  UNL     1      22.183   3.860  51.631  1.00  0.00    -0.344 OA
ENDROOT
BRANCH   1  15
HETATM   15  N1  UNL     1      24.570  -0.147  53.567  1.00  0.00    -0.350 N 
HETATM   16  H5  UNL     1      24.637   0.400  52.667  1.00  0.00     0.166 HD
BRANCH  15  17
HETATM   17  C3  UNL     1      25.866  -0.401  54.089  1.00  0.00     0.093 C 
HETATM   18  C2  UNL     1      26.914  -0.209  53.307  1.00  0.00    -0.055 C 
HETATM   19  C1  UNL     1      26.972   0.252  51.899  1.00  0.00     0.046 C 
BRANCH  18  20
HETATM   20  C18 UNL     1      28.326  -0.425  53.692  1.00  0.00     0.149 C 
HETATM   21 CL1  UNL     1      28.962  -1.995  53.199  1.00  0.00    -0.126 Cl
ENDBRANCH  18  20
ENDBRANCH  15  17
ENDBRANCH   1  15
BRANCH   7  22
HETATM   22  O1  UNL     1      19.511   3.480  52.035  1.00  0.00    -0.341 OA
BRANCH  22  23
HETATM   23  C9  UNL     1      18.523   3.327  51.043  1.00  0.00     0.154 C 
HETATM   24  C10 UNL     1      17.126   3.623  51.608  1.00  0.00     0.061 C 
HETATM   25  C11 UNL     1      16.434   4.133  50.375  1.00  0.00     0.170 C 
HETATM   26  O2  UNL     1      17.368   4.756  49.589  1.00  0.00    -0.389 OA
HETATM   27  C12 UNL     1      18.624   4.456  50.043  1.00  0.00     0.200 C 
ENDBRANCH  22  23
ENDBRANCH   7  22
TORSDOF 5
ENDMDL
MODEL 9
REMARK VINA RESULT:      -7.1      4.364      7.965
REMARK  5 active torsions:
REMARK  status: ('A' for Active; 'I' for Inactive)
REMARK    1  A    between atoms: C2_2  and  C18_25 
REMARK    2  A    between atoms: C3_3  and  N1_4 
REMARK    3  A    between atoms: N1_4  and  C4_5 
REMARK    4  A    between atoms: C8_11  and  O1_12 
REMARK    5  A    between atoms: O1_12  and  C9_13 
ROOT
HETATM    1  C4  UNL     1      24.195   1.316  52.564  1.00  0.00     0.144 A 
HETATM    2  N2  UNL     1      25.013   0.343  53.021  1.00  0.00    -0.223 NA
HETATM    3  C5  UNL     1      26.259   0.290  52.558  1.00  0.00     0.236 A 
HETATM    4  N3  UNL     1      26.689   1.204  51.641  1.00  0.00    -0.241 NA
HETATM    5  C6  UNL     1      25.890   2.170  51.182  1.00  0.00     0.077 A 
HETATM    6  C7  UNL     1      26.357   3.075  50.259  1.00  0.00     0.072 A 
HETATM    7  C8  UNL     1      25.582   4.094  49.748  1.00  0.00     0.107 A 
HETATM    8  C13 UNL     1      24.264   4.172  50.221  1.00  0.00     0.136 A 
HETATM    9  C14 UNL     1      23.783   3.257  51.157  1.00  0.00     0.121 A 
HETATM   10  C15 UNL     1      24.595   2.257  51.638  1.00  0.00     0.075 A 
HETATM   11  O3  UNL     1      22.491   3.323  51.630  1.00  0.00    -0.345 OA
HETATM   12  C16 UNL     1      21.553   4.181  50.968  1.00  0.00     0.202 C 
HETATM   13  C17 UNL     1      22.298   5.477  50.657  1.00  0.00     0.202 C 
HETATM   14  O4  UNL     1      23.374   5.156  49.784  1.00  0.00    -0.344 OA
ENDROOT
BRANCH   1  15
HETATM   15  N1  UNL     1      22.871   1.354  53.070  1.00  0.00    -0.350 N 
HETATM   16  H5  UNL     1      22.566   2.357  52.942  1.00  0.00     0.166 HD
BRANCH  15  17
HETATM   17  C3  UNL     1      21.828   0.592  53.660  1.00  0.00     0.093 C 
HETATM   18  C2  UNL     1      20.833   0.176  52.895  1.00  0.00    -0.055 C 
HETATM   19  C1  UNL     1      20.606   0.382  51.445  1.00  0.00     0.046 C 
BRANCH  18  20
HETATM   20  C18 UNL     1      19.675  -0.624  53.351  1.00  0.00     0.149 C 
HETATM   21 CL1  UNL     1      18.319  -0.613  52.221  1.00  0.00    -0.126 Cl
ENDBRANCH  18  20
ENDBRANCH  15  17
ENDBRANCH   1  15
BRANCH   7  22
HETATM   22  O1  UNL     1      25.927   5.060  48.824  1.00  0.00    -0.341 OA
BRANCH  22  23
HETATM   23  C9  UNL     1      26.997   5.967  48.946  1.00  0.00     0.154 C 
HETATM   24  C10 UNL     1      28.286   5.380  48.352  1.00  0.00     0.061 C 
HETATM   25  C11 UNL     1      28.980   6.636  47.906  1.00  0.00     0.170 C 
HETATM   26  O2  UNL     1      28.022   7.551  47.556  1.00  0.00    -0.389 OA
HETATM   27  C12 UNL     1      26.797   7.124  47.992  1.00  0.00     0.200 C 
ENDBRANCH  22  23
ENDBRANCH   7  22
TORSDOF 5
ENDMDL
