MODEL 1
REMARK VINA RESULT:      -8.9      0.000      0.000
REMARK  2 active torsions:
REMARK  status: ('A' for Active; 'I' for Inactive)
REMARK    1  A    between atoms: C5_6  and  N1_7 
REMARK    2  A    between atoms: N1_7  and  C6_8 
ROOT
HETATM    1  C6  UNL     1      26.281   2.280  52.188  1.00  0.00     0.238 A 
HETATM    2  N2  UNL     1      27.545   1.765  52.634  1.00  0.00    -0.358 N 
HETATM    3  C7  UNL     1      27.610   0.615  53.508  1.00  0.00     0.207 A 
HETATM    4  N3  UNL     1      26.586  -0.043  53.961  1.00  0.00    -0.218 NA
HETATM    5  C8  UNL     1      25.293   0.405  53.563  1.00  0.00     0.197 A 
HETATM    6  C9  UNL     1      25.214   1.457  52.762  1.00  0.00     0.102 A 
HETATM    7  N4  UNL     1      23.962   1.999  52.294  1.00  0.00    -0.382 N 
HETATM    8  C10 UNL     1      22.606   1.565  52.179  1.00  0.00     0.161 C 
HETATM    9  C11 UNL     1      22.237   0.407  53.002  1.00  0.00    -0.005 A 
HETATM   10  C12 UNL     1      20.870   0.231  52.814  1.00  0.00     0.030 A 
HETATM   11  C13 UNL     1      20.205  -0.808  53.472  1.00  0.00     0.011 A 
HETATM   12 BR2  UNL     1      18.329  -1.106  53.258  1.00  0.00    -0.051 Br
HETATM   13  C14 UNL     1      20.922  -1.637  54.296  1.00  0.00     0.022 A 
HETATM   14  C15 UNL     1      22.278  -1.469  54.488  1.00  0.00     0.039 A 
HETATM   15  C16 UNL     1      22.928  -0.444  53.837  1.00  0.00     0.086 A 
HETATM   16  O1  UNL     1      24.288  -0.379  54.111  1.00  0.00    -0.290 OA
HETATM   17  H6  UNL     1      28.522   2.070  52.444  1.00  0.00     0.162 HD
HETATM   18  H8  UNL     1      24.011   2.995  51.922  1.00  0.00     0.160 HD
ENDROOT
BRANCH   1  19
HETATM   19  N1  UNL     1      26.158   2.533  50.792  1.00  0.00    -0.364 N 
HETATM   20  H4  UNL     1      26.014   1.679  50.210  1.00  0.00     0.162 HD
BRANCH  19  21
HETATM   21  C5  UNL     1      26.213   3.799  50.154  1.00  0.00     0.031 A 
HETATM   22  C4  UNL     1      27.114   4.138  49.177  1.00  0.00     0.029 A 
HETATM   23  C3  UNL     1      27.161   5.371  48.556  1.00  0.00     0.004 A 
HETATM   24  C2  UNL     1      26.242   6.329  48.944  1.00  0.00     0.019 A 
HETATM   25  C1  UNL     1      25.316   6.037  49.923  1.00  0.00     0.013 A 
HETATM   26 BR1  UNL     1      24.048   7.366  50.455  1.00  0.00    -0.051 Br
HETATM   27  C17 UNL     1      25.321   4.792  50.501  1.00  0.00     0.048 A 
ENDBRANCH  19  21
ENDBRANCH   1  19
TORSDOF 2
ENDMDL
MODEL 2
REMARK VINA RESULT:      -8.9      1.367      1.634
REMARK  2 active torsions:
REMARK  status: ('A' for Active; 'I' for Inactive)
REMARK    1  A    between atoms: C5_6  and  N1_7 
REMARK    2  A    between atoms: N1_7  and  C6_8 
ROOT
HETATM    1  C6  UNL     1      25.751   2.731  51.783  1.00  0.00     0.238 A 
HETATM    2  N2  UNL     1      27.075   2.318  52.155  1.00  0.00    -0.358 N 
HETATM    3  C7  UNL     1      27.279   1.181  53.026  1.00  0.00     0.207 A 
HETATM    4  N3  UNL     1      26.336   0.448  53.538  1.00  0.00    -0.218 NA
HETATM    5  C8  UNL     1      24.992   0.794  53.216  1.00  0.00     0.197 A 
HETATM    6  C9  UNL     1      24.786   1.832  52.419  1.00  0.00     0.102 A 
HETATM    7  N4  UNL     1      23.472   2.274  52.025  1.00  0.00    -0.382 N 
HETATM    8  C10 UNL     1      22.148   1.736  51.989  1.00  0.00     0.161 C 
HETATM    9  C11 UNL     1      21.917   0.558  52.833  1.00  0.00    -0.005 A 
HETATM   10  C12 UNL     1      20.560   0.276  52.726  1.00  0.00     0.030 A 
HETATM   11  C13 UNL     1      20.016  -0.806  53.422  1.00  0.00     0.011 A 
HETATM   12 BR2  UNL     1      18.159  -1.249  53.318  1.00  0.00    -0.051 Br
HETATM   13  C14 UNL     1      20.841  -1.573  54.204  1.00  0.00     0.022 A 
HETATM   14  C15 UNL     1      22.189  -1.301  54.317  1.00  0.00     0.039 A 
HETATM   15  C16 UNL     1      22.720  -0.232  53.627  1.00  0.00     0.086 A 
HETATM   16  O1  UNL     1      24.083  -0.062  53.822  1.00  0.00    -0.290 OA
HETATM   17  H6  UNL     1      28.013   2.695  51.908  1.00  0.00     0.162 HD
HETATM   18  H8  UNL     1      23.422   3.268  51.649  1.00  0.00     0.160 HD
ENDROOT
BRANCH   1  19
HETATM   19  N1  UNL     1      25.528   2.966  50.397  1.00  0.00    -0.364 N 
HETATM   20  H4  UNL     1      25.108   2.160  49.885  1.00  0.00     0.162 HD
BRANCH  19  21
HETATM   21  C5  UNL     1      25.820   4.158  49.683  1.00  0.00     0.031 A 
HETATM   22  C4  UNL     1      24.893   5.113  49.354  1.00  0.00     0.029 A 
HETATM   23  C3  UNL     1      25.183   6.273  48.662  1.00  0.00     0.004 A 
HETATM   24  C2  UNL     1      26.492   6.487  48.274  1.00  0.00     0.019 A 
HETATM   25  C1  UNL     1      27.462   5.556  48.581  1.00  0.00     0.013 A 
HETATM   26 BR1  UNL     1      29.272   5.859  48.042  1.00  0.00    -0.051 Br
HETATM   27  C17 UNL     1      27.109   4.424  49.272  1.00  0.00     0.048 A 
ENDBRANCH  19  21
ENDBRANCH   1  19
TORSDOF 2
ENDMDL
MODEL 3
REMARK VINA RESULT:      -8.6      1.764      7.256
REMARK  2 active torsions:
REMARK  status: ('A' for Active; 'I' for Inactive)
REMARK    1  A    between atoms: C5_6  and  N1_7 
REMARK    2  A    between atoms: N1_7  and  C6_8 
ROOT
HETATM    1  C6  UNL     1      24.842   0.949  52.326  1.00  0.00     0.238 A 
HETATM    2  N2  UNL     1      25.996   0.483  53.043  1.00  0.00    -0.358 N 
HETATM    3  C7  UNL     1      27.296   1.076  52.821  1.00  0.00     0.207 A 
HETATM    4  N3  UNL     1      27.549   2.043  51.992  1.00  0.00    -0.218 NA
HETATM    5  C8  UNL     1      26.454   2.563  51.241  1.00  0.00     0.197 A 
HETATM    6  C9  UNL     1      25.255   2.033  51.433  1.00  0.00     0.102 A 
HETATM    7  N4  UNL     1      24.077   2.476  50.731  1.00  0.00    -0.382 N 
HETATM    8  C10 UNL     1      23.664   3.627  49.991  1.00  0.00     0.161 C 
HETATM    9  C11 UNL     1      24.746   4.492  49.505  1.00  0.00    -0.005 A 
HETATM   10  C12 UNL     1      24.129   5.471  48.735  1.00  0.00     0.030 A 
HETATM   11  C13 UNL     1      24.899   6.463  48.122  1.00  0.00     0.011 A 
HETATM   12 BR2  UNL     1      24.115   7.839  47.051  1.00  0.00    -0.051 Br
HETATM   13  C14 UNL     1      26.259   6.448  48.295  1.00  0.00     0.022 A 
HETATM   14  C15 UNL     1      26.880   5.479  49.057  1.00  0.00     0.039 A 
HETATM   15  C16 UNL     1      26.115   4.504  49.659  1.00  0.00     0.086 A 
HETATM   16  O1  UNL     1      26.854   3.589  50.397  1.00  0.00    -0.290 OA
HETATM   17  H6  UNL     1      26.110  -0.262  53.761  1.00  0.00     0.162 HD
HETATM   18  H8  UNL     1      23.261   1.793  50.739  1.00  0.00     0.160 HD
ENDROOT
BRANCH   1  19
HETATM   19  N1  UNL     1      23.682   1.223  53.105  1.00  0.00    -0.364 N 
HETATM   20  H4  UNL     1      23.620   2.203  53.455  1.00  0.00     0.162 HD
BRANCH  19  21
HETATM   21  C5  UNL     1      22.646   0.309  53.430  1.00  0.00     0.031 A 
HETATM   22  C4  UNL     1      22.780  -0.738  54.305  1.00  0.00     0.029 A 
HETATM   23  C3  UNL     1      21.767  -1.622  54.621  1.00  0.00     0.004 A 
HETATM   24  C2  UNL     1      20.537  -1.444  54.015  1.00  0.00     0.019 A 
HETATM   25  C1  UNL     1      20.352  -0.406  53.127  1.00  0.00     0.013 A 
HETATM   26 BR1  UNL     1      18.648  -0.164  52.293  1.00  0.00    -0.051 Br
HETATM   27  C17 UNL     1      21.399   0.440  52.856  1.00  0.00     0.048 A 
ENDBRANCH  19  21
ENDBRANCH   1  19
TORSDOF 2
ENDMDL
MODEL 4
REMARK VINA RESULT:      -8.5      3.788      7.352
REMARK  2 active torsions:
REMARK  status: ('A' for Active; 'I' for Inactive)
REMARK    1  A    between atoms: C5_6  and  N1_7 
REMARK    2  A    between atoms: N1_7  and  C6_8 
ROOT
HETATM    1  C6  UNL     1      21.425   2.003  52.602  1.00  0.00     0.238 A 
HETATM    2  N2  UNL     1      21.058   3.353  52.278  1.00  0.00    -0.358 N 
HETATM    3  C7  UNL     1      22.058   4.395  52.201  1.00  0.00     0.207 A 
HETATM    4  N3  UNL     1      23.330   4.231  52.407  1.00  0.00    -0.218 NA
HETATM    5  C8  UNL     1      23.776   2.917  52.733  1.00  0.00     0.197 A 
HETATM    6  C9  UNL     1      22.874   1.950  52.807  1.00  0.00     0.102 A 
HETATM    7  N4  UNL     1      23.206   0.585  53.129  1.00  0.00    -0.382 N 
HETATM    8  C10 UNL     1      24.375  -0.238  53.140  1.00  0.00     0.161 C 
HETATM    9  C11 UNL     1      25.656   0.477  53.136  1.00  0.00    -0.005 A 
HETATM   10  C12 UNL     1      26.636  -0.503  53.255  1.00  0.00     0.030 A 
HETATM   11  C13 UNL     1      27.985  -0.140  53.282  1.00  0.00     0.011 A 
HETATM   12 BR2  UNL     1      29.381  -1.436  53.442  1.00  0.00    -0.051 Br
HETATM   13  C14 UNL     1      28.316   1.188  53.191  1.00  0.00     0.022 A 
HETATM   14  C15 UNL     1      27.351   2.167  53.074  1.00  0.00     0.039 A 
HETATM   15  C16 UNL     1      26.022   1.803  53.047  1.00  0.00     0.086 A 
HETATM   16  O1  UNL     1      25.149   2.875  52.926  1.00  0.00    -0.290 OA
HETATM   17  H6  UNL     1      20.137   3.787  52.063  1.00  0.00     0.162 HD
HETATM   18  H8  UNL     1      22.390  -0.016  53.452  1.00  0.00     0.160 HD
ENDROOT
BRANCH   1  19
HETATM   19  N1  UNL     1      20.901   0.985  51.756  1.00  0.00    -0.364 N 
HETATM   20  H4  UNL     1      21.501   0.758  50.932  1.00  0.00     0.162 HD
BRANCH  19  21
HETATM   21  C5  UNL     1      19.681   0.282  51.932  1.00  0.00     0.031 A 
HETATM   22  C4  UNL     1      19.365  -0.460  53.041  1.00  0.00     0.029 A 
HETATM   23  C3  UNL     1      18.174  -1.139  53.209  1.00  0.00     0.004 A 
HETATM   24  C2  UNL     1      17.237  -1.068  52.195  1.00  0.00     0.019 A 
HETATM   25  C1  UNL     1      17.508  -0.334  51.059  1.00  0.00     0.013 A 
HETATM   26 BR1  UNL     1      16.207  -0.239  49.660  1.00  0.00    -0.051 Br
HETATM   27  C17 UNL     1      18.710   0.319  50.953  1.00  0.00     0.048 A 
ENDBRANCH  19  21
ENDBRANCH   1  19
TORSDOF 2
ENDMDL
MODEL 5
REMARK VINA RESULT:      -8.3      2.988      5.150
REMARK  2 active torsions:
REMARK  status: ('A' for Active; 'I' for Inactive)
REMARK    1  A    between atoms: C5_6  and  N1_7 
REMARK    2  A    between atoms: N1_7  and  C6_8 
ROOT
HETATM    1  C6  UNL     1      25.978   2.753  51.137  1.00  0.00     0.238 A 
HETATM    2  N2  UNL     1      26.399   3.949  50.463  1.00  0.00    -0.358 N 
HETATM    3  C7  UNL     1      25.468   4.719  49.668  1.00  0.00     0.207 A 
HETATM    4  N3  UNL     1      24.215   4.428  49.487  1.00  0.00    -0.218 NA
HETATM    5  C8  UNL     1      23.718   3.254  50.126  1.00  0.00     0.197 A 
HETATM    6  C9  UNL     1      24.557   2.537  50.858  1.00  0.00     0.102 A 
HETATM    7  N4  UNL     1      24.168   1.333  51.549  1.00  0.00    -0.382 N 
HETATM    8  C10 UNL     1      22.954   0.713  51.980  1.00  0.00     0.161 C 
HETATM    9  C11 UNL     1      21.729   1.193  51.330  1.00  0.00    -0.005 A 
HETATM   10  C12 UNL     1      20.704   0.391  51.817  1.00  0.00     0.030 A 
HETATM   11  C13 UNL     1      19.392   0.598  51.384  1.00  0.00     0.011 A 
HETATM   12 BR2  UNL     1      17.935  -0.468  52.014  1.00  0.00    -0.051 Br
HETATM   13  C14 UNL     1      19.142   1.597  50.478  1.00  0.00     0.022 A 
HETATM   14  C15 UNL     1      20.154   2.398  49.989  1.00  0.00     0.039 A 
HETATM   15  C16 UNL     1      21.446   2.189  50.420  1.00  0.00     0.086 A 
HETATM   16  O1  UNL     1      22.371   3.057  49.857  1.00  0.00    -0.290 OA
HETATM   17  H6  UNL     1      27.321   4.430  50.418  1.00  0.00     0.162 HD
HETATM   18  H8  UNL     1      24.971   0.698  51.839  1.00  0.00     0.160 HD
ENDROOT
BRANCH   1  19
HETATM   19  N1  UNL     1      26.345   2.638  52.508  1.00  0.00    -0.364 N 
HETATM   20  H4  UNL     1      25.766   3.212  53.159  1.00  0.00     0.162 HD
BRANCH  19  21
HETATM   21  C5  UNL     1      27.390   1.838  53.040  1.00  0.00     0.031 A 
HETATM   22  C4  UNL     1      28.435   2.322  53.784  1.00  0.00     0.029 A 
HETATM   23  C3  UNL     1      29.448   1.538  54.303  1.00  0.00     0.004 A 
HETATM   24  C2  UNL     1      29.409   0.179  54.056  1.00  0.00     0.019 A 
HETATM   25  C1  UNL     1      28.378  -0.356  53.313  1.00  0.00     0.013 A 
HETATM   26 BR1  UNL     1      28.328  -2.238  52.976  1.00  0.00    -0.051 Br
HETATM   27  C17 UNL     1      27.400   0.476  52.826  1.00  0.00     0.048 A 
ENDBRANCH  19  21
ENDBRANCH   1  19
TORSDOF 2
ENDMDL
MODEL 6
REMARK VINA RESULT:      -8.3      3.714      5.607
REMARK  2 active torsions:
REMARK  status: ('A' for Active; 'I' for Inactive)
REMARK    1  A    between atoms: C5_6  and  N1_7 
REMARK    2  A    between atoms: N1_7  and  C6_8 
ROOT
HETATM    1  C6  UNL     1      25.473   6.842  49.678  1.00  0.00     0.238 A 
HETATM    2  N2  UNL     1      24.402   7.752  49.971  1.00  0.00    -0.358 N 
HETATM    3  C7  UNL     1      23.258   7.326  50.747  1.00  0.00     0.207 A 
HETATM    4  N3  UNL     1      23.086   6.136  51.238  1.00  0.00    -0.218 NA
HETATM    5  C8  UNL     1      24.107   5.172  50.992  1.00  0.00     0.197 A 
HETATM    6  C9  UNL     1      25.162   5.545  50.283  1.00  0.00     0.102 A 
HETATM    7  N4  UNL     1      26.255   4.658  49.971  1.00  0.00    -0.382 N 
HETATM    8  C10 UNL     1      26.775   3.419  50.458  1.00  0.00     0.161 C 
HETATM    9  C11 UNL     1      25.854   2.618  51.272  1.00  0.00    -0.005 A 
HETATM   10  C12 UNL     1      26.524   1.430  51.541  1.00  0.00     0.030 A 
HETATM   11  C13 UNL     1      25.904   0.439  52.308  1.00  0.00     0.011 A 
HETATM   12 BR2  UNL     1      26.768  -1.216  52.715  1.00  0.00    -0.051 Br
HETATM   13  C14 UNL     1      24.637   0.663  52.781  1.00  0.00     0.022 A 
HETATM   14  C15 UNL     1      23.965   1.840  52.519  1.00  0.00     0.039 A 
HETATM   15  C16 UNL     1      24.581   2.813  51.762  1.00  0.00     0.086 A 
HETATM   16  O1  UNL     1      23.804   3.947  51.568  1.00  0.00    -0.290 OA
HETATM   17  H6  UNL     1      24.257   8.752  49.722  1.00  0.00     0.162 HD
HETATM   18  H8  UNL     1      26.874   4.970  49.164  1.00  0.00     0.160 HD
ENDROOT
BRANCH   1  19
HETATM   19  N1  UNL     1      26.793   7.317  49.925  1.00  0.00    -0.364 N 
HETATM   20  H4  UNL     1      27.077   7.297  50.928  1.00  0.00     0.162 HD
BRANCH  19  21
HETATM   21  C5  UNL     1      27.714   7.797  48.958  1.00  0.00     0.031 A 
HETATM   22  C4  UNL     1      27.877   7.259  47.707  1.00  0.00     0.029 A 
HETATM   23  C3  UNL     1      28.773   7.732  46.768  1.00  0.00     0.004 A 
HETATM   24  C2  UNL     1      29.558   8.818  47.109  1.00  0.00     0.019 A 
HETATM   25  C1  UNL     1      29.432   9.394  48.355  1.00  0.00     0.013 A 
HETATM   26 BR1  UNL     1      30.520  10.896  48.820  1.00  0.00    -0.051 Br
HETATM   27  C17 UNL     1      28.521   8.877  49.243  1.00  0.00     0.048 A 
ENDBRANCH  19  21
ENDBRANCH   1  19
TORSDOF 2
ENDMDL
MODEL 7
REMARK VINA RESULT:      -8.2      3.720      5.138
REMARK  2 active torsions:
REMARK  status: ('A' for Active; 'I' for Inactive)
REMARK    1  A    between atoms: C5_6  and  N1_7 
REMARK    2  A    between atoms: N1_7  and  C6_8 
ROOT
HETATM    1  C6  UNL     1      23.570   0.073  53.979  1.00  0.00     0.238 A 
HETATM    2  N2  UNL     1      23.801  -0.934  54.976  1.00  0.00    -0.358 N 
HETATM    3  C7  UNL     1      22.736  -1.818  55.398  1.00  0.00     0.207 A 
HETATM    4  N3  UNL     1      21.520  -1.798  54.943  1.00  0.00    -0.218 NA
HETATM    5  C8  UNL     1      21.209  -0.827  53.948  1.00  0.00     0.197 A 
HETATM    6  C9  UNL     1      22.172  -0.009  53.549  1.00  0.00     0.102 A 
HETATM    7  N4  UNL     1      21.976   1.012  52.550  1.00  0.00    -0.382 N 
HETATM    8  C10 UNL     1      21.032   1.304  51.517  1.00  0.00     0.161 C 
HETATM    9  C11 UNL     1      19.737   0.624  51.628  1.00  0.00    -0.005 A 
HETATM   10  C12 UNL     1      18.954   1.131  50.596  1.00  0.00     0.030 A 
HETATM   11  C13 UNL     1      17.644   0.676  50.428  1.00  0.00     0.011 A 
HETATM   12 BR2  UNL     1      16.515   1.331  49.031  1.00  0.00    -0.051 Br
HETATM   13  C14 UNL     1      17.153  -0.268  51.293  1.00  0.00     0.022 A 
HETATM   14  C15 UNL     1      17.922  -0.776  52.320  1.00  0.00     0.039 A 
HETATM   15  C16 UNL     1      19.214  -0.325  52.481  1.00  0.00     0.086 A 
HETATM   16  O1  UNL     1      19.884  -0.911  53.546  1.00  0.00    -0.290 OA
HETATM   17  H6  UNL     1      24.654  -1.192  55.515  1.00  0.00     0.162 HD
HETATM   18  H8  UNL     1      22.711   1.781  52.538  1.00  0.00     0.160 HD
ENDROOT
BRANCH   1  19
HETATM   19  N1  UNL     1      24.520   0.144  52.920  1.00  0.00    -0.364 N 
HETATM   20  H4  UNL     1      24.147  -0.138  51.987  1.00  0.00     0.162 HD
BRANCH  19  21
HETATM   21  C5  UNL     1      25.876   0.550  53.026  1.00  0.00     0.031 A 
HETATM   22  C4  UNL     1      26.299   1.853  53.010  1.00  0.00     0.029 A 
HETATM   23  C3  UNL     1      27.621   2.243  53.117  1.00  0.00     0.004 A 
HETATM   24  C2  UNL     1      28.580   1.256  53.247  1.00  0.00     0.019 A 
HETATM   25  C1  UNL     1      28.204  -0.070  53.269  1.00  0.00     0.013 A 
HETATM   26 BR1  UNL     1      29.536  -1.431  53.451  1.00  0.00    -0.051 Br
HETATM   27  C17 UNL     1      26.874  -0.392  53.159  1.00  0.00     0.048 A 
ENDBRANCH  19  21
ENDBRANCH   1  19
TORSDOF 2
ENDMDL
MODEL 8
REMARK VINA RESULT:      -8.2      2.618      7.386
REMARK  2 active torsions:
REMARK  status: ('A' for Active; 'I' for Inactive)
REMARK    1  A    between atoms: C5_6  and  N1_7 
REMARK    2  A    between atoms: N1_7  and  C6_8 
ROOT
HETATM    1  C6  UNL     1      21.408  -0.955  53.557  1.00  0.00     0.238 A 
HETATM    2  N2  UNL     1      21.685  -1.660  54.777  1.00  0.00    -0.358 N 
HETATM    3  C7  UNL     1      23.006  -1.633  55.365  1.00  0.00     0.207 A 
HETATM    4  N3  UNL     1      24.032  -1.000  54.879  1.00  0.00    -0.218 NA
HETATM    5  C8  UNL     1      23.838  -0.274  53.668  1.00  0.00     0.197 A 
HETATM    6  C9  UNL     1      22.634  -0.287  53.116  1.00  0.00     0.102 A 
HETATM    7  N4  UNL     1      22.321   0.409  51.893  1.00  0.00    -0.382 N 
HETATM    8  C10 UNL     1      22.882   1.466  51.112  1.00  0.00     0.161 C 
HETATM    9  C11 UNL     1      24.294   1.770  51.373  1.00  0.00    -0.005 A 
HETATM   10  C12 UNL     1      24.650   2.740  50.442  1.00  0.00     0.030 A 
HETATM   11  C13 UNL     1      25.952   3.248  50.429  1.00  0.00     0.011 A 
HETATM   12 BR2  UNL     1      26.508   4.581  49.177  1.00  0.00    -0.051 Br
HETATM   13  C14 UNL     1      26.858   2.774  51.343  1.00  0.00     0.022 A 
HETATM   14  C15 UNL     1      26.513   1.812  52.271  1.00  0.00     0.039 A 
HETATM   15  C16 UNL     1      25.228   1.315  52.279  1.00  0.00     0.086 A 
HETATM   16  O1  UNL     1      25.004   0.355  53.256  1.00  0.00    -0.290 OA
HETATM   17  H6  UNL     1      21.081  -2.243  55.392  1.00  0.00     0.162 HD
HETATM   18  H8  UNL     1      21.436   0.083  51.400  1.00  0.00     0.160 HD
ENDROOT
BRANCH   1  19
HETATM   19  N1  UNL     1      20.244  -0.135  53.551  1.00  0.00    -0.364 N 
HETATM   20  H4  UNL     1      20.354   0.774  54.050  1.00  0.00     0.162 HD
BRANCH  19  21
HETATM   21  C5  UNL     1      18.997  -0.442  52.947  1.00  0.00     0.031 A 
HETATM   22  C4  UNL     1      18.126  -1.397  53.404  1.00  0.00     0.029 A 
HETATM   23  C3  UNL     1      16.911  -1.689  52.814  1.00  0.00     0.004 A 
HETATM   24  C2  UNL     1      16.548  -0.973  51.688  1.00  0.00     0.019 A 
HETATM   25  C1  UNL     1      17.389  -0.002  51.189  1.00  0.00     0.013 A 
HETATM   26 BR1  UNL     1      16.880   0.986  49.633  1.00  0.00    -0.051 Br
HETATM   27  C17 UNL     1      18.583   0.241  51.823  1.00  0.00     0.048 A 
ENDBRANCH  19  21
ENDBRANCH   1  19
TORSDOF 2
ENDMDL
MODEL 9
REMARK VINA RESULT:      -8.2      0.979      1.083
REMARK  2 active torsions:
REMARK  status: ('A' for Active; 'I' for Inactive)
REMARK    1  A    between atoms: C5_6  and  N1_7 
REMARK    2  A    between atoms: N1_7  and  C6_8 
ROOT
HETATM    1  C6  UNL     1      25.744   3.012  51.703  1.00  0.00     0.238 A 
HETATM    2  N2  UNL     1      27.012   2.488  52.124  1.00  0.00    -0.358 N 
HETATM    3  C7  UNL     1      27.089   1.286  52.924  1.00  0.00     0.207 A 
HETATM    4  N3  UNL     1      26.072   0.586  53.327  1.00  0.00    -0.218 NA
HETATM    5  C8  UNL     1      24.775   1.040  52.950  1.00  0.00     0.197 A 
HETATM    6  C9  UNL     1      24.685   2.140  52.216  1.00  0.00     0.102 A 
HETATM    7  N4  UNL     1      23.429   2.693  51.776  1.00  0.00    -0.382 N 
HETATM    8  C10 UNL     1      22.080   2.248  51.624  1.00  0.00     0.161 C 
HETATM    9  C11 UNL     1      21.723   1.035  52.369  1.00  0.00    -0.005 A 
HETATM   10  C12 UNL     1      20.360   0.852  52.161  1.00  0.00     0.030 A 
HETATM   11  C13 UNL     1      19.706  -0.236  52.747  1.00  0.00     0.011 A 
HETATM   12 BR2  UNL     1      17.836  -0.547  52.502  1.00  0.00    -0.051 Br
HETATM   13  C14 UNL     1      20.430  -1.106  53.521  1.00  0.00     0.022 A 
HETATM   14  C15 UNL     1      21.782  -0.932  53.733  1.00  0.00     0.039 A 
HETATM   15  C16 UNL     1      22.422   0.142  53.153  1.00  0.00     0.086 A 
HETATM   16  O1  UNL     1      23.778   0.208  53.439  1.00  0.00    -0.290 OA
HETATM   17  H6  UNL     1      27.986   2.818  51.961  1.00  0.00     0.162 HD
HETATM   18  H8  UNL     1      23.466   3.711  51.468  1.00  0.00     0.160 HD
ENDROOT
BRANCH   1  19
HETATM   19  N1  UNL     1      25.625   3.352  50.326  1.00  0.00    -0.364 N 
HETATM   20  H4  UNL     1      25.066   2.676  49.761  1.00  0.00     0.162 HD
BRANCH  19  21
HETATM   21  C5  UNL     1      26.183   4.489  49.684  1.00  0.00     0.031 A 
HETATM   22  C4  UNL     1      27.342   4.476  48.952  1.00  0.00     0.029 A 
HETATM   23  C3  UNL     1      27.879   5.584  48.325  1.00  0.00     0.004 A 
HETATM   24  C2  UNL     1      27.206   6.786  48.444  1.00  0.00     0.019 A 
HETATM   25  C1  UNL     1      26.036   6.851  49.170  1.00  0.00     0.013 A 
HETATM   26 BR1  UNL     1      25.109   8.516  49.330  1.00  0.00    -0.051 Br
HETATM   27  C17 UNL     1      25.554   5.713  49.768  1.00  0.00     0.048 A 
ENDBRANCH  19  21
ENDBRANCH   1  19
TORSDOF 2
ENDMDL
