MODEL 1
REMARK VINA RESULT:      -7.8      0.000      0.000
REMARK  5 active torsions:
REMARK  status: ('A' for Active; 'I' for Inactive)
REMARK    1  A    between atoms: O1_2  and  C2_3 
REMARK    2  A    between atoms: C6_9  and  N3_10 
REMARK    3  A    between atoms: N3_10  and  C7_11 
REMARK    4  A    between atoms: C9_13  and  C10_14 
REMARK    5  A    between atoms: C18_22  and  O2_23 
ROOT
HETATM    1  C2  UNL     1      25.961  -0.229  54.470  1.00  0.00     0.316 A 
HETATM    2  C3  UNL     1      24.923   0.189  53.686  1.00  0.00     0.085 A 
HETATM    3  C4  UNL     1      25.650   1.179  52.875  1.00  0.00     0.158 A 
HETATM    4  N1  UNL     1      26.584   0.696  53.700  1.00  0.00     0.073 N 
HETATM    5  C5  UNL     1      27.772   1.219  53.539  1.00  0.00     0.348 A 
HETATM    6  N2  UNL     1      27.859   2.147  52.577  1.00  0.00    -0.223 NA
HETATM    7  C6  UNL     1      26.841   2.561  51.798  1.00  0.00     0.130 A 
HETATM    8  C16 UNL     1      25.552   2.102  51.858  1.00  0.00     0.018 A 
HETATM    9  C17 UNL     1      24.171   2.094  51.417  1.00  0.00     0.054 C 
HETATM   10  C18 UNL     1      27.388   0.178  54.527  1.00  0.00     0.413 A 
ENDROOT
BRANCH   7  11
HETATM   11  N3  UNL     1      26.791   3.501  50.784  1.00  0.00    -0.369 N 
HETATM   12  H5  UNL     1      26.821   4.446  51.203  1.00  0.00     0.161 HD
BRANCH  11  13
HETATM   13  C7  UNL     1      26.707   3.734  49.401  1.00  0.00     0.092 A 
HETATM   14  C8  UNL     1      27.385   5.010  48.908  1.00  0.00     0.037 A 
HETATM   15  C9  UNL     1      25.902   4.796  48.775  1.00  0.00     0.043 A 
BRANCH  15  16
HETATM   16  C10 UNL     1      24.972   5.679  49.511  1.00  0.00    -0.052 A 
HETATM   17  C11 UNL     1      23.631   5.356  49.549  1.00  0.00     0.007 A 
HETATM   18  C12 UNL     1      22.648   6.089  50.196  1.00  0.00     0.001 A 
HETATM   19  C13 UNL     1      23.031   7.227  50.854  1.00  0.00     0.000 A 
HETATM   20  C14 UNL     1      24.344   7.587  50.844  1.00  0.00     0.001 A 
HETATM   21  C15 UNL     1      25.321   6.832  50.184  1.00  0.00     0.007 A 
ENDBRANCH  15  16
ENDBRANCH  11  13
ENDBRANCH   7  11
BRANCH  10  22
HETATM   22  O2  UNL     1      28.152  -0.986  54.240  1.00  0.00    -0.365 OA
HETATM   23  H19 UNL     1      28.281  -1.085  53.246  1.00  0.00     0.212 HD
ENDBRANCH  10  22
BRANCH   1  24
HETATM   24  O1  UNL     1      25.296  -1.171  55.228  1.00  0.00    -0.352 OA
HETATM   25  C1  UNL     1      23.928  -1.308  55.401  1.00  0.00     0.205 C 
ENDBRANCH   1  24
TORSDOF 5
ENDMDL
MODEL 2
REMARK VINA RESULT:      -7.7      3.501      6.048
REMARK  5 active torsions:
REMARK  status: ('A' for Active; 'I' for Inactive)
REMARK    1  A    between atoms: O1_2  and  C2_3 
REMARK    2  A    between atoms: C6_9  and  N3_10 
REMARK    3  A    between atoms: N3_10  and  C7_11 
REMARK    4  A    between atoms: C9_13  and  C10_14 
REMARK    5  A    between atoms: C18_22  and  O2_23 
ROOT
HETATM    1  C2  UNL     1      19.787  -0.419  53.347  1.00  0.00     0.316 A 
HETATM    2  C3  UNL     1      19.810  -0.022  52.040  1.00  0.00     0.085 A 
HETATM    3  C4  UNL     1      21.196   0.473  51.990  1.00  0.00     0.158 A 
HETATM    4  N1  UNL     1      21.053   0.053  53.251  1.00  0.00     0.073 N 
HETATM    5  C5  UNL     1      22.118   0.204  53.995  1.00  0.00     0.348 A 
HETATM    6  N2  UNL     1      23.173   0.750  53.376  1.00  0.00    -0.223 NA
HETATM    7  C6  UNL     1      23.204   1.140  52.087  1.00  0.00     0.130 A 
HETATM    8  C16 UNL     1      22.168   1.042  51.198  1.00  0.00     0.018 A 
HETATM    9  C17 UNL     1      21.580   1.232  49.885  1.00  0.00     0.054 C 
HETATM   10  C18 UNL     1      20.813  -0.366  54.419  1.00  0.00     0.413 A 
ENDROOT
BRANCH   7  11
HETATM   11  N3  UNL     1      24.211   1.714  51.331  1.00  0.00    -0.369 N 
HETATM   12  H5  UNL     1      24.360   1.142  50.483  1.00  0.00     0.161 HD
BRANCH  11  13
HETATM   13  C7  UNL     1      25.144   2.759  51.217  1.00  0.00     0.092 A 
HETATM   14  C8  UNL     1      26.209   2.572  50.138  1.00  0.00     0.037 A 
HETATM   15  C9  UNL     1      26.563   2.663  51.598  1.00  0.00     0.043 A 
BRANCH  15  16
HETATM   16  C10 UNL     1      27.166   1.493  52.272  1.00  0.00    -0.052 A 
HETATM   17  C11 UNL     1      28.182   1.696  53.185  1.00  0.00     0.007 A 
HETATM   18  C12 UNL     1      28.838   0.698  53.888  1.00  0.00     0.001 A 
HETATM   19  C13 UNL     1      28.454  -0.598  53.665  1.00  0.00     0.000 A 
HETATM   20  C14 UNL     1      27.457  -0.847  52.774  1.00  0.00     0.001 A 
HETATM   21  C15 UNL     1      26.806   0.176  52.073  1.00  0.00     0.007 A 
ENDBRANCH  15  16
ENDBRANCH  11  13
ENDBRANCH   7  11
BRANCH  10  22
HETATM   22  O2  UNL     1      21.046  -1.710  54.822  1.00  0.00    -0.365 OA
HETATM   23  H19 UNL     1      21.865  -1.765  55.405  1.00  0.00     0.212 HD
ENDBRANCH  10  22
BRANCH   1  24
HETATM   24  O1  UNL     1      18.495  -0.901  53.405  1.00  0.00    -0.352 OA
HETATM   25  C1  UNL     1      17.533  -0.872  52.407  1.00  0.00     0.205 C 
ENDBRANCH   1  24
TORSDOF 5
ENDMDL
MODEL 3
REMARK VINA RESULT:      -7.5      1.491      2.951
REMARK  5 active torsions:
REMARK  status: ('A' for Active; 'I' for Inactive)
REMARK    1  A    between atoms: O1_2  and  C2_3 
REMARK    2  A    between atoms: C6_9  and  N3_10 
REMARK    3  A    between atoms: N3_10  and  C7_11 
REMARK    4  A    between atoms: C9_13  and  C10_14 
REMARK    5  A    between atoms: C18_22  and  O2_23 
ROOT
HETATM    1  C2  UNL     1      26.986  -0.561  53.500  1.00  0.00     0.316 A 
HETATM    2  C3  UNL     1      27.435   0.411  52.651  1.00  0.00     0.085 A 
HETATM    3  C4  UNL     1      26.145   1.058  52.362  1.00  0.00     0.158 A 
HETATM    4  N1  UNL     1      25.823   0.067  53.199  1.00  0.00     0.073 N 
HETATM    5  C5  UNL     1      24.548  -0.012  53.479  1.00  0.00     0.348 A 
HETATM    6  N2  UNL     1      23.776   0.908  52.887  1.00  0.00    -0.223 NA
HETATM    7  C6  UNL     1      24.213   1.871  52.053  1.00  0.00     0.130 A 
HETATM    8  C16 UNL     1      25.514   2.070  51.673  1.00  0.00     0.018 A 
HETATM    9  C17 UNL     1      26.541   2.775  50.931  1.00  0.00     0.054 C 
HETATM   10  C18 UNL     1      25.625  -0.901  53.988  1.00  0.00     0.413 A 
ENDROOT
BRANCH   7  11
HETATM   11  N3  UNL     1      23.535   2.871  51.377  1.00  0.00    -0.369 N 
HETATM   12  H5  UNL     1      23.675   3.765  51.876  1.00  0.00     0.161 HD
BRANCH  11  13
HETATM   13  C7  UNL     1      22.715   3.202  50.285  1.00  0.00     0.092 A 
HETATM   14  C8  UNL     1      23.341   2.995  48.908  1.00  0.00     0.037 A 
HETATM   15  C9  UNL     1      22.926   4.356  49.396  1.00  0.00     0.043 A 
BRANCH  15  16
HETATM   16  C10 UNL     1      23.956   5.395  49.611  1.00  0.00    -0.052 A 
HETATM   17  C11 UNL     1      25.099   5.376  48.837  1.00  0.00     0.007 A 
HETATM   18  C12 UNL     1      26.145   6.282  48.930  1.00  0.00     0.001 A 
HETATM   19  C13 UNL     1      26.044   7.279  49.862  1.00  0.00     0.000 A 
HETATM   20  C14 UNL     1      24.936   7.339  50.649  1.00  0.00     0.001 A 
HETATM   21  C15 UNL     1      23.890   6.414  50.540  1.00  0.00     0.007 A 
ENDBRANCH  15  16
ENDBRANCH  11  13
ENDBRANCH   7  11
BRANCH  10  22
HETATM   22  O2  UNL     1      25.658  -0.765  55.404  1.00  0.00    -0.365 OA
HETATM   23  H19 UNL     1      26.503  -0.299  55.692  1.00  0.00     0.212 HD
ENDBRANCH  10  22
BRANCH   1  24
HETATM   24  O1  UNL     1      28.189  -1.168  53.793  1.00  0.00    -0.352 OA
HETATM   25  C1  UNL     1      29.452  -0.595  53.787  1.00  0.00     0.205 C 
ENDBRANCH   1  24
TORSDOF 5
ENDMDL
MODEL 4
REMARK VINA RESULT:      -7.4      6.179      9.297
REMARK  5 active torsions:
REMARK  status: ('A' for Active; 'I' for Inactive)
REMARK    1  A    between atoms: O1_2  and  C2_3 
REMARK    2  A    between atoms: C6_9  and  N3_10 
REMARK    3  A    between atoms: N3_10  and  C7_11 
REMARK    4  A    between atoms: C9_13  and  C10_14 
REMARK    5  A    between atoms: C18_22  and  O2_23 
ROOT
HETATM    1  C2  UNL     1      27.099   6.491  48.790  1.00  0.00     0.316 A 
HETATM    2  C3  UNL     1      27.963   5.515  48.383  1.00  0.00     0.085 A 
HETATM    3  C4  UNL     1      29.186   6.330  48.301  1.00  0.00     0.158 A 
HETATM    4  N1  UNL     1      28.250   7.199  48.695  1.00  0.00     0.073 N 
HETATM    5  C5  UNL     1      28.686   8.420  48.872  1.00  0.00     0.348 A 
HETATM    6  N2  UNL     1      29.991   8.600  48.633  1.00  0.00    -0.223 NA
HETATM    7  C6  UNL     1      30.850   7.641  48.235  1.00  0.00     0.130 A 
HETATM    8  C16 UNL     1      30.533   6.328  48.011  1.00  0.00     0.018 A 
HETATM    9  C17 UNL     1      30.876   4.971  47.629  1.00  0.00     0.054 C 
HETATM   10  C18 UNL     1      27.292   7.939  49.059  1.00  0.00     0.413 A 
ENDROOT
BRANCH   7  11
HETATM   11  N3  UNL     1      32.203   7.688  47.952  1.00  0.00    -0.369 N 
HETATM   12  H5  UNL     1      32.351   7.374  46.978  1.00  0.00     0.161 HD
BRANCH  11  13
HETATM   13  C7  UNL     1      33.494   7.977  48.427  1.00  0.00     0.092 A 
HETATM   14  C8  UNL     1      34.531   8.298  47.354  1.00  0.00     0.037 A 
HETATM   15  C9  UNL     1      34.667   7.103  48.258  1.00  0.00     0.043 A 
BRANCH  15  16
HETATM   16  C10 UNL     1      34.615   5.744  47.677  1.00  0.00    -0.052 A 
HETATM   17  C11 UNL     1      34.292   5.598  46.343  1.00  0.00     0.007 A 
HETATM   18  C12 UNL     1      34.204   4.390  45.668  1.00  0.00     0.001 A 
HETATM   19  C13 UNL     1      34.457   3.245  46.374  1.00  0.00     0.000 A 
HETATM   20  C14 UNL     1      34.780   3.339  47.693  1.00  0.00     0.001 A 
HETATM   21  C15 UNL     1      34.863   4.569  48.356  1.00  0.00     0.007 A 
ENDBRANCH  15  16
ENDBRANCH  11  13
ENDBRANCH   7  11
BRANCH  10  22
HETATM   22  O2  UNL     1      26.948   8.146  50.423  1.00  0.00    -0.365 OA
HETATM   23  H19 UNL     1      26.385   7.383  50.763  1.00  0.00     0.212 HD
ENDBRANCH  10  22
BRANCH   1  24
HETATM   24  O1  UNL     1      25.948   5.737  48.886  1.00  0.00    -0.352 OA
HETATM   25  C1  UNL     1      25.813   4.458  49.404  1.00  0.00     0.205 C 
ENDBRANCH   1  24
TORSDOF 5
ENDMDL
MODEL 5
REMARK VINA RESULT:      -7.4      3.224      6.895
REMARK  5 active torsions:
REMARK  status: ('A' for Active; 'I' for Inactive)
REMARK    1  A    between atoms: O1_2  and  C2_3 
REMARK    2  A    between atoms: C6_9  and  N3_10 
REMARK    3  A    between atoms: N3_10  and  C7_11 
REMARK    4  A    between atoms: C9_13  and  C10_14 
REMARK    5  A    between atoms: C18_22  and  O2_23 
ROOT
HETATM    1  C2  UNL     1      25.236   6.002  49.541  1.00  0.00     0.316 A 
HETATM    2  C3  UNL     1      24.328   5.617  50.487  1.00  0.00     0.085 A 
HETATM    3  C4  UNL     1      24.895   4.297  50.805  1.00  0.00     0.158 A 
HETATM    4  N1  UNL     1      25.716   4.778  49.867  1.00  0.00     0.073 N 
HETATM    5  C5  UNL     1      26.700   3.977  49.547  1.00  0.00     0.348 A 
HETATM    6  N2  UNL     1      26.727   2.814  50.210  1.00  0.00    -0.223 NA
HETATM    7  C6  UNL     1      25.837   2.430  51.146  1.00  0.00     0.130 A 
HETATM    8  C16 UNL     1      24.763   3.163  51.576  1.00  0.00     0.018 A 
HETATM    9  C17 UNL     1      23.584   3.351  52.399  1.00  0.00     0.054 C 
HETATM   10  C18 UNL     1      26.426   5.320  48.972  1.00  0.00     0.413 A 
ENDROOT
BRANCH   7  11
HETATM   11  N3  UNL     1      25.743   1.271  51.896  1.00  0.00    -0.369 N 
HETATM   12  H5  UNL     1      24.995   0.677  51.501  1.00  0.00     0.161 HD
BRANCH  11  13
HETATM   13  C7  UNL     1      26.232   0.538  52.991  1.00  0.00     0.092 A 
HETATM   14  C8  UNL     1      26.287  -0.976  52.794  1.00  0.00     0.037 A 
HETATM   15  C9  UNL     1      25.415  -0.342  53.844  1.00  0.00     0.043 A 
BRANCH  15  16
HETATM   16  C10 UNL     1      23.946  -0.471  53.741  1.00  0.00    -0.052 A 
HETATM   17  C11 UNL     1      23.238  -0.955  54.823  1.00  0.00     0.007 A 
HETATM   18  C12 UNL     1      21.864  -1.130  54.868  1.00  0.00     0.001 A 
HETATM   19  C13 UNL     1      21.141  -0.798  53.753  1.00  0.00     0.000 A 
HETATM   20  C14 UNL     1      21.795  -0.317  52.661  1.00  0.00     0.001 A 
HETATM   21  C15 UNL     1      23.185  -0.147  52.636  1.00  0.00     0.007 A 
ENDBRANCH  15  16
ENDBRANCH  11  13
ENDBRANCH   7  11
BRANCH  10  22
HETATM   22  O2  UNL     1      27.545   6.147  49.267  1.00  0.00    -0.365 OA
HETATM   23  H19 UNL     1      28.139   5.704  49.950  1.00  0.00     0.212 HD
ENDBRANCH  10  22
BRANCH   1  24
HETATM   24  O1  UNL     1      24.725   7.248  49.242  1.00  0.00    -0.352 OA
HETATM   25  C1  UNL     1      24.584   8.333  50.094  1.00  0.00     0.205 C 
ENDBRANCH   1  24
TORSDOF 5
ENDMDL
MODEL 6
REMARK VINA RESULT:      -7.3      1.772      3.442
REMARK  5 active torsions:
REMARK  status: ('A' for Active; 'I' for Inactive)
REMARK    1  A    between atoms: O1_2  and  C2_3 
REMARK    2  A    between atoms: C6_9  and  N3_10 
REMARK    3  A    between atoms: N3_10  and  C7_11 
REMARK    4  A    between atoms: C9_13  and  C10_14 
REMARK    5  A    between atoms: C18_22  and  O2_23 
ROOT
HETATM    1  C2  UNL     1      27.851   0.094  53.994  1.00  0.00     0.316 A 
HETATM    2  C3  UNL     1      26.751  -0.686  53.774  1.00  0.00     0.085 A 
HETATM    3  C4  UNL     1      25.790   0.383  53.455  1.00  0.00     0.158 A 
HETATM    4  N1  UNL     1      26.928   1.040  53.697  1.00  0.00     0.073 N 
HETATM    5  C5  UNL     1      26.837   2.340  53.582  1.00  0.00     0.348 A 
HETATM    6  N2  UNL     1      25.626   2.798  53.241  1.00  0.00    -0.223 NA
HETATM    7  C6  UNL     1      24.538   2.036  53.019  1.00  0.00     0.130 A 
HETATM    8  C16 UNL     1      24.489   0.670  53.105  1.00  0.00     0.018 A 
HETATM    9  C17 UNL     1      23.788  -0.597  53.024  1.00  0.00     0.054 C 
HETATM   10  C18 UNL     1      28.050   1.565  53.951  1.00  0.00     0.413 A 
ENDROOT
BRANCH   7  11
HETATM   11  N3  UNL     1      23.242   2.373  52.669  1.00  0.00    -0.369 N 
HETATM   12  H5  UNL     1      22.664   2.407  53.525  1.00  0.00     0.161 HD
BRANCH  11  13
HETATM   13  C7  UNL     1      22.351   2.688  51.630  1.00  0.00     0.092 A 
HETATM   14  C8  UNL     1      22.418   1.774  50.409  1.00  0.00     0.037 A 
HETATM   15  C9  UNL     1      22.745   3.240  50.323  1.00  0.00     0.043 A 
BRANCH  15  16
HETATM   16  C10 UNL     1      24.122   3.657  49.977  1.00  0.00    -0.052 A 
HETATM   17  C11 UNL     1      24.416   5.004  49.910  1.00  0.00     0.007 A 
HETATM   18  C12 UNL     1      25.657   5.537  49.597  1.00  0.00     0.001 A 
HETATM   19  C13 UNL     1      26.678   4.665  49.332  1.00  0.00     0.000 A 
HETATM   20  C14 UNL     1      26.436   3.327  49.386  1.00  0.00     0.001 A 
HETATM   21  C15 UNL     1      25.175   2.808  49.704  1.00  0.00     0.007 A 
ENDBRANCH  15  16
ENDBRANCH  11  13
ENDBRANCH   7  11
BRANCH  10  22
HETATM   22  O2  UNL     1      29.033   1.810  52.953  1.00  0.00    -0.365 OA
HETATM   23  H19 UNL     1      28.690   2.474  52.277  1.00  0.00     0.212 HD
ENDBRANCH  10  22
BRANCH   1  24
HETATM   24  O1  UNL     1      28.767  -0.897  54.280  1.00  0.00    -0.352 OA
HETATM   25  C1  UNL     1      29.376  -1.771  53.392  1.00  0.00     0.205 C 
ENDBRANCH   1  24
TORSDOF 5
ENDMDL
MODEL 7
REMARK VINA RESULT:      -7.3      2.261      3.862
REMARK  5 active torsions:
REMARK  status: ('A' for Active; 'I' for Inactive)
REMARK    1  A    between atoms: O1_2  and  C2_3 
REMARK    2  A    between atoms: C6_9  and  N3_10 
REMARK    3  A    between atoms: N3_10  and  C7_11 
REMARK    4  A    between atoms: C9_13  and  C10_14 
REMARK    5  A    between atoms: C18_22  and  O2_23 
ROOT
HETATM    1  C2  UNL     1      26.476   0.796  54.311  1.00  0.00     0.316 A 
HETATM    2  C3  UNL     1      26.116   2.066  53.957  1.00  0.00     0.085 A 
HETATM    3  C4  UNL     1      24.790   1.765  53.393  1.00  0.00     0.158 A 
HETATM    4  N1  UNL     1      25.251   0.571  53.777  1.00  0.00     0.073 N 
HETATM    5  C5  UNL     1      24.434  -0.424  53.546  1.00  0.00     0.348 A 
HETATM    6  N2  UNL     1      23.274  -0.087  52.968  1.00  0.00    -0.223 NA
HETATM    7  C6  UNL     1      22.912   1.163  52.620  1.00  0.00     0.130 A 
HETATM    8  C16 UNL     1      23.664   2.293  52.801  1.00  0.00     0.018 A 
HETATM    9  C17 UNL     1      23.883   3.722  52.686  1.00  0.00     0.054 C 
HETATM   10  C18 UNL     1      25.781  -0.508  54.169  1.00  0.00     0.413 A 
ENDROOT
BRANCH   7  11
HETATM   11  N3  UNL     1      21.762   1.647  52.020  1.00  0.00    -0.369 N 
HETATM   12  H5  UNL     1      21.318   2.332  52.655  1.00  0.00     0.161 HD
BRANCH  11  13
HETATM   13  C7  UNL     1      20.915   1.606  50.900  1.00  0.00     0.092 A 
HETATM   14  C8  UNL     1      21.475   0.873  49.683  1.00  0.00     0.037 A 
HETATM   15  C9  UNL     1      21.146   2.340  49.645  1.00  0.00     0.043 A 
BRANCH  15  16
HETATM   16  C10 UNL     1      22.233   3.323  49.443  1.00  0.00    -0.052 A 
HETATM   17  C11 UNL     1      21.945   4.669  49.542  1.00  0.00     0.007 A 
HETATM   18  C12 UNL     1      22.859   5.698  49.376  1.00  0.00     0.001 A 
HETATM   19  C13 UNL     1      24.155   5.360  49.092  1.00  0.00     0.000 A 
HETATM   20  C14 UNL     1      24.487   4.045  48.984  1.00  0.00     0.001 A 
HETATM   21  C15 UNL     1      23.548   3.020  49.155  1.00  0.00     0.007 A 
ENDBRANCH  15  16
ENDBRANCH  11  13
ENDBRANCH   7  11
BRANCH  10  22
HETATM   22  O2  UNL     1      25.611  -1.020  55.485  1.00  0.00    -0.365 OA
HETATM   23  H19 UNL     1      25.102  -0.363  56.055  1.00  0.00     0.212 HD
ENDBRANCH  10  22
BRANCH   1  24
HETATM   24  O1  UNL     1      27.714   1.064  54.857  1.00  0.00    -0.352 OA
HETATM   25  C1  UNL     1      28.948   1.010  54.227  1.00  0.00     0.205 C 
ENDBRANCH   1  24
TORSDOF 5
ENDMDL
MODEL 8
REMARK VINA RESULT:      -7.2      3.620      7.322
REMARK  5 active torsions:
REMARK  status: ('A' for Active; 'I' for Inactive)
REMARK    1  A    between atoms: O1_2  and  C2_3 
REMARK    2  A    between atoms: C6_9  and  N3_10 
REMARK    3  A    between atoms: N3_10  and  C7_11 
REMARK    4  A    between atoms: C9_13  and  C10_14 
REMARK    5  A    between atoms: C18_22  and  O2_23 
ROOT
HETATM    1  C2  UNL     1      22.555   6.415  50.869  1.00  0.00     0.316 A 
HETATM    2  C3  UNL     1      21.374   5.769  51.101  1.00  0.00     0.085 A 
HETATM    3  C4  UNL     1      21.917   4.524  51.668  1.00  0.00     0.158 A 
HETATM    4  N1  UNL     1      23.006   5.250  51.393  1.00  0.00     0.073 N 
HETATM    5  C5  UNL     1      24.136   4.665  51.694  1.00  0.00     0.348 A 
HETATM    6  N2  UNL     1      24.021   3.442  52.227  1.00  0.00    -0.223 NA
HETATM    7  C6  UNL     1      22.860   2.800  52.462  1.00  0.00     0.130 A 
HETATM    8  C16 UNL     1      21.609   3.290  52.197  1.00  0.00     0.018 A 
HETATM    9  C17 UNL     1      20.163   3.178  52.181  1.00  0.00     0.054 C 
HETATM   10  C18 UNL     1      23.967   6.012  51.090  1.00  0.00     0.413 A 
ENDROOT
BRANCH   7  11
HETATM   11  N3  UNL     1      22.598   1.551  52.996  1.00  0.00    -0.369 N 
HETATM   12  H5  UNL     1      22.294   1.664  53.977  1.00  0.00     0.161 HD
BRANCH  11  13
HETATM   13  C7  UNL     1      22.574   0.163  52.779  1.00  0.00     0.092 A 
HETATM   14  C8  UNL     1      22.615  -0.698  54.040  1.00  0.00     0.037 A 
HETATM   15  C9  UNL     1      23.711  -0.744  53.010  1.00  0.00     0.043 A 
BRANCH  15  16
HETATM   16  C10 UNL     1      25.071  -0.296  53.378  1.00  0.00    -0.052 A 
HETATM   17  C11 UNL     1      25.918   0.156  52.386  1.00  0.00     0.007 A 
HETATM   18  C12 UNL     1      27.216   0.603  52.583  1.00  0.00     0.001 A 
HETATM   19  C13 UNL     1      27.704   0.600  53.862  1.00  0.00     0.000 A 
HETATM   20  C14 UNL     1      26.906   0.163  54.873  1.00  0.00     0.001 A 
HETATM   21  C15 UNL     1      25.597  -0.285  54.653  1.00  0.00     0.007 A 
ENDBRANCH  15  16
ENDBRANCH  11  13
ENDBRANCH   7  11
BRANCH  10  22
HETATM   22  O2  UNL     1      24.520   6.959  51.997  1.00  0.00    -0.365 OA
HETATM   23  H19 UNL     1      24.449   7.890  51.619  1.00  0.00     0.212 HD
ENDBRANCH  10  22
BRANCH   1  24
HETATM   24  O1  UNL     1      22.061   7.594  50.350  1.00  0.00    -0.352 OA
HETATM   25  C1  UNL     1      21.466   7.793  49.114  1.00  0.00     0.205 C 
ENDBRANCH   1  24
TORSDOF 5
ENDMDL
MODEL 9
REMARK VINA RESULT:      -6.9      4.705      7.557
REMARK  5 active torsions:
REMARK  status: ('A' for Active; 'I' for Inactive)
REMARK    1  A    between atoms: O1_2  and  C2_3 
REMARK    2  A    between atoms: C6_9  and  N3_10 
REMARK    3  A    between atoms: N3_10  and  C7_11 
REMARK    4  A    between atoms: C9_13  and  C10_14 
REMARK    5  A    between atoms: C18_22  and  O2_23 
ROOT
HETATM    1  C2  UNL     1      24.940   5.667  50.098  1.00  0.00     0.316 A 
HETATM    2  C3  UNL     1      25.992   5.265  49.324  1.00  0.00     0.085 A 
HETATM    3  C4  UNL     1      26.676   6.563  49.202  1.00  0.00     0.158 A 
HETATM    4  N1  UNL     1      25.606   6.838  49.953  1.00  0.00     0.073 N 
HETATM    5  C5  UNL     1      25.509   8.090  50.319  1.00  0.00     0.348 A 
HETATM    6  N2  UNL     1      26.493   8.888  49.886  1.00  0.00    -0.223 NA
HETATM    7  C6  UNL     1      27.535   8.498  49.126  1.00  0.00     0.130 A 
HETATM    8  C16 UNL     1      27.760   7.226  48.671  1.00  0.00     0.018 A 
HETATM    9  C17 UNL     1      28.531   6.245  47.932  1.00  0.00     0.054 C 
HETATM   10  C18 UNL     1      24.562   6.993  50.649  1.00  0.00     0.413 A 
ENDROOT
BRANCH   7  11
HETATM   11  N3  UNL     1      28.606   9.208  48.611  1.00  0.00    -0.369 N 
HETATM   12  H5  UNL     1      28.626   9.083  47.585  1.00  0.00     0.161 HD
BRANCH  11  13
HETATM   13  C7  UNL     1      29.706  10.037  48.886  1.00  0.00     0.092 A 
HETATM   14  C8  UNL     1      30.544  10.437  47.673  1.00  0.00     0.037 A 
HETATM   15  C9  UNL     1      31.115   9.619  48.800  1.00  0.00     0.043 A 
BRANCH  15  16
HETATM   16  C10 UNL     1      31.558   8.232  48.538  1.00  0.00    -0.052 A 
HETATM   17  C11 UNL     1      31.655   7.350  49.595  1.00  0.00     0.007 A 
HETATM   18  C12 UNL     1      32.056   6.026  49.498  1.00  0.00     0.001 A 
HETATM   19  C13 UNL     1      32.384   5.548  48.258  1.00  0.00     0.000 A 
HETATM   20  C14 UNL     1      32.304   6.381  47.186  1.00  0.00     0.001 A 
HETATM   21  C15 UNL     1      31.896   7.716  47.304  1.00  0.00     0.007 A 
ENDBRANCH  15  16
ENDBRANCH  11  13
ENDBRANCH   7  11
BRANCH  10  22
HETATM   22  O2  UNL     1      24.548   6.853  52.065  1.00  0.00    -0.365 OA
HETATM   23  H19 UNL     1      25.452   6.556  52.397  1.00  0.00     0.212 HD
ENDBRANCH  10  22
BRANCH   1  24
HETATM   24  O1  UNL     1      24.294   4.455  50.235  1.00  0.00    -0.352 OA
HETATM   25  C1  UNL     1      24.821   3.263  50.707  1.00  0.00     0.205 C 
ENDBRANCH   1  24
TORSDOF 5
ENDMDL
