MODEL 1
REMARK VINA RESULT:      -9.5      0.000      0.000
REMARK  3 active torsions:
REMARK  status: ('A' for Active; 'I' for Inactive)
REMARK    1  A    between atoms: O1_1  and  C1_2 
REMARK    2  A    between atoms: C6_7  and  C7_8 
REMARK    3  A    between atoms: N2_14  and  C12_15 
ROOT
HETATM    1  C7  UNL     1      26.076  -0.068  52.776  1.00  0.00     0.003 C 
HETATM    2  C8  UNL     1      25.050  -0.438  53.546  1.00  0.00     0.075 C 
HETATM    3  C9  UNL     1      23.630  -0.133  53.429  1.00  0.00    -0.023 C 
HETATM    4  C10 UNL     1      22.527   0.414  52.823  1.00  0.00    -0.014 C 
HETATM    5  C11 UNL     1      22.942   1.064  51.567  1.00  0.00     0.137 C 
HETATM    6  N1  UNL     1      22.851   2.474  51.627  1.00  0.00    -0.234 NA
HETATM    7  N2  UNL     1      23.545   3.080  50.534  1.00  0.00    -0.309 N 
HETATM    8  C18 UNL     1      24.874   3.356  51.053  1.00  0.00     0.170 C 
HETATM    9  C19 UNL     1      25.624   2.146  51.482  1.00  0.00    -0.009 C 
HETATM   10  C20 UNL     1      26.384   1.055  51.817  1.00  0.00    -0.019 C 
HETATM   11  H11 UNL     1      21.879   2.848  51.681  1.00  0.00     0.147 HD
ENDROOT
BRANCH   1  12
HETATM   12  C6  UNL     1      27.396  -0.518  53.065  1.00  0.00    -0.016 A 
HETATM   13  C1  UNL     1      28.042  -1.715  53.018  1.00  0.00     0.072 A 
HETATM   14  C2  UNL     1      29.359  -1.947  53.304  1.00  0.00     0.037 A 
HETATM   15  C3  UNL     1      30.177  -0.920  53.687  1.00  0.00     0.003 A 
HETATM   16  C4  UNL     1      29.617   0.332  53.767  1.00  0.00     0.001 A 
HETATM   17  C5  UNL     1      28.286   0.493  53.464  1.00  0.00     0.011 A 
BRANCH  13  18
HETATM   18  O1  UNL     1      27.219  -2.750  52.637  1.00  0.00    -0.360 OA
HETATM   19  H1  UNL     1      26.196  -2.656  52.710  1.00  0.00     0.217 HD
ENDBRANCH  13  18
ENDBRANCH   1  12
BRANCH   7  20
HETATM   20  C12 UNL     1      23.033   3.350  49.236  1.00  0.00     0.047 A 
HETATM   21  C13 UNL     1      22.459   2.434  48.380  1.00  0.00     0.031 A 
HETATM   22  C14 UNL     1      22.015   2.860  47.154  1.00  0.00     0.004 A 
HETATM   23  C15 UNL     1      22.115   4.181  46.723  1.00  0.00     0.019 A 
HETATM   24  C16 UNL     1      22.694   5.064  47.606  1.00  0.00     0.013 A 
HETATM   25 BR1  UNL     1      22.812   6.865  46.979  1.00  0.00    -0.051 Br
HETATM   26  C17 UNL     1      23.149   4.668  48.846  1.00  0.00     0.049 A 
ENDBRANCH   7  20
TORSDOF 3
ENDMDL
MODEL 2
REMARK VINA RESULT:      -9.3      1.526      1.701
REMARK  3 active torsions:
REMARK  status: ('A' for Active; 'I' for Inactive)
REMARK    1  A    between atoms: O1_1  and  C1_2 
REMARK    2  A    between atoms: C6_7  and  C7_8 
REMARK    3  A    between atoms: N2_14  and  C12_15 
ROOT
HETATM    1  C7  UNL     1      25.917  -0.257  53.072  1.00  0.00     0.003 C 
HETATM    2  C8  UNL     1      25.008  -0.667  53.960  1.00  0.00     0.075 C 
HETATM    3  C9  UNL     1      23.562  -0.490  53.974  1.00  0.00    -0.023 C 
HETATM    4  C10 UNL     1      22.360  -0.074  53.457  1.00  0.00    -0.014 C 
HETATM    5  C11 UNL     1      22.591   0.534  52.135  1.00  0.00     0.137 C 
HETATM    6  N1  UNL     1      22.381   1.933  52.133  1.00  0.00    -0.234 NA
HETATM    7  N2  UNL     1      22.908   2.530  50.948  1.00  0.00    -0.309 N 
HETATM    8  C18 UNL     1      24.250   2.948  51.314  1.00  0.00     0.170 C 
HETATM    9  C19 UNL     1      25.144   1.832  51.723  1.00  0.00    -0.009 C 
HETATM   10  C20 UNL     1      26.028   0.830  52.033  1.00  0.00    -0.019 C 
HETATM   11  H11 UNL     1      21.389   2.226  52.268  1.00  0.00     0.147 HD
ENDROOT
BRANCH   1  12
HETATM   12  C6  UNL     1      27.294  -0.576  53.247  1.00  0.00    -0.016 A 
HETATM   13  C1  UNL     1      28.053  -1.697  53.103  1.00  0.00     0.072 A 
HETATM   14  C2  UNL     1      29.404  -1.800  53.285  1.00  0.00     0.037 A 
HETATM   15  C3  UNL     1      30.140  -0.707  53.652  1.00  0.00     0.003 A 
HETATM   16  C4  UNL     1      29.464   0.476  53.824  1.00  0.00     0.001 A 
HETATM   17  C5  UNL     1      28.104   0.508  53.624  1.00  0.00     0.011 A 
BRANCH  13  18
HETATM   18  O1  UNL     1      27.312  -2.798  52.739  1.00  0.00    -0.360 OA
HETATM   19  H1  UNL     1      26.457  -2.688  52.176  1.00  0.00     0.217 HD
ENDBRANCH  13  18
ENDBRANCH   1  12
BRANCH   7  20
HETATM   20  C12 UNL     1      22.250   2.681  49.696  1.00  0.00     0.047 A 
HETATM   21  C13 UNL     1      22.853   2.689  48.456  1.00  0.00     0.031 A 
HETATM   22  C14 UNL     1      22.070   2.848  47.340  1.00  0.00     0.004 A 
HETATM   23  C15 UNL     1      20.687   3.004  47.394  1.00  0.00     0.019 A 
HETATM   24  C16 UNL     1      20.124   2.990  48.650  1.00  0.00     0.013 A 
HETATM   25 BR1  UNL     1      18.226   3.206  48.682  1.00  0.00    -0.051 Br
HETATM   26  C17 UNL     1      20.883   2.831  49.791  1.00  0.00     0.049 A 
ENDBRANCH   7  20
TORSDOF 3
ENDMDL
MODEL 3
REMARK VINA RESULT:      -9.0      1.700      2.092
REMARK  3 active torsions:
REMARK  status: ('A' for Active; 'I' for Inactive)
REMARK    1  A    between atoms: O1_1  and  C1_2 
REMARK    2  A    between atoms: C6_7  and  C7_8 
REMARK    3  A    between atoms: N2_14  and  C12_15 
ROOT
HETATM    1  C7  UNL     1      25.769  -0.422  53.562  1.00  0.00     0.003 C 
HETATM    2  C8  UNL     1      25.059  -0.951  54.560  1.00  0.00     0.075 C 
HETATM    3  C9  UNL     1      23.619  -0.967  54.783  1.00  0.00    -0.023 C 
HETATM    4  C10 UNL     1      22.312  -0.710  54.452  1.00  0.00    -0.014 C 
HETATM    5  C11 UNL     1      22.270  -0.072  53.124  1.00  0.00     0.137 C 
HETATM    6  N1  UNL     1      21.881   1.287  53.184  1.00  0.00    -0.234 NA
HETATM    7  N2  UNL     1      22.151   1.953  51.950  1.00  0.00    -0.309 N 
HETATM    8  C18 UNL     1      23.466   2.542  52.131  1.00  0.00     0.170 C 
HETATM    9  C19 UNL     1      24.546   1.552  52.384  1.00  0.00    -0.009 C 
HETATM   10  C20 UNL     1      25.588   0.674  52.542  1.00  0.00    -0.019 C 
HETATM   11  H11 UNL     1      20.889   1.446  53.465  1.00  0.00     0.147 HD
ENDROOT
BRANCH   1  12
HETATM   12  C6  UNL     1      27.187  -0.558  53.532  1.00  0.00    -0.016 A 
HETATM   13  C1  UNL     1      28.057  -1.554  53.211  1.00  0.00     0.072 A 
HETATM   14  C2  UNL     1      29.422  -1.480  53.207  1.00  0.00     0.037 A 
HETATM   15  C3  UNL     1      30.055  -0.317  53.551  1.00  0.00     0.003 A 
HETATM   16  C4  UNL     1      29.262   0.750  53.893  1.00  0.00     0.001 A 
HETATM   17  C5  UNL     1      27.895   0.606  53.876  1.00  0.00     0.011 A 
BRANCH  13  18
HETATM   18  O1  UNL     1      27.421  -2.726  52.869  1.00  0.00    -0.360 OA
HETATM   19  H1  UNL     1      27.145  -3.401  53.596  1.00  0.00     0.217 HD
ENDBRANCH  13  18
ENDBRANCH   1  12
BRANCH   7  20
HETATM   20  C12 UNL     1      21.306   2.020  50.808  1.00  0.00     0.047 A 
HETATM   21  C13 UNL     1      19.997   1.591  50.738  1.00  0.00     0.031 A 
HETATM   22  C14 UNL     1      19.318   1.726  49.553  1.00  0.00     0.004 A 
HETATM   23  C15 UNL     1      19.885   2.280  48.408  1.00  0.00     0.019 A 
HETATM   24  C16 UNL     1      21.192   2.696  48.519  1.00  0.00     0.013 A 
HETATM   25 BR1  UNL     1      21.933   3.450  46.927  1.00  0.00    -0.051 Br
HETATM   26  C17 UNL     1      21.902   2.575  49.696  1.00  0.00     0.049 A 
ENDBRANCH   7  20
TORSDOF 3
ENDMDL
MODEL 4
REMARK VINA RESULT:      -8.9      3.551      5.060
REMARK  3 active torsions:
REMARK  status: ('A' for Active; 'I' for Inactive)
REMARK    1  A    between atoms: O1_1  and  C1_2 
REMARK    2  A    between atoms: C6_7  and  C7_8 
REMARK    3  A    between atoms: N2_14  and  C12_15 
ROOT
HETATM    1  C7  UNL     1      22.704   1.111  51.675  1.00  0.00     0.003 C 
HETATM    2  C8  UNL     1      21.861   0.911  50.658  1.00  0.00     0.075 C 
HETATM    3  C9  UNL     1      21.843   1.498  49.325  1.00  0.00    -0.023 C 
HETATM    4  C10 UNL     1      22.328   2.286  48.312  1.00  0.00    -0.014 C 
HETATM    5  C11 UNL     1      23.590   2.909  48.751  1.00  0.00     0.137 C 
HETATM    6  N1  UNL     1      23.469   4.304  48.953  1.00  0.00    -0.234 NA
HETATM    7  N2  UNL     1      24.593   4.818  49.669  1.00  0.00    -0.309 N 
HETATM    8  C18 UNL     1      24.183   4.796  51.062  1.00  0.00     0.170 C 
HETATM    9  C19 UNL     1      23.868   3.439  51.582  1.00  0.00    -0.009 C 
HETATM   10  C20 UNL     1      23.642   2.202  52.129  1.00  0.00    -0.019 C 
HETATM   11  H11 UNL     1      23.315   4.860  48.084  1.00  0.00     0.147 HD
ENDROOT
BRANCH   1  12
HETATM   12  C6  UNL     1      22.548   0.393  52.894  1.00  0.00    -0.016 A 
HETATM   13  C1  UNL     1      21.513   0.137  53.741  1.00  0.00     0.072 A 
HETATM   14  C2  UNL     1      21.551  -0.628  54.873  1.00  0.00     0.037 A 
HETATM   15  C3  UNL     1      22.715  -1.232  55.263  1.00  0.00     0.003 A 
HETATM   16  C4  UNL     1      23.820  -1.035  54.473  1.00  0.00     0.001 A 
HETATM   17  C5  UNL     1      23.710  -0.253  53.348  1.00  0.00     0.011 A 
BRANCH  13  18
HETATM   18  O1  UNL     1      20.343   0.748  53.352  1.00  0.00    -0.360 OA
HETATM   19  H1  UNL     1      19.607   0.209  52.875  1.00  0.00     0.217 HD
ENDBRANCH  13  18
ENDBRANCH   1  12
BRANCH   7  20
HETATM   20  C12 UNL     1      25.831   5.256  49.123  1.00  0.00     0.047 A 
HETATM   21  C13 UNL     1      27.002   4.529  49.072  1.00  0.00     0.031 A 
HETATM   22  C14 UNL     1      28.115   5.102  48.512  1.00  0.00     0.004 A 
HETATM   23  C15 UNL     1      28.126   6.392  47.986  1.00  0.00     0.019 A 
HETATM   24  C16 UNL     1      26.938   7.085  48.056  1.00  0.00     0.013 A 
HETATM   25 BR1  UNL     1      26.994   8.849  47.324  1.00  0.00    -0.051 Br
HETATM   26  C17 UNL     1      25.802   6.537  48.612  1.00  0.00     0.049 A 
ENDBRANCH   7  20
TORSDOF 3
ENDMDL
MODEL 5
REMARK VINA RESULT:      -8.6      3.924      5.027
REMARK  3 active torsions:
REMARK  status: ('A' for Active; 'I' for Inactive)
REMARK    1  A    between atoms: O1_1  and  C1_2 
REMARK    2  A    between atoms: C6_7  and  C7_8 
REMARK    3  A    between atoms: N2_14  and  C12_15 
ROOT
HETATM    1  C7  UNL     1      24.606   2.369  52.831  1.00  0.00     0.003 C 
HETATM    2  C8  UNL     1      24.400   3.684  52.930  1.00  0.00     0.075 C 
HETATM    3  C9  UNL     1      23.201   4.469  52.667  1.00  0.00    -0.023 C 
HETATM    4  C10 UNL     1      21.881   4.639  52.333  1.00  0.00    -0.014 C 
HETATM    5  C11 UNL     1      21.266   3.317  52.118  1.00  0.00     0.137 C 
HETATM    6  N1  UNL     1      20.946   3.077  50.761  1.00  0.00    -0.234 NA
HETATM    7  N2  UNL     1      20.653   1.697  50.538  1.00  0.00    -0.309 N 
HETATM    8  C18 UNL     1      21.918   1.116  50.122  1.00  0.00     0.170 C 
HETATM    9  C19 UNL     1      22.997   1.216  51.139  1.00  0.00    -0.009 C 
HETATM   10  C20 UNL     1      24.002   1.213  52.073  1.00  0.00    -0.019 C 
HETATM   11  H11 UNL     1      20.177   3.670  50.382  1.00  0.00     0.147 HD
ENDROOT
BRANCH   1  12
HETATM   12  C6  UNL     1      25.869   1.807  53.176  1.00  0.00    -0.016 A 
HETATM   13  C1  UNL     1      27.150   1.969  52.744  1.00  0.00     0.072 A 
HETATM   14  C2  UNL     1      28.264   1.352  53.239  1.00  0.00     0.037 A 
HETATM   15  C3  UNL     1      28.165   0.465  54.275  1.00  0.00     0.003 A 
HETATM   16  C4  UNL     1      26.910   0.232  54.783  1.00  0.00     0.001 A 
HETATM   17  C5  UNL     1      25.832   0.887  54.237  1.00  0.00     0.011 A 
BRANCH  13  18
HETATM   18  O1  UNL     1      27.250   2.858  51.698  1.00  0.00    -0.360 OA
HETATM   19  H1  UNL     1      27.970   2.729  50.972  1.00  0.00     0.217 HD
ENDBRANCH  13  18
ENDBRANCH   1  12
BRANCH   7  20
HETATM   20  C12 UNL     1      19.395   1.051  50.690  1.00  0.00     0.047 A 
HETATM   21  C13 UNL     1      18.286   1.233  49.890  1.00  0.00     0.031 A 
HETATM   22  C14 UNL     1      17.142   0.530  50.175  1.00  0.00     0.004 A 
HETATM   23  C15 UNL     1      17.041  -0.365  51.238  1.00  0.00     0.019 A 
HETATM   24  C16 UNL     1      18.169  -0.517  52.011  1.00  0.00     0.013 A 
HETATM   25 BR1  UNL     1      17.990  -1.753  53.457  1.00  0.00    -0.051 Br
HETATM   26  C17 UNL     1      19.335   0.173  51.751  1.00  0.00     0.049 A 
ENDBRANCH   7  20
TORSDOF 3
ENDMDL
MODEL 6
REMARK VINA RESULT:      -8.5      2.923      5.434
REMARK  3 active torsions:
REMARK  status: ('A' for Active; 'I' for Inactive)
REMARK    1  A    between atoms: O1_1  and  C1_2 
REMARK    2  A    between atoms: C6_7  and  C7_8 
REMARK    3  A    between atoms: N2_14  and  C12_15 
ROOT
HETATM    1  C7  UNL     1      23.708   0.752  52.526  1.00  0.00     0.003 C 
HETATM    2  C8  UNL     1      24.861   0.115  52.742  1.00  0.00     0.075 C 
HETATM    3  C9  UNL     1      26.226   0.508  52.418  1.00  0.00    -0.023 C 
HETATM    4  C10 UNL     1      27.189   1.361  51.940  1.00  0.00    -0.014 C 
HETATM    5  C11 UNL     1      26.546   2.614  51.505  1.00  0.00     0.137 C 
HETATM    6  N1  UNL     1      26.569   2.780  50.100  1.00  0.00    -0.234 NA
HETATM    7  N2  UNL     1      25.680   3.820  49.691  1.00  0.00    -0.309 N 
HETATM    8  C18 UNL     1      24.437   3.137  49.377  1.00  0.00     0.170 C 
HETATM    9  C19 UNL     1      23.831   2.417  50.527  1.00  0.00    -0.009 C 
HETATM   10  C20 UNL     1      23.193   1.803  51.574  1.00  0.00    -0.019 C 
HETATM   11  H11 UNL     1      27.517   2.942  49.694  1.00  0.00     0.147 HD
ENDROOT
BRANCH   1  12
HETATM   12  C6  UNL     1      22.477   0.186  52.964  1.00  0.00    -0.016 A 
HETATM   13  C1  UNL     1      22.086  -0.585  54.015  1.00  0.00     0.072 A 
HETATM   14  C2  UNL     1      20.816  -1.007  54.293  1.00  0.00     0.037 A 
HETATM   15  C3  UNL     1      19.775  -0.659  53.478  1.00  0.00     0.003 A 
HETATM   16  C4  UNL     1      20.066   0.121  52.386  1.00  0.00     0.001 A 
HETATM   17  C5  UNL     1      21.366   0.509  52.166  1.00  0.00     0.011 A 
BRANCH  13  18
HETATM   18  O1  UNL     1      23.134  -0.940  54.833  1.00  0.00    -0.360 OA
HETATM   19  H1  UNL     1      23.720  -0.215  55.273  1.00  0.00     0.217 HD
ENDBRANCH  13  18
ENDBRANCH   1  12
BRANCH   7  20
HETATM   20  C12 UNL     1      25.965   5.211  49.610  1.00  0.00     0.047 A 
HETATM   21  C13 UNL     1      25.324   6.215  50.305  1.00  0.00     0.031 A 
HETATM   22  C14 UNL     1      25.720   7.514  50.109  1.00  0.00     0.004 A 
HETATM   23  C15 UNL     1      26.745   7.876  49.238  1.00  0.00     0.019 A 
HETATM   24  C16 UNL     1      27.359   6.845  48.564  1.00  0.00     0.013 A 
HETATM   25 BR1  UNL     1      28.759   7.382  47.379  1.00  0.00    -0.051 Br
HETATM   26  C17 UNL     1      26.985   5.529  48.739  1.00  0.00     0.049 A 
ENDBRANCH   7  20
TORSDOF 3
ENDMDL
MODEL 7
REMARK VINA RESULT:      -8.5      4.955      7.859
REMARK  3 active torsions:
REMARK  status: ('A' for Active; 'I' for Inactive)
REMARK    1  A    between atoms: O1_1  and  C1_2 
REMARK    2  A    between atoms: C6_7  and  C7_8 
REMARK    3  A    between atoms: N2_14  and  C12_15 
ROOT
HETATM    1  C7  UNL     1      25.707   7.513  49.867  1.00  0.00     0.003 C 
HETATM    2  C8  UNL     1      24.542   8.139  50.048  1.00  0.00     0.075 C 
HETATM    3  C9  UNL     1      23.278   7.638  50.572  1.00  0.00    -0.023 C 
HETATM    4  C10 UNL     1      22.457   6.688  51.127  1.00  0.00    -0.014 C 
HETATM    5  C11 UNL     1      23.236   5.460  51.365  1.00  0.00     0.137 C 
HETATM    6  N1  UNL     1      22.862   4.401  50.504  1.00  0.00    -0.234 NA
HETATM    7  N2  UNL     1      23.826   3.348  50.538  1.00  0.00    -0.309 N 
HETATM    8  C18 UNL     1      24.727   3.641  49.436  1.00  0.00     0.170 C 
HETATM    9  C19 UNL     1      25.438   4.941  49.561  1.00  0.00    -0.009 C 
HETATM   10  C20 UNL     1      26.174   6.093  49.669  1.00  0.00    -0.019 C 
HETATM   11  H11 UNL     1      21.908   4.016  50.675  1.00  0.00     0.147 HD
ENDROOT
BRANCH   1  12
HETATM   12  C6  UNL     1      26.836   8.220  49.363  1.00  0.00    -0.016 A 
HETATM   13  C1  UNL     1      27.741   9.093  49.882  1.00  0.00     0.072 A 
HETATM   14  C2  UNL     1      28.808   9.649  49.233  1.00  0.00     0.037 A 
HETATM   15  C3  UNL     1      29.059   9.346  47.923  1.00  0.00     0.003 A 
HETATM   16  C4  UNL     1      28.199   8.471  47.307  1.00  0.00     0.001 A 
HETATM   17  C5  UNL     1      27.146   7.949  48.019  1.00  0.00     0.011 A 
BRANCH  13  18
HETATM   18  O1  UNL     1      27.488   9.402  51.199  1.00  0.00    -0.360 OA
HETATM   19  H1  UNL     1      27.494   8.665  51.918  1.00  0.00     0.217 HD
ENDBRANCH  13  18
ENDBRANCH   1  12
BRANCH   7  20
HETATM   20  C12 UNL     1      23.876   2.258  51.449  1.00  0.00     0.047 A 
HETATM   21  C13 UNL     1      22.819   1.762  52.183  1.00  0.00     0.031 A 
HETATM   22  C14 UNL     1      23.037   0.700  53.025  1.00  0.00     0.004 A 
HETATM   23  C15 UNL     1      24.281   0.091  53.178  1.00  0.00     0.019 A 
HETATM   24  C16 UNL     1      25.308   0.615  52.428  1.00  0.00     0.013 A 
HETATM   25 BR1  UNL     1      26.997  -0.248  52.667  1.00  0.00    -0.051 Br
HETATM   26  C17 UNL     1      25.122   1.681  51.573  1.00  0.00     0.049 A 
ENDBRANCH   7  20
TORSDOF 3
ENDMDL
MODEL 8
REMARK VINA RESULT:      -8.4      4.904      8.031
REMARK  3 active torsions:
REMARK  status: ('A' for Active; 'I' for Inactive)
REMARK    1  A    between atoms: O1_1  and  C1_2 
REMARK    2  A    between atoms: C6_7  and  C7_8 
REMARK    3  A    between atoms: N2_14  and  C12_15 
ROOT
HETATM    1  C7  UNL     1      25.726   7.452  49.910  1.00  0.00     0.003 C 
HETATM    2  C8  UNL     1      24.494   7.871  50.209  1.00  0.00     0.075 C 
HETATM    3  C9  UNL     1      23.380   7.156  50.817  1.00  0.00    -0.023 C 
HETATM    4  C10 UNL     1      22.777   6.070  51.402  1.00  0.00    -0.014 C 
HETATM    5  C11 UNL     1      23.765   4.983  51.530  1.00  0.00     0.137 C 
HETATM    6  N1  UNL     1      23.495   3.897  50.665  1.00  0.00    -0.234 NA
HETATM    7  N2  UNL     1      24.618   3.018  50.580  1.00  0.00    -0.309 N 
HETATM    8  C18 UNL     1      25.359   3.482  49.419  1.00  0.00     0.170 C 
HETATM    9  C19 UNL     1      25.855   4.879  49.533  1.00  0.00    -0.009 C 
HETATM   10  C20 UNL     1      26.400   6.134  49.622  1.00  0.00    -0.019 C 
HETATM   11  H11 UNL     1      22.636   3.355  50.899  1.00  0.00     0.147 HD
ENDROOT
BRANCH   1  12
HETATM   12  C6  UNL     1      26.675   8.348  49.341  1.00  0.00    -0.016 A 
HETATM   13  C1  UNL     1      27.564   9.255  49.831  1.00  0.00     0.072 A 
HETATM   14  C2  UNL     1      28.443  10.012  49.109  1.00  0.00     0.037 A 
HETATM   15  C3  UNL     1      28.495   9.906  47.746  1.00  0.00     0.003 A 
HETATM   16  C4  UNL     1      27.635   9.014  47.154  1.00  0.00     0.001 A 
HETATM   17  C5  UNL     1      26.777   8.284  47.941  1.00  0.00     0.011 A 
BRANCH  13  18
HETATM   18  O1  UNL     1      27.509   9.367  51.201  1.00  0.00    -0.360 OA
HETATM   19  H1  UNL     1      28.376   9.433  51.754  1.00  0.00     0.217 HD
ENDBRANCH  13  18
ENDBRANCH   1  12
BRANCH   7  20
HETATM   20  C12 UNL     1      24.925   1.931  51.443  1.00  0.00     0.047 A 
HETATM   21  C13 UNL     1      26.180   1.412  51.683  1.00  0.00     0.031 A 
HETATM   22  C14 UNL     1      26.305   0.353  52.547  1.00  0.00     0.004 A 
HETATM   23  C15 UNL     1      25.222  -0.230  53.201  1.00  0.00     0.019 A 
HETATM   24  C16 UNL     1      23.988   0.318  52.936  1.00  0.00     0.013 A 
HETATM   25 BR1  UNL     1      22.529  -0.509  53.852  1.00  0.00    -0.051 Br
HETATM   26  C17 UNL     1      23.829   1.382  52.073  1.00  0.00     0.049 A 
ENDBRANCH   7  20
TORSDOF 3
ENDMDL
MODEL 9
REMARK VINA RESULT:      -8.0      8.631      9.731
REMARK  3 active torsions:
REMARK  status: ('A' for Active; 'I' for Inactive)
REMARK    1  A    between atoms: O1_1  and  C1_2 
REMARK    2  A    between atoms: C6_7  and  C7_8 
REMARK    3  A    between atoms: N2_14  and  C12_15 
ROOT
HETATM    1  C7  UNL     1      31.440   5.613  47.392  1.00  0.00     0.003 C 
HETATM    2  C8  UNL     1      30.311   4.954  47.659  1.00  0.00     0.075 C 
HETATM    3  C9  UNL     1      29.011   5.453  48.089  1.00  0.00    -0.023 C 
HETATM    4  C10 UNL     1      28.106   6.433  48.411  1.00  0.00    -0.014 C 
HETATM    5  C11 UNL     1      28.739   7.751  48.224  1.00  0.00     0.137 C 
HETATM    6  N1  UNL     1      28.975   8.421  49.447  1.00  0.00    -0.234 NA
HETATM    7  N2  UNL     1      29.858   9.529  49.263  1.00  0.00    -0.309 N 
HETATM    8  C18 UNL     1      31.180   8.995  49.545  1.00  0.00     0.170 C 
HETATM    9  C19 UNL     1      31.598   7.896  48.635  1.00  0.00    -0.009 C 
HETATM   10  C20 UNL     1      32.061   6.934  47.775  1.00  0.00    -0.019 C 
HETATM   11  H11 UNL     1      28.115   8.731  49.950  1.00  0.00     0.147 HD
ENDROOT
BRANCH   1  12
HETATM   12  C6  UNL     1      32.598   4.913  46.949  1.00  0.00    -0.016 A 
HETATM   13  C1  UNL     1      33.314   3.845  47.398  1.00  0.00     0.072 A 
HETATM   14  C2  UNL     1      34.404   3.279  46.798  1.00  0.00     0.037 A 
HETATM   15  C3  UNL     1      34.887   3.782  45.621  1.00  0.00     0.003 A 
HETATM   16  C4  UNL     1      34.232   4.863  45.085  1.00  0.00     0.001 A 
HETATM   17  C5  UNL     1      33.143   5.382  45.742  1.00  0.00     0.011 A 
BRANCH  13  18
HETATM   18  O1  UNL     1      32.831   3.342  48.584  1.00  0.00    -0.360 OA
HETATM   19  H1  UNL     1      32.137   3.871  49.131  1.00  0.00     0.217 HD
ENDBRANCH  13  18
ENDBRANCH   1  12
BRANCH   7  20
HETATM   20  C12 UNL     1      29.506  10.856  48.892  1.00  0.00     0.047 A 
HETATM   21  C13 UNL     1      30.370  11.923  48.770  1.00  0.00     0.031 A 
HETATM   22  C14 UNL     1      29.866  13.145  48.404  1.00  0.00     0.004 A 
HETATM   23  C15 UNL     1      28.515  13.367  48.146  1.00  0.00     0.019 A 
HETATM   24  C16 UNL     1      27.686  12.277  48.279  1.00  0.00     0.013 A 
HETATM   25 BR1  UNL     1      25.842  12.622  47.917  1.00  0.00    -0.051 Br
HETATM   26  C17 UNL     1      28.161  11.035  48.645  1.00  0.00     0.049 A 
ENDBRANCH   7  20
TORSDOF 3
ENDMDL
