MODEL 1
REMARK VINA RESULT:      -6.8      0.000      0.000
REMARK  12 active torsions:
REMARK  status: ('A' for Active; 'I' for Inactive)
REMARK    1  A    between atoms: O1_1  and  C1_2 
REMARK    2  A    between atoms: C5_7  and  C6_8 
REMARK    3  A    between atoms: C6_8  and  N2_9 
REMARK    4  A    between atoms: N2_9  and  C7_10 
REMARK    5  A    between atoms: C8_11  and  C9_12 
REMARK    6  A    between atoms: C9_12  and  C10_13 
REMARK    7  A    between atoms: C11_14  and  N3_15 
REMARK    8  A    between atoms: N3_15  and  C12_16 
REMARK    9  A    between atoms: C13_17  and  C14_18 
REMARK   10  A    between atoms: C15_19  and  C16_20 
REMARK   11  A    between atoms: C16_20  and  C17_21 
REMARK   12  A    between atoms: C17_21  and  C18_23 
ROOT
HETATM    1  C9  UNL     1      24.912   5.073  50.377  1.00  0.00     0.124 C 
ENDROOT
BRANCH   1   2
HETATM    2  C8  UNL     1      25.448   3.929  49.598  1.00  0.00     0.002 C 
HETATM    3  C7  UNL     1      26.322   3.008  49.964  1.00  0.00     0.080 C 
BRANCH   3   4
HETATM    4  N2  UNL     1      26.838   3.112  51.306  1.00  0.00    -0.395 N 
HETATM    5  H7  UNL     1      27.591   3.793  51.178  1.00  0.00     0.159 HD
BRANCH   4   6
HETATM    6  C6  UNL     1      26.055   2.223  52.154  1.00  0.00     0.160 C 
BRANCH   6   7
HETATM    7  C5  UNL     1      26.880   1.126  52.736  1.00  0.00    -0.005 A 
HETATM    8  C1  UNL     1      27.826   1.485  53.657  1.00  0.00     0.091 A 
HETATM    9  C2  UNL     1      28.609   0.519  54.220  1.00  0.00     0.153 A 
HETATM   10  N1  UNL     1      28.466  -0.775  53.886  1.00  0.00    -0.270 NA
HETATM   11  C3  UNL     1      27.541  -1.149  52.981  1.00  0.00     0.117 A 
HETATM   12  C4  UNL     1      26.720  -0.197  52.381  1.00  0.00     0.031 A 
BRANCH   8  13
HETATM   13  O1  UNL     1      28.093   2.781  54.103  1.00  0.00    -0.359 OA
HETATM   14  H1  UNL     1      28.641   3.428  53.538  1.00  0.00     0.217 HD
ENDBRANCH   8  13
ENDBRANCH   6   7
ENDBRANCH   4   6
ENDBRANCH   3   4
ENDBRANCH   1   2
BRANCH   1  15
HETATM   15  C10 UNL     1      23.638   4.691  51.041  1.00  0.00    -0.079 C 
HETATM   16  C11 UNL     1      22.594   4.397  51.579  1.00  0.00     0.018 C 
BRANCH  16  17
HETATM   17  N3  UNL     1      21.395   4.068  52.221  1.00  0.00    -0.274 N 
HETATM   18  H12 UNL     1      20.855   4.878  52.651  1.00  0.00     0.186 HD
BRANCH  17  19
HETATM   19  C12 UNL     1      20.888   2.768  52.322  1.00  0.00     0.023 C 
HETATM   20  C13 UNL     1      20.437   1.654  52.396  1.00  0.00    -0.055 C 
BRANCH  20  21
HETATM   21  C14 UNL     1      19.882   0.318  52.463  1.00  0.00     0.062 C 
HETATM   22  C15 UNL     1      20.105  -0.515  53.466  1.00  0.00    -0.015 C 
BRANCH  22  23
HETATM   23  C16 UNL     1      20.976  -0.046  54.584  1.00  0.00     0.067 C 
BRANCH  23  24
HETATM   24  C17 UNL     1      22.193  -0.878  54.800  1.00  0.00     0.202 C 
HETATM   25  F1  UNL     1      21.893  -2.222  54.755  1.00  0.00    -0.247 F 
BRANCH  24  26
HETATM   26  C18 UNL     1      23.290  -0.603  53.811  1.00  0.00     0.259 C 
HETATM   27  F2  UNL     1      23.446   0.736  53.519  1.00  0.00    -0.253 F 
ENDBRANCH  24  26
ENDBRANCH  23  24
ENDBRANCH  22  23
ENDBRANCH  20  21
ENDBRANCH  17  19
ENDBRANCH  16  17
ENDBRANCH   1  15
TORSDOF 12
ENDMDL
MODEL 2
REMARK VINA RESULT:      -6.4      4.280      6.193
REMARK  12 active torsions:
REMARK  status: ('A' for Active; 'I' for Inactive)
REMARK    1  A    between atoms: O1_1  and  C1_2 
REMARK    2  A    between atoms: C5_7  and  C6_8 
REMARK    3  A    between atoms: C6_8  and  N2_9 
REMARK    4  A    between atoms: N2_9  and  C7_10 
REMARK    5  A    between atoms: C8_11  and  C9_12 
REMARK    6  A    between atoms: C9_12  and  C10_13 
REMARK    7  A    between atoms: C11_14  and  N3_15 
REMARK    8  A    between atoms: N3_15  and  C12_16 
REMARK    9  A    between atoms: C13_17  and  C14_18 
REMARK   10  A    between atoms: C15_19  and  C16_20 
REMARK   11  A    between atoms: C16_20  and  C17_21 
REMARK   12  A    between atoms: C17_21  and  C18_23 
ROOT
HETATM    1  C9  UNL     1      26.956   5.029  48.876  1.00  0.00     0.124 C 
ENDROOT
BRANCH   1   2
HETATM    2  C8  UNL     1      26.438   6.355  48.455  1.00  0.00     0.002 C 
HETATM    3  C7  UNL     1      26.985   7.549  48.605  1.00  0.00     0.080 C 
BRANCH   3   4
HETATM    4  N2  UNL     1      28.266   7.589  49.265  1.00  0.00    -0.395 N 
HETATM    5  H7  UNL     1      27.988   7.476  50.244  1.00  0.00     0.159 HD
BRANCH   4   6
HETATM    6  C6  UNL     1      29.288   7.765  48.243  1.00  0.00     0.160 C 
BRANCH   6   7
HETATM    7  C5  UNL     1      30.337   6.708  48.307  1.00  0.00    -0.005 A 
HETATM    8  C1  UNL     1      31.318   6.865  49.247  1.00  0.00     0.091 A 
HETATM    9  C2  UNL     1      32.303   5.926  49.347  1.00  0.00     0.153 A 
HETATM   10  N1  UNL     1      32.326   4.852  48.538  1.00  0.00    -0.270 NA
HETATM   11  C3  UNL     1      31.369   4.680  47.605  1.00  0.00     0.117 A 
HETATM   12  C4  UNL     1      30.345   5.612  47.468  1.00  0.00     0.031 A 
BRANCH   8  13
HETATM   13  O1  UNL     1      31.431   7.921  50.154  1.00  0.00    -0.359 OA
HETATM   14  H1  UNL     1      31.277   8.885  49.858  1.00  0.00     0.217 HD
ENDBRANCH   8  13
ENDBRANCH   6   7
ENDBRANCH   4   6
ENDBRANCH   3   4
ENDBRANCH   1   2
BRANCH   1  15
HETATM   15  C10 UNL     1      25.917   4.289  49.638  1.00  0.00    -0.079 C 
HETATM   16  C11 UNL     1      25.080   3.686  50.274  1.00  0.00     0.018 C 
BRANCH  16  17
HETATM   17  N3  UNL     1      24.127   2.971  51.006  1.00  0.00    -0.274 N 
HETATM   18  H12 UNL     1      23.123   3.318  50.936  1.00  0.00     0.186 HD
BRANCH  17  19
HETATM   19  C12 UNL     1      24.420   1.857  51.801  1.00  0.00     0.023 C 
HETATM   20  C13 UNL     1      24.692   0.900  52.478  1.00  0.00    -0.055 C 
BRANCH  20  21
HETATM   21  C14 UNL     1      25.043  -0.246  53.293  1.00  0.00     0.062 C 
HETATM   22  C15 UNL     1      26.281  -0.690  53.432  1.00  0.00    -0.015 C 
BRANCH  22  23
HETATM   23  C16 UNL     1      27.368   0.031  52.706  1.00  0.00     0.067 C 
BRANCH  23  24
HETATM   24  C17 UNL     1      28.317   0.758  53.596  1.00  0.00     0.202 C 
HETATM   25  F1  UNL     1      29.613   0.336  53.394  1.00  0.00    -0.247 F 
BRANCH  24  26
HETATM   26  C18 UNL     1      28.273   2.250  53.426  1.00  0.00     0.259 C 
HETATM   27  F2  UNL     1      27.597   2.657  52.294  1.00  0.00    -0.253 F 
ENDBRANCH  24  26
ENDBRANCH  23  24
ENDBRANCH  22  23
ENDBRANCH  20  21
ENDBRANCH  17  19
ENDBRANCH  16  17
ENDBRANCH   1  15
TORSDOF 12
ENDMDL
MODEL 3
REMARK VINA RESULT:      -6.3      3.182      5.787
REMARK  12 active torsions:
REMARK  status: ('A' for Active; 'I' for Inactive)
REMARK    1  A    between atoms: O1_1  and  C1_2 
REMARK    2  A    between atoms: C5_7  and  C6_8 
REMARK    3  A    between atoms: C6_8  and  N2_9 
REMARK    4  A    between atoms: N2_9  and  C7_10 
REMARK    5  A    between atoms: C8_11  and  C9_12 
REMARK    6  A    between atoms: C9_12  and  C10_13 
REMARK    7  A    between atoms: C11_14  and  N3_15 
REMARK    8  A    between atoms: N3_15  and  C12_16 
REMARK    9  A    between atoms: C13_17  and  C14_18 
REMARK   10  A    between atoms: C15_19  and  C16_20 
REMARK   11  A    between atoms: C16_20  and  C17_21 
REMARK   12  A    between atoms: C17_21  and  C18_23 
ROOT
HETATM    1  C9  UNL     1      27.698   4.871  48.941  1.00  0.00     0.124 C 
ENDROOT
BRANCH   1   2
HETATM    2  C8  UNL     1      27.501   6.122  48.168  1.00  0.00     0.002 C 
HETATM    3  C7  UNL     1      27.033   7.289  48.576  1.00  0.00     0.080 C 
BRANCH   3   4
HETATM    4  N2  UNL     1      26.656   7.378  49.965  1.00  0.00    -0.395 N 
HETATM    5  H7  UNL     1      27.417   6.861  50.411  1.00  0.00     0.159 HD
BRANCH   4   6
HETATM    6  C6  UNL     1      25.416   8.140  50.041  1.00  0.00     0.160 C 
BRANCH   6   7
HETATM    7  C5  UNL     1      24.213   7.260  50.039  1.00  0.00    -0.005 A 
HETATM    8  C1  UNL     1      23.879   6.665  51.225  1.00  0.00     0.091 A 
HETATM    9  C2  UNL     1      22.787   5.849  51.278  1.00  0.00     0.153 A 
HETATM   10  N1  UNL     1      22.035   5.621  50.187  1.00  0.00    -0.270 NA
HETATM   11  C3  UNL     1      22.347   6.197  49.010  1.00  0.00     0.117 A 
HETATM   12  C4  UNL     1      23.453   7.037  48.910  1.00  0.00     0.031 A 
BRANCH   8  13
HETATM   13  O1  UNL     1      24.559   6.802  52.437  1.00  0.00    -0.359 OA
HETATM   14  H1  UNL     1      25.147   7.614  52.619  1.00  0.00     0.217 HD
ENDBRANCH   8  13
ENDBRANCH   6   7
ENDBRANCH   4   6
ENDBRANCH   3   4
ENDBRANCH   1   2
BRANCH   1  15
HETATM   15  C10 UNL     1      26.387   4.229  49.225  1.00  0.00    -0.079 C 
HETATM   16  C11 UNL     1      25.313   3.715  49.442  1.00  0.00     0.018 C 
BRANCH  16  17
HETATM   17  N3  UNL     1      24.063   3.141  49.703  1.00  0.00    -0.274 N 
HETATM   18  H12 UNL     1      23.269   3.432  49.058  1.00  0.00     0.186 HD
BRANCH  17  19
HETATM   19  C12 UNL     1      23.816   2.234  50.739  1.00  0.00     0.023 C 
HETATM   20  C13 UNL     1      23.624   1.454  51.635  1.00  0.00    -0.055 C 
BRANCH  20  21
HETATM   21  C14 UNL     1      23.412   0.524  52.726  1.00  0.00     0.062 C 
HETATM   22  C15 UNL     1      24.380  -0.196  53.269  1.00  0.00    -0.015 C 
BRANCH  22  23
HETATM   23  C16 UNL     1      25.760  -0.037  52.722  1.00  0.00     0.067 C 
BRANCH  23  24
HETATM   24  C17 UNL     1      26.681  -1.161  53.053  1.00  0.00     0.202 C 
HETATM   25  F1  UNL     1      26.714  -2.093  52.039  1.00  0.00    -0.247 F 
BRANCH  24  26
HETATM   26  C18 UNL     1      28.088  -0.718  53.337  1.00  0.00     0.259 C 
HETATM   27  F2  UNL     1      29.041  -1.652  52.986  1.00  0.00    -0.253 F 
ENDBRANCH  24  26
ENDBRANCH  23  24
ENDBRANCH  22  23
ENDBRANCH  20  21
ENDBRANCH  17  19
ENDBRANCH  16  17
ENDBRANCH   1  15
TORSDOF 12
ENDMDL
MODEL 4
REMARK VINA RESULT:      -6.3      4.012      6.362
REMARK  12 active torsions:
REMARK  status: ('A' for Active; 'I' for Inactive)
REMARK    1  A    between atoms: O1_1  and  C1_2 
REMARK    2  A    between atoms: C5_7  and  C6_8 
REMARK    3  A    between atoms: C6_8  and  N2_9 
REMARK    4  A    between atoms: N2_9  and  C7_10 
REMARK    5  A    between atoms: C8_11  and  C9_12 
REMARK    6  A    between atoms: C9_12  and  C10_13 
REMARK    7  A    between atoms: C11_14  and  N3_15 
REMARK    8  A    between atoms: N3_15  and  C12_16 
REMARK    9  A    between atoms: C13_17  and  C14_18 
REMARK   10  A    between atoms: C15_19  and  C16_20 
REMARK   11  A    between atoms: C16_20  and  C17_21 
REMARK   12  A    between atoms: C17_21  and  C18_23 
ROOT
HETATM    1  C9  UNL     1      27.871   5.375  48.199  1.00  0.00     0.124 C 
ENDROOT
BRANCH   1   2
HETATM    2  C8  UNL     1      27.920   6.817  48.543  1.00  0.00     0.002 C 
HETATM    3  C7  UNL     1      26.995   7.746  48.376  1.00  0.00     0.080 C 
BRANCH   3   4
HETATM    4  N2  UNL     1      25.755   7.315  47.779  1.00  0.00    -0.395 N 
HETATM    5  H7  UNL     1      26.093   6.860  46.926  1.00  0.00     0.159 HD
BRANCH   4   6
HETATM    6  C6  UNL     1      24.670   7.727  48.659  1.00  0.00     0.160 C 
BRANCH   6   7
HETATM    7  C5  UNL     1      23.988   6.565  49.297  1.00  0.00    -0.005 A 
HETATM    8  C1  UNL     1      23.785   6.631  50.648  1.00  0.00     0.091 A 
HETATM    9  C2  UNL     1      23.166   5.593  51.281  1.00  0.00     0.153 A 
HETATM   10  N1  UNL     1      22.754   4.509  50.601  1.00  0.00    -0.270 NA
HETATM   11  C3  UNL     1      22.945   4.424  49.270  1.00  0.00     0.117 A 
HETATM   12  C4  UNL     1      23.572   5.461  48.583  1.00  0.00     0.031 A 
BRANCH   8  13
HETATM   13  O1  UNL     1      24.156   7.683  51.488  1.00  0.00    -0.359 OA
HETATM   14  H1  UNL     1      23.988   7.637  52.492  1.00  0.00     0.217 HD
ENDBRANCH   8  13
ENDBRANCH   6   7
ENDBRANCH   4   6
ENDBRANCH   3   4
ENDBRANCH   1   2
BRANCH   1  15
HETATM   15  C10 UNL     1      27.134   4.620  49.248  1.00  0.00    -0.079 C 
HETATM   16  C11 UNL     1      26.540   4.018  50.113  1.00  0.00     0.018 C 
BRANCH  16  17
HETATM   17  N3  UNL     1      25.873   3.311  51.120  1.00  0.00    -0.274 N 
HETATM   18  H12 UNL     1      25.100   3.836  51.630  1.00  0.00     0.186 HD
BRANCH  17  19
HETATM   19  C12 UNL     1      26.165   1.991  51.480  1.00  0.00     0.023 C 
HETATM   20  C13 UNL     1      26.430   0.854  51.773  1.00  0.00    -0.055 C 
BRANCH  20  21
HETATM   21  C14 UNL     1      26.770  -0.513  52.114  1.00  0.00     0.062 C 
HETATM   22  C15 UNL     1      27.195  -0.882  53.311  1.00  0.00    -0.015 C 
BRANCH  22  23
HETATM   23  C16 UNL     1      27.328   0.172  54.360  1.00  0.00     0.067 C 
BRANCH  23  24
HETATM   24  C17 UNL     1      28.736   0.484  54.735  1.00  0.00     0.202 C 
HETATM   25  F1  UNL     1      29.593  -0.519  54.338  1.00  0.00    -0.247 F 
BRANCH  24  26
HETATM   26  C18 UNL     1      29.233   1.784  54.168  1.00  0.00     0.259 C 
HETATM   27  F2  UNL     1      28.229   2.698  53.924  1.00  0.00    -0.253 F 
ENDBRANCH  24  26
ENDBRANCH  23  24
ENDBRANCH  22  23
ENDBRANCH  20  21
ENDBRANCH  17  19
ENDBRANCH  16  17
ENDBRANCH   1  15
TORSDOF 12
ENDMDL
MODEL 5
REMARK VINA RESULT:      -6.2      5.075      6.856
REMARK  12 active torsions:
REMARK  status: ('A' for Active; 'I' for Inactive)
REMARK    1  A    between atoms: O1_1  and  C1_2 
REMARK    2  A    between atoms: C5_7  and  C6_8 
REMARK    3  A    between atoms: C6_8  and  N2_9 
REMARK    4  A    between atoms: N2_9  and  C7_10 
REMARK    5  A    between atoms: C8_11  and  C9_12 
REMARK    6  A    between atoms: C9_12  and  C10_13 
REMARK    7  A    between atoms: C11_14  and  N3_15 
REMARK    8  A    between atoms: N3_15  and  C12_16 
REMARK    9  A    between atoms: C13_17  and  C14_18 
REMARK   10  A    between atoms: C15_19  and  C16_20 
REMARK   11  A    between atoms: C16_20  and  C17_21 
REMARK   12  A    between atoms: C17_21  and  C18_23 
ROOT
HETATM    1  C9  UNL     1      27.739   4.719  48.657  1.00  0.00     0.124 C 
ENDROOT
BRANCH   1   2
HETATM    2  C8  UNL     1      27.456   6.149  48.383  1.00  0.00     0.002 C 
HETATM    3  C7  UNL     1      28.249   7.198  48.524  1.00  0.00     0.080 C 
BRANCH   3   4
HETATM    4  N2  UNL     1      29.580   6.934  49.012  1.00  0.00    -0.395 N 
HETATM    5  H7  UNL     1      29.379   6.368  49.841  1.00  0.00     0.159 HD
BRANCH   4   6
HETATM    6  C6  UNL     1      30.521   7.583  48.110  1.00  0.00     0.160 C 
BRANCH   6   7
HETATM    7  C5  UNL     1      31.903   7.044  48.252  1.00  0.00    -0.005 A 
HETATM    8  C1  UNL     1      32.051   5.687  48.159  1.00  0.00     0.091 A 
HETATM    9  C2  UNL     1      33.296   5.142  48.283  1.00  0.00     0.153 A 
HETATM   10  N1  UNL     1      34.376   5.914  48.495  1.00  0.00    -0.270 NA
HETATM   11  C3  UNL     1      34.251   7.252  48.590  1.00  0.00     0.117 A 
HETATM   12  C4  UNL     1      33.000   7.851  48.469  1.00  0.00     0.031 A 
BRANCH   8  13
HETATM   13  O1  UNL     1      31.031   4.758  47.943  1.00  0.00    -0.359 OA
HETATM   14  H1  UNL     1      30.537   4.720  47.052  1.00  0.00     0.217 HD
ENDBRANCH   8  13
ENDBRANCH   6   7
ENDBRANCH   4   6
ENDBRANCH   3   4
ENDBRANCH   1   2
BRANCH   1  15
HETATM   15  C10 UNL     1      26.650   4.127  49.478  1.00  0.00    -0.079 C 
HETATM   16  C11 UNL     1      25.751   3.657  50.140  1.00  0.00     0.018 C 
BRANCH  16  17
HETATM   17  N3  UNL     1      24.716   3.132  50.920  1.00  0.00    -0.274 N 
HETATM   18  H12 UNL     1      23.809   3.689  50.934  1.00  0.00     0.186 HD
BRANCH  17  19
HETATM   19  C12 UNL     1      24.811   1.948  51.660  1.00  0.00     0.023 C 
HETATM   20  C13 UNL     1      24.905   0.940  52.311  1.00  0.00    -0.055 C 
BRANCH  20  21
HETATM   21  C14 UNL     1      25.023  -0.260  53.114  1.00  0.00     0.062 C 
HETATM   22  C15 UNL     1      26.170  -0.879  53.337  1.00  0.00    -0.015 C 
BRANCH  22  23
HETATM   23  C16 UNL     1      27.405  -0.304  52.725  1.00  0.00     0.067 C 
BRANCH  23  24
HETATM   24  C17 UNL     1      28.413   0.171  53.715  1.00  0.00     0.202 C 
HETATM   25  F1  UNL     1      27.923   0.095  55.001  1.00  0.00    -0.247 F 
BRANCH  24  26
HETATM   26  C18 UNL     1      29.711  -0.583  53.656  1.00  0.00     0.259 C 
HETATM   27  F2  UNL     1      29.604  -1.819  53.053  1.00  0.00    -0.253 F 
ENDBRANCH  24  26
ENDBRANCH  23  24
ENDBRANCH  22  23
ENDBRANCH  20  21
ENDBRANCH  17  19
ENDBRANCH  16  17
ENDBRANCH   1  15
TORSDOF 12
ENDMDL
MODEL 6
REMARK VINA RESULT:      -6.1      4.759      8.459
REMARK  12 active torsions:
REMARK  status: ('A' for Active; 'I' for Inactive)
REMARK    1  A    between atoms: O1_1  and  C1_2 
REMARK    2  A    between atoms: C5_7  and  C6_8 
REMARK    3  A    between atoms: C6_8  and  N2_9 
REMARK    4  A    between atoms: N2_9  and  C7_10 
REMARK    5  A    between atoms: C8_11  and  C9_12 
REMARK    6  A    between atoms: C9_12  and  C10_13 
REMARK    7  A    between atoms: C11_14  and  N3_15 
REMARK    8  A    between atoms: N3_15  and  C12_16 
REMARK    9  A    between atoms: C13_17  and  C14_18 
REMARK   10  A    between atoms: C15_19  and  C16_20 
REMARK   11  A    between atoms: C16_20  and  C17_21 
REMARK   12  A    between atoms: C17_21  and  C18_23 
ROOT
HETATM    1  C9  UNL     1      26.622   2.045  53.465  1.00  0.00     0.124 C 
ENDROOT
BRANCH   1   2
HETATM    2  C8  UNL     1      27.525   0.884  53.664  1.00  0.00     0.002 C 
HETATM    3  C7  UNL     1      27.270  -0.405  53.517  1.00  0.00     0.080 C 
BRANCH   3   4
HETATM    4  N2  UNL     1      25.932  -0.751  53.105  1.00  0.00    -0.395 N 
HETATM    5  H7  UNL     1      26.035  -0.768  52.087  1.00  0.00     0.159 HD
BRANCH   4   6
HETATM    6  C6  UNL     1      25.122  -0.902  54.307  1.00  0.00     0.160 C 
BRANCH   6   7
HETATM    7  C5  UNL     1      23.695  -0.540  54.074  1.00  0.00    -0.005 A 
HETATM    8  C1  UNL     1      22.769  -1.104  54.910  1.00  0.00     0.091 A 
HETATM    9  C2  UNL     1      21.448  -0.806  54.739  1.00  0.00     0.153 A 
HETATM   10  N1  UNL     1      21.043   0.029  53.767  1.00  0.00    -0.270 NA
HETATM   11  C3  UNL     1      21.939   0.594  52.933  1.00  0.00     0.117 A 
HETATM   12  C4  UNL     1      23.297   0.319  53.071  1.00  0.00     0.031 A 
BRANCH   8  13
HETATM   13  O1  UNL     1      23.034  -1.986  55.959  1.00  0.00    -0.359 OA
HETATM   14  H1  UNL     1      23.688  -1.737  56.701  1.00  0.00     0.217 HD
ENDBRANCH   8  13
ENDBRANCH   6   7
ENDBRANCH   4   6
ENDBRANCH   3   4
ENDBRANCH   1   2
BRANCH   1  15
HETATM   15  C10 UNL     1      26.576   2.421  52.028  1.00  0.00    -0.079 C 
HETATM   16  C11 UNL     1      26.556   2.726  50.856  1.00  0.00     0.018 C 
BRANCH  16  17
HETATM   17  N3  UNL     1      26.540   3.099  49.508  1.00  0.00    -0.274 N 
HETATM   18  H12 UNL     1      26.105   2.402  48.832  1.00  0.00     0.186 HD
BRANCH  17  19
HETATM   19  C12 UNL     1      27.053   4.306  49.020  1.00  0.00     0.023 C 
HETATM   20  C13 UNL     1      27.514   5.337  48.603  1.00  0.00    -0.055 C 
BRANCH  20  21
HETATM   21  C14 UNL     1      28.090   6.564  48.092  1.00  0.00     0.062 C 
HETATM   22  C15 UNL     1      29.360   6.686  47.743  1.00  0.00    -0.015 C 
BRANCH  22  23
HETATM   23  C16 UNL     1      30.241   5.489  47.888  1.00  0.00     0.067 C 
BRANCH  23  24
HETATM   24  C17 UNL     1      31.653   5.810  48.240  1.00  0.00     0.202 C 
HETATM   25  F1  UNL     1      32.180   6.749  47.381  1.00  0.00    -0.247 F 
BRANCH  24  26
HETATM   26  C18 UNL     1      31.821   6.307  49.647  1.00  0.00     0.259 C 
HETATM   27  F2  UNL     1      32.252   7.616  49.722  1.00  0.00    -0.253 F 
ENDBRANCH  24  26
ENDBRANCH  23  24
ENDBRANCH  22  23
ENDBRANCH  20  21
ENDBRANCH  17  19
ENDBRANCH  16  17
ENDBRANCH   1  15
TORSDOF 12
ENDMDL
MODEL 7
REMARK VINA RESULT:      -6.1      5.776      9.106
REMARK  12 active torsions:
REMARK  status: ('A' for Active; 'I' for Inactive)
REMARK    1  A    between atoms: O1_1  and  C1_2 
REMARK    2  A    between atoms: C5_7  and  C6_8 
REMARK    3  A    between atoms: C6_8  and  N2_9 
REMARK    4  A    between atoms: N2_9  and  C7_10 
REMARK    5  A    between atoms: C8_11  and  C9_12 
REMARK    6  A    between atoms: C9_12  and  C10_13 
REMARK    7  A    between atoms: C11_14  and  N3_15 
REMARK    8  A    between atoms: N3_15  and  C12_16 
REMARK    9  A    between atoms: C13_17  and  C14_18 
REMARK   10  A    between atoms: C15_19  and  C16_20 
REMARK   11  A    between atoms: C16_20  and  C17_21 
REMARK   12  A    between atoms: C17_21  and  C18_23 
ROOT
HETATM    1  C9  UNL     1      26.163   4.884  49.321  1.00  0.00     0.124 C 
ENDROOT
BRANCH   1   2
HETATM    2  C8  UNL     1      26.480   3.435  49.341  1.00  0.00     0.002 C 
HETATM    3  C7  UNL     1      26.607   2.624  50.377  1.00  0.00     0.080 C 
BRANCH   3   4
HETATM    4  N2  UNL     1      26.413   3.212  51.679  1.00  0.00    -0.395 N 
HETATM    5  H7  UNL     1      26.845   4.130  51.549  1.00  0.00     0.159 HD
BRANCH   4   6
HETATM    6  C6  UNL     1      25.717   2.237  52.508  1.00  0.00     0.160 C 
BRANCH   6   7
HETATM    7  C5  UNL     1      26.612   1.126  52.944  1.00  0.00    -0.005 A 
HETATM    8  C1  UNL     1      27.679   1.463  53.730  1.00  0.00     0.091 A 
HETATM    9  C2  UNL     1      28.529   0.484  54.155  1.00  0.00     0.153 A 
HETATM   10  N1  UNL     1      28.335  -0.802  53.815  1.00  0.00    -0.270 NA
HETATM   11  C3  UNL     1      27.290  -1.154  53.041  1.00  0.00     0.117 A 
HETATM   12  C4  UNL     1      26.397  -0.188  52.585  1.00  0.00     0.031 A 
BRANCH   8  13
HETATM   13  O1  UNL     1      28.012   2.748  54.164  1.00  0.00    -0.359 OA
HETATM   14  H1  UNL     1      28.933   3.142  53.979  1.00  0.00     0.217 HD
ENDBRANCH   8  13
ENDBRANCH   6   7
ENDBRANCH   4   6
ENDBRANCH   3   4
ENDBRANCH   1   2
BRANCH   1  15
HETATM   15  C10 UNL     1      27.249   5.639  48.640  1.00  0.00    -0.079 C 
HETATM   16  C11 UNL     1      28.129   6.244  48.072  1.00  0.00     0.018 C 
BRANCH  16  17
HETATM   17  N3  UNL     1      29.161   6.925  47.417  1.00  0.00    -0.274 N 
HETATM   18  H12 UNL     1      28.899   7.415  46.509  1.00  0.00     0.186 HD
BRANCH  17  19
HETATM   19  C12 UNL     1      30.479   6.990  47.882  1.00  0.00     0.023 C 
HETATM   20  C13 UNL     1      31.608   7.060  48.295  1.00  0.00    -0.055 C 
BRANCH  20  21
HETATM   21  C14 UNL     1      32.957   7.155  48.814  1.00  0.00     0.062 C 
HETATM   22  C15 UNL     1      33.860   6.198  48.676  1.00  0.00    -0.015 C 
BRANCH  22  23
HETATM   23  C16 UNL     1      33.460   4.959  47.947  1.00  0.00     0.067 C 
BRANCH  23  24
HETATM   24  C17 UNL     1      34.605   4.124  47.487  1.00  0.00     0.202 C 
HETATM   25  F1  UNL     1      35.104   3.352  48.513  1.00  0.00    -0.247 F 
BRANCH  24  26
HETATM   26  C18 UNL     1      34.264   3.220  46.337  1.00  0.00     0.259 C 
HETATM   27  F2  UNL     1      33.169   2.415  46.574  1.00  0.00    -0.253 F 
ENDBRANCH  24  26
ENDBRANCH  23  24
ENDBRANCH  22  23
ENDBRANCH  20  21
ENDBRANCH  17  19
ENDBRANCH  16  17
ENDBRANCH   1  15
TORSDOF 12
ENDMDL
MODEL 8
REMARK VINA RESULT:      -6.0      2.813      6.738
REMARK  12 active torsions:
REMARK  status: ('A' for Active; 'I' for Inactive)
REMARK    1  A    between atoms: O1_1  and  C1_2 
REMARK    2  A    between atoms: C5_7  and  C6_8 
REMARK    3  A    between atoms: C6_8  and  N2_9 
REMARK    4  A    between atoms: N2_9  and  C7_10 
REMARK    5  A    between atoms: C8_11  and  C9_12 
REMARK    6  A    between atoms: C9_12  and  C10_13 
REMARK    7  A    between atoms: C11_14  and  N3_15 
REMARK    8  A    between atoms: N3_15  and  C12_16 
REMARK    9  A    between atoms: C13_17  and  C14_18 
REMARK   10  A    between atoms: C15_19  and  C16_20 
REMARK   11  A    between atoms: C16_20  and  C17_21 
REMARK   12  A    between atoms: C17_21  and  C18_23 
ROOT
HETATM    1  C9  UNL     1      22.212  -0.288  52.508  1.00  0.00     0.124 C 
ENDROOT
BRANCH   1   2
HETATM    2  C8  UNL     1      20.855   0.139  52.929  1.00  0.00     0.002 C 
HETATM    3  C7  UNL     1      19.900   0.706  52.213  1.00  0.00     0.080 C 
BRANCH   3   4
HETATM    4  N2  UNL     1      20.201   0.952  50.824  1.00  0.00    -0.395 N 
HETATM    5  H7  UNL     1      20.488   0.020  50.515  1.00  0.00     0.159 HD
BRANCH   4   6
HETATM    6  C6  UNL     1      19.953   2.363  50.559  1.00  0.00     0.160 C 
BRANCH   6   7
HETATM    7  C5  UNL     1      21.153   3.207  50.825  1.00  0.00    -0.005 A 
HETATM    8  C1  UNL     1      22.235   3.019  50.008  1.00  0.00     0.091 A 
HETATM    9  C2  UNL     1      23.360   3.766  50.210  1.00  0.00     0.153 A 
HETATM   10  N1  UNL     1      23.421   4.679  51.194  1.00  0.00    -0.270 NA
HETATM   11  C3  UNL     1      22.367   4.878  52.009  1.00  0.00     0.117 A 
HETATM   12  C4  UNL     1      21.199   4.139  51.840  1.00  0.00     0.031 A 
BRANCH   8  13
HETATM   13  O1  UNL     1      22.323   2.113  48.950  1.00  0.00    -0.359 OA
HETATM   14  H1  UNL     1      22.928   1.295  49.008  1.00  0.00     0.217 HD
ENDBRANCH   8  13
ENDBRANCH   6   7
ENDBRANCH   4   6
ENDBRANCH   3   4
ENDBRANCH   1   2
BRANCH   1  15
HETATM   15  C10 UNL     1      23.205   0.773  52.820  1.00  0.00    -0.079 C 
HETATM   16  C11 UNL     1      24.002   1.650  53.072  1.00  0.00     0.018 C 
BRANCH  16  17
HETATM   17  N3  UNL     1      24.924   2.667  53.339  1.00  0.00    -0.274 N 
HETATM   18  H12 UNL     1      24.524   3.647  53.449  1.00  0.00     0.186 HD
BRANCH  17  19
HETATM   19  C12 UNL     1      26.303   2.465  53.464  1.00  0.00     0.023 C 
HETATM   20  C13 UNL     1      27.489   2.299  53.591  1.00  0.00    -0.055 C 
BRANCH  20  21
HETATM   21  C14 UNL     1      28.912   2.098  53.768  1.00  0.00     0.062 C 
HETATM   22  C15 UNL     1      29.449   0.938  54.106  1.00  0.00    -0.015 C 
BRANCH  22  23
HETATM   23  C16 UNL     1      28.532  -0.222  54.315  1.00  0.00     0.067 C 
BRANCH  23  24
HETATM   24  C17 UNL     1      28.385  -1.106  53.125  1.00  0.00     0.202 C 
HETATM   25  F1  UNL     1      28.960  -2.338  53.345  1.00  0.00    -0.247 F 
BRANCH  24  26
HETATM   26  C18 UNL     1      26.957  -1.316  52.708  1.00  0.00     0.259 C 
HETATM   27  F2  UNL     1      26.512  -0.397  51.780  1.00  0.00    -0.253 F 
ENDBRANCH  24  26
ENDBRANCH  23  24
ENDBRANCH  22  23
ENDBRANCH  20  21
ENDBRANCH  17  19
ENDBRANCH  16  17
ENDBRANCH   1  15
TORSDOF 12
ENDMDL
MODEL 9
REMARK VINA RESULT:      -6.0      5.078      8.342
REMARK  12 active torsions:
REMARK  status: ('A' for Active; 'I' for Inactive)
REMARK    1  A    between atoms: O1_1  and  C1_2 
REMARK    2  A    between atoms: C5_7  and  C6_8 
REMARK    3  A    between atoms: C6_8  and  N2_9 
REMARK    4  A    between atoms: N2_9  and  C7_10 
REMARK    5  A    between atoms: C8_11  and  C9_12 
REMARK    6  A    between atoms: C9_12  and  C10_13 
REMARK    7  A    between atoms: C11_14  and  N3_15 
REMARK    8  A    between atoms: N3_15  and  C12_16 
REMARK    9  A    between atoms: C13_17  and  C14_18 
REMARK   10  A    between atoms: C15_19  and  C16_20 
REMARK   11  A    between atoms: C16_20  and  C17_21 
REMARK   12  A    between atoms: C17_21  and  C18_23 
ROOT
HETATM    1  C9  UNL     1      24.907   5.320  50.091  1.00  0.00     0.124 C 
ENDROOT
BRANCH   1   2
HETATM    2  C8  UNL     1      25.803   4.418  49.327  1.00  0.00     0.002 C 
HETATM    3  C7  UNL     1      26.615   3.476  49.774  1.00  0.00     0.080 C 
BRANCH   3   4
HETATM    4  N2  UNL     1      26.647   3.282  51.202  1.00  0.00    -0.395 N 
HETATM    5  H7  UNL     1      27.279   4.034  51.491  1.00  0.00     0.159 HD
BRANCH   4   6
HETATM    6  C6  UNL     1      25.789   2.148  51.516  1.00  0.00     0.160 C 
BRANCH   6   7
HETATM    7  C5  UNL     1      26.491   1.119  52.335  1.00  0.00    -0.005 A 
HETATM    8  C1  UNL     1      27.079   1.546  53.494  1.00  0.00     0.091 A 
HETATM    9  C2  UNL     1      27.735   0.644  54.280  1.00  0.00     0.153 A 
HETATM   10  N1  UNL     1      27.813  -0.653  53.936  1.00  0.00    -0.270 NA
HETATM   11  C3  UNL     1      27.241  -1.094  52.798  1.00  0.00     0.117 A 
HETATM   12  C4  UNL     1      26.561  -0.208  51.966  1.00  0.00     0.031 A 
BRANCH   8  13
HETATM   13  O1  UNL     1      27.085   2.853  53.984  1.00  0.00    -0.359 OA
HETATM   14  H1  UNL     1      26.884   3.643  53.372  1.00  0.00     0.217 HD
ENDBRANCH   8  13
ENDBRANCH   6   7
ENDBRANCH   4   6
ENDBRANCH   3   4
ENDBRANCH   1   2
BRANCH   1  15
HETATM   15  C10 UNL     1      25.521   6.668  50.221  1.00  0.00    -0.079 C 
HETATM   16  C11 UNL     1      26.018   7.765  50.345  1.00  0.00     0.018 C 
BRANCH  16  17
HETATM   17  N3  UNL     1      26.570   9.043  50.487  1.00  0.00    -0.274 N 
HETATM   18  H12 UNL     1      26.072   9.697  51.162  1.00  0.00     0.186 HD
BRANCH  17  19
HETATM   19  C12 UNL     1      27.708   9.488  49.805  1.00  0.00     0.023 C 
HETATM   20  C13 UNL     1      28.674   9.880  49.204  1.00  0.00    -0.055 C 
BRANCH  20  21
HETATM   21  C14 UNL     1      29.824  10.369  48.470  1.00  0.00     0.062 C 
HETATM   22  C15 UNL     1      30.825   9.597  48.083  1.00  0.00    -0.015 C 
BRANCH  22  23
HETATM   23  C16 UNL     1      30.760   8.145  48.424  1.00  0.00     0.067 C 
BRANCH  23  24
HETATM   24  C17 UNL     1      31.935   7.644  49.190  1.00  0.00     0.202 C 
HETATM   25  F1  UNL     1      32.013   8.240  50.430  1.00  0.00    -0.247 F 
BRANCH  24  26
HETATM   26  C18 UNL     1      31.937   6.154  49.380  1.00  0.00     0.259 C 
HETATM   27  F2  UNL     1      31.718   5.764  50.685  1.00  0.00    -0.253 F 
ENDBRANCH  24  26
ENDBRANCH  23  24
ENDBRANCH  22  23
ENDBRANCH  20  21
ENDBRANCH  17  19
ENDBRANCH  16  17
ENDBRANCH   1  15
TORSDOF 12
ENDMDL
