MODEL 1
REMARK VINA RESULT:      -7.9      0.000      0.000
REMARK  3 active torsions:
REMARK  status: ('A' for Active; 'I' for Inactive)
REMARK    1  A    between atoms: N1_2  and  C2_3 
REMARK    2  A    between atoms: C5_6  and  N2_7 
REMARK    3  A    between atoms: N3_9  and  C7_10 
ROOT
HETATM    1  N2  UNL     1      23.845   0.783  53.095  1.00  0.00    -0.278 N 
HETATM    2  C6  UNL     1      25.105   0.814  53.814  1.00  0.00     0.278 C 
HETATM    3  N3  UNL     1      26.238   0.876  52.931  1.00  0.00    -0.335 N 
HETATM    4  C13 UNL     1      26.092   1.601  51.699  1.00  0.00     0.111 C 
HETATM    5  C14 UNL     1      24.910   1.920  51.158  1.00  0.00     0.124 C 
HETATM    6  N5  UNL     1      23.745   1.492  51.889  1.00  0.00    -0.307 N 
HETATM    7  H18 UNL     1      22.823   1.742  51.465  1.00  0.00     0.186 HD
ENDROOT
BRANCH   1   8
HETATM    8  C5  UNL     1      22.651   0.102  53.463  1.00  0.00     0.036 A 
HETATM    9  C4  UNL     1      22.738  -1.057  54.421  1.00  0.00     0.088 A 
HETATM   10  C3  UNL     1      21.316  -1.476  54.541  1.00  0.00     0.008 A 
HETATM   11  C2  UNL     1      20.549  -0.690  53.779  1.00  0.00     0.026 A 
HETATM   12  C15 UNL     1      21.387   0.284  53.118  1.00  0.00     0.055 A 
BRANCH  11  13
HETATM   13  N1  UNL     1      19.142  -0.875  53.710  1.00  0.00    -0.394 N 
HETATM   14  C1  UNL     1      18.166  -0.797  52.630  1.00  0.00     0.146 C 
HETATM   15  H4  UNL     1      18.743  -1.117  54.642  1.00  0.00     0.159 HD
ENDBRANCH  11  13
ENDBRANCH   1   8
BRANCH   3  16
HETATM   16  C7  UNL     1      27.520   0.288  53.140  1.00  0.00     0.060 A 
HETATM   17  C8  UNL     1      27.582  -1.095  52.969  1.00  0.00     0.033 A 
HETATM   18  C9  UNL     1      28.788  -1.738  53.152  1.00  0.00     0.022 A 
HETATM   19  C10 UNL     1      29.930  -1.010  53.506  1.00  0.00     0.117 A 
HETATM   20  N4  UNL     1      29.841   0.323  53.664  1.00  0.00    -0.264 NA
HETATM   21  C11 UNL     1      28.672   0.966  53.488  1.00  0.00     0.057 A 
HETATM   22  C12 UNL     1      28.564   2.436  53.660  1.00  0.00     0.072 C 
ENDBRANCH   3  16
TORSDOF 3
ENDMDL
MODEL 2
REMARK VINA RESULT:      -7.5      0.943      1.719
REMARK  3 active torsions:
REMARK  status: ('A' for Active; 'I' for Inactive)
REMARK    1  A    between atoms: N1_2  and  C2_3 
REMARK    2  A    between atoms: C5_6  and  N2_7 
REMARK    3  A    between atoms: N3_9  and  C7_10 
ROOT
HETATM    1  N2  UNL     1      23.194   1.049  52.882  1.00  0.00    -0.278 N 
HETATM    2  C6  UNL     1      24.395   1.353  53.636  1.00  0.00     0.278 C 
HETATM    3  N3  UNL     1      25.547   1.513  52.791  1.00  0.00    -0.335 N 
HETATM    4  C13 UNL     1      25.350   2.082  51.487  1.00  0.00     0.111 C 
HETATM    5  C14 UNL     1      24.162   2.151  50.875  1.00  0.00     0.124 C 
HETATM    6  N5  UNL     1      23.044   1.612  51.606  1.00  0.00    -0.307 N 
HETATM    7  H18 UNL     1      22.116   1.667  51.127  1.00  0.00     0.186 HD
ENDROOT
BRANCH   1   8
HETATM    8  C5  UNL     1      22.105   0.221  53.277  1.00  0.00     0.036 A 
HETATM    9  C4  UNL     1      22.388  -1.025  54.073  1.00  0.00     0.088 A 
HETATM   10  C3  UNL     1      21.026  -1.587  54.277  1.00  0.00     0.008 A 
HETATM   11  C2  UNL     1      20.121  -0.794  53.695  1.00  0.00     0.026 A 
HETATM   12  C15 UNL     1      20.801   0.322  53.080  1.00  0.00     0.055 A 
BRANCH  11  13
HETATM   13  N1  UNL     1      18.734  -1.102  53.740  1.00  0.00    -0.394 N 
HETATM   14  C1  UNL     1      17.688  -1.193  52.728  1.00  0.00     0.146 C 
HETATM   15  H4  UNL     1      18.419  -1.301  54.713  1.00  0.00     0.159 HD
ENDBRANCH  11  13
ENDBRANCH   1   8
BRANCH   3  16
HETATM   16  C7  UNL     1      26.894   1.164  53.103  1.00  0.00     0.060 A 
HETATM   17  C8  UNL     1      27.700   2.215  53.541  1.00  0.00     0.033 A 
HETATM   18  C9  UNL     1      29.016   1.959  53.863  1.00  0.00     0.022 A 
HETATM   19  C10 UNL     1      29.532   0.662  53.750  1.00  0.00     0.117 A 
HETATM   20  N4  UNL     1      28.731  -0.331  53.325  1.00  0.00    -0.264 NA
HETATM   21  C11 UNL     1      27.444  -0.098  53.006  1.00  0.00     0.057 A 
HETATM   22  C12 UNL     1      26.554  -1.188  52.536  1.00  0.00     0.072 C 
ENDBRANCH   3  16
TORSDOF 3
ENDMDL
MODEL 3
REMARK VINA RESULT:      -7.5      3.419      6.222
REMARK  3 active torsions:
REMARK  status: ('A' for Active; 'I' for Inactive)
REMARK    1  A    between atoms: N1_2  and  C2_3 
REMARK    2  A    between atoms: C5_6  and  N2_7 
REMARK    3  A    between atoms: N3_9  and  C7_10 
ROOT
HETATM    1  N2  UNL     1      25.691   3.429  50.938  1.00  0.00    -0.278 N 
HETATM    2  C6  UNL     1      26.305   2.114  50.940  1.00  0.00     0.278 C 
HETATM    3  N3  UNL     1      26.374   1.544  52.258  1.00  0.00    -0.335 N 
HETATM    4  C13 UNL     1      25.313   1.846  53.178  1.00  0.00     0.111 C 
HETATM    5  C14 UNL     1      24.466   2.872  53.028  1.00  0.00     0.124 C 
HETATM    6  N5  UNL     1      24.668   3.691  51.860  1.00  0.00    -0.307 N 
HETATM    7  H18 UNL     1      24.005   4.491  51.746  1.00  0.00     0.186 HD
ENDROOT
BRANCH   1   8
HETATM    8  C5  UNL     1      26.001   4.532  50.094  1.00  0.00     0.036 A 
HETATM    9  C4  UNL     1      27.142   4.406  49.119  1.00  0.00     0.088 A 
HETATM   10  C3  UNL     1      27.134   5.734  48.449  1.00  0.00     0.008 A 
HETATM   11  C2  UNL     1      26.156   6.489  48.957  1.00  0.00     0.026 A 
HETATM   12  C15 UNL     1      25.461   5.733  49.974  1.00  0.00     0.055 A 
BRANCH  11  13
HETATM   13  N1  UNL     1      25.927   7.812  48.492  1.00  0.00    -0.394 N 
HETATM   14  C1  UNL     1      26.304   9.133  48.982  1.00  0.00     0.146 C 
HETATM   15  H4  UNL     1      25.369   7.816  47.612  1.00  0.00     0.159 HD
ENDBRANCH  11  13
ENDBRANCH   1   8
BRANCH   3  16
HETATM   16  C7  UNL     1      27.397   0.693  52.770  1.00  0.00     0.060 A 
HETATM   17  C8  UNL     1      27.188  -0.674  52.587  1.00  0.00     0.033 A 
HETATM   18  C9  UNL     1      28.133  -1.563  53.055  1.00  0.00     0.022 A 
HETATM   19  C10 UNL     1      29.282  -1.097  53.704  1.00  0.00     0.117 A 
HETATM   20  N4  UNL     1      29.456   0.227  53.866  1.00  0.00    -0.264 NA
HETATM   21  C11 UNL     1      28.544   1.108  53.416  1.00  0.00     0.057 A 
HETATM   22  C12 UNL     1      28.729   2.570  53.590  1.00  0.00     0.072 C 
ENDBRANCH   3  16
TORSDOF 3
ENDMDL
MODEL 4
REMARK VINA RESULT:      -7.3      3.753      6.648
REMARK  3 active torsions:
REMARK  status: ('A' for Active; 'I' for Inactive)
REMARK    1  A    between atoms: N1_2  and  C2_3 
REMARK    2  A    between atoms: C5_6  and  N2_7 
REMARK    3  A    between atoms: N3_9  and  C7_10 
ROOT
HETATM    1  N2  UNL     1      25.768   3.787  50.641  1.00  0.00    -0.278 N 
HETATM    2  C6  UNL     1      26.413   2.509  50.874  1.00  0.00     0.278 C 
HETATM    3  N3  UNL     1      26.282   2.069  52.237  1.00  0.00    -0.335 N 
HETATM    4  C13 UNL     1      25.075   2.407  52.938  1.00  0.00     0.111 C 
HETATM    5  C14 UNL     1      24.233   3.372  52.552  1.00  0.00     0.124 C 
HETATM    6  N5  UNL     1      24.598   4.086  51.355  1.00  0.00    -0.307 N 
HETATM    7  H18 UNL     1      23.939   4.840  51.055  1.00  0.00     0.186 HD
ENDROOT
BRANCH   1   8
HETATM    8  C5  UNL     1      26.178   4.819  49.751  1.00  0.00     0.036 A 
HETATM    9  C4  UNL     1      27.455   4.645  48.971  1.00  0.00     0.088 A 
HETATM   10  C3  UNL     1      27.520   5.906  48.185  1.00  0.00     0.008 A 
HETATM   11  C2  UNL     1      26.461   6.669  48.470  1.00  0.00     0.026 A 
HETATM   12  C15 UNL     1      25.638   5.986  49.440  1.00  0.00     0.055 A 
BRANCH  11  13
HETATM   13  N1  UNL     1      26.278   7.937  47.853  1.00  0.00    -0.394 N 
HETATM   14  C1  UNL     1      25.482   8.403  46.724  1.00  0.00     0.146 C 
HETATM   15  H4  UNL     1      26.844   8.675  48.322  1.00  0.00     0.159 HD
ENDBRANCH  11  13
ENDBRANCH   1   8
BRANCH   3  16
HETATM   16  C7  UNL     1      27.232   1.320  52.991  1.00  0.00     0.060 A 
HETATM   17  C8  UNL     1      28.251   2.066  53.583  1.00  0.00     0.033 A 
HETATM   18  C9  UNL     1      29.209   1.413  54.329  1.00  0.00     0.022 A 
HETATM   19  C10 UNL     1      29.157   0.023  54.488  1.00  0.00     0.117 A 
HETATM   20  N4  UNL     1      28.162  -0.670  53.905  1.00  0.00    -0.264 NA
HETATM   21  C11 UNL     1      27.219  -0.049  53.173  1.00  0.00     0.057 A 
HETATM   22  C12 UNL     1      26.118  -0.805  52.527  1.00  0.00     0.072 C 
ENDBRANCH   3  16
TORSDOF 3
ENDMDL
MODEL 5
REMARK VINA RESULT:      -7.3      2.359      4.146
REMARK  3 active torsions:
REMARK  status: ('A' for Active; 'I' for Inactive)
REMARK    1  A    between atoms: N1_2  and  C2_3 
REMARK    2  A    between atoms: C5_6  and  N2_7 
REMARK    3  A    between atoms: N3_9  and  C7_10 
ROOT
HETATM    1  N2  UNL     1      23.982   1.511  52.497  1.00  0.00    -0.278 N 
HETATM    2  C6  UNL     1      25.251   1.005  52.008  1.00  0.00     0.278 C 
HETATM    3  N3  UNL     1      25.875   0.100  52.936  1.00  0.00    -0.335 N 
HETATM    4  C13 UNL     1      25.022  -0.737  53.733  1.00  0.00     0.111 C 
HETATM    5  C14 UNL     1      23.719  -0.504  53.930  1.00  0.00     0.124 C 
HETATM    6  N5  UNL     1      23.184   0.667  53.284  1.00  0.00    -0.307 N 
HETATM    7  H18 UNL     1      22.166   0.848  53.439  1.00  0.00     0.186 HD
ENDROOT
BRANCH   1   8
HETATM    8  C5  UNL     1      23.417   2.798  52.278  1.00  0.00     0.036 A 
HETATM    9  C4  UNL     1      21.919   2.936  52.216  1.00  0.00     0.088 A 
HETATM   10  C3  UNL     1      21.744   4.394  51.980  1.00  0.00     0.008 A 
HETATM   11  C2  UNL     1      22.940   4.986  51.918  1.00  0.00     0.026 A 
HETATM   12  C15 UNL     1      23.968   3.988  52.104  1.00  0.00     0.055 A 
BRANCH  11  13
HETATM   13  N1  UNL     1      23.060   6.385  51.699  1.00  0.00    -0.394 N 
HETATM   14  C1  UNL     1      24.029   7.217  50.995  1.00  0.00     0.146 C 
HETATM   15  H4  UNL     1      22.278   6.909  52.146  1.00  0.00     0.159 HD
ENDBRANCH  11  13
ENDBRANCH   1   8
BRANCH   3  16
HETATM   16  C7  UNL     1      27.272  -0.066  53.163  1.00  0.00     0.060 A 
HETATM   17  C8  UNL     1      27.754  -1.367  53.011  1.00  0.00     0.033 A 
HETATM   18  C9  UNL     1      29.096  -1.610  53.213  1.00  0.00     0.022 A 
HETATM   19  C10 UNL     1      29.959  -0.565  53.565  1.00  0.00     0.117 A 
HETATM   20  N4  UNL     1      29.465   0.679  53.705  1.00  0.00    -0.264 NA
HETATM   21  C11 UNL     1      28.158   0.933  53.511  1.00  0.00     0.057 A 
HETATM   22  C12 UNL     1      27.606   2.302  53.663  1.00  0.00     0.072 C 
ENDBRANCH   3  16
TORSDOF 3
ENDMDL
MODEL 6
REMARK VINA RESULT:      -7.1      3.431      6.258
REMARK  3 active torsions:
REMARK  status: ('A' for Active; 'I' for Inactive)
REMARK    1  A    between atoms: N1_2  and  C2_3 
REMARK    2  A    between atoms: C5_6  and  N2_7 
REMARK    3  A    between atoms: N3_9  and  C7_10 
ROOT
HETATM    1  N2  UNL     1      24.668   2.033  51.579  1.00  0.00    -0.278 N 
HETATM    2  C6  UNL     1      25.072   3.425  51.642  1.00  0.00     0.278 C 
HETATM    3  N3  UNL     1      24.864   4.113  50.397  1.00  0.00    -0.335 N 
HETATM    4  C13 UNL     1      23.738   3.723  49.594  1.00  0.00     0.111 C 
HETATM    5  C14 UNL     1      23.084   2.564  49.739  1.00  0.00     0.124 C 
HETATM    6  N5  UNL     1      23.573   1.689  50.774  1.00  0.00    -0.307 N 
HETATM    7  H18 UNL     1      23.061   0.785  50.885  1.00  0.00     0.186 HD
ENDROOT
BRANCH   1   8
HETATM    8  C5  UNL     1      25.259   0.926  52.251  1.00  0.00     0.036 A 
HETATM    9  C4  UNL     1      24.538   0.315  53.423  1.00  0.00     0.088 A 
HETATM   10  C3  UNL     1      25.460  -0.780  53.827  1.00  0.00     0.008 A 
HETATM   11  C2  UNL     1      26.526  -0.790  53.021  1.00  0.00     0.026 A 
HETATM   12  C15 UNL     1      26.390   0.270  52.049  1.00  0.00     0.055 A 
BRANCH  11  13
HETATM   13  N1  UNL     1      27.568  -1.742  53.189  1.00  0.00    -0.394 N 
HETATM   14  C1  UNL     1      29.015  -1.639  53.333  1.00  0.00     0.146 C 
HETATM   15  H4  UNL     1      27.196  -2.715  53.211  1.00  0.00     0.159 HD
ENDBRANCH  11  13
ENDBRANCH   1   8
BRANCH   3  16
HETATM   16  C7  UNL     1      25.662   5.161  49.852  1.00  0.00     0.060 A 
HETATM   17  C8  UNL     1      26.699   4.751  49.013  1.00  0.00     0.033 A 
HETATM   18  C9  UNL     1      27.516   5.707  48.446  1.00  0.00     0.022 A 
HETATM   19  C10 UNL     1      27.306   7.065  48.712  1.00  0.00     0.117 A 
HETATM   20  N4  UNL     1      26.299   7.429  49.526  1.00  0.00    -0.264 NA
HETATM   21  C11 UNL     1      25.492   6.510  50.087  1.00  0.00     0.057 A 
HETATM   22  C12 UNL     1      24.378   6.904  50.985  1.00  0.00     0.072 C 
ENDBRANCH   3  16
TORSDOF 3
ENDMDL
MODEL 7
REMARK VINA RESULT:      -7.1      1.638      7.252
REMARK  3 active torsions:
REMARK  status: ('A' for Active; 'I' for Inactive)
REMARK    1  A    between atoms: N1_2  and  C2_3 
REMARK    2  A    between atoms: C5_6  and  N2_7 
REMARK    3  A    between atoms: N3_9  and  C7_10 
ROOT
HETATM    1  N2  UNL     1      24.037   1.556  52.333  1.00  0.00    -0.278 N 
HETATM    2  C6  UNL     1      22.965   0.794  51.721  1.00  0.00     0.278 C 
HETATM    3  N3  UNL     1      21.668   1.343  52.011  1.00  0.00    -0.335 N 
HETATM    4  C13 UNL     1      21.556   2.769  52.141  1.00  0.00     0.111 C 
HETATM    5  C14 UNL     1      22.597   3.582  52.356  1.00  0.00     0.124 C 
HETATM    6  N5  UNL     1      23.885   2.945  52.454  1.00  0.00    -0.307 N 
HETATM    7  H18 UNL     1      24.697   3.582  52.623  1.00  0.00     0.186 HD
ENDROOT
BRANCH   1   8
HETATM    8  C5  UNL     1      25.270   1.065  52.846  1.00  0.00     0.036 A 
HETATM    9  C4  UNL     1      26.107   1.964  53.717  1.00  0.00     0.088 A 
HETATM   10  C3  UNL     1      27.275   1.100  54.035  1.00  0.00     0.008 A 
HETATM   11  C2  UNL     1      27.129  -0.090  53.444  1.00  0.00     0.026 A 
HETATM   12  C15 UNL     1      25.883  -0.099  52.712  1.00  0.00     0.055 A 
BRANCH  11  13
HETATM   13  N1  UNL     1      28.109  -1.109  53.585  1.00  0.00    -0.394 N 
HETATM   14  C1  UNL     1      29.566  -1.109  53.617  1.00  0.00     0.146 C 
HETATM   15  H4  UNL     1      27.670  -2.049  53.684  1.00  0.00     0.159 HD
ENDBRANCH  11  13
ENDBRANCH   1   8
BRANCH   3  16
HETATM   16  C7  UNL     1      20.451   0.621  52.188  1.00  0.00     0.060 A 
HETATM   17  C8  UNL     1      19.577   0.644  51.102  1.00  0.00     0.033 A 
HETATM   18  C9  UNL     1      18.378  -0.032  51.195  1.00  0.00     0.022 A 
HETATM   19  C10 UNL     1      18.048  -0.728  52.364  1.00  0.00     0.117 A 
HETATM   20  N4  UNL     1      18.911  -0.732  53.395  1.00  0.00    -0.264 NA
HETATM   21  C11 UNL     1      20.085  -0.078  53.321  1.00  0.00     0.057 A 
HETATM   22  C12 UNL     1      21.043  -0.077  54.453  1.00  0.00     0.072 C 
ENDBRANCH   3  16
TORSDOF 3
ENDMDL
MODEL 8
REMARK VINA RESULT:      -6.9      3.907      7.580
REMARK  3 active torsions:
REMARK  status: ('A' for Active; 'I' for Inactive)
REMARK    1  A    between atoms: N1_2  and  C2_3 
REMARK    2  A    between atoms: C5_6  and  N2_7 
REMARK    3  A    between atoms: N3_9  and  C7_10 
ROOT
HETATM    1  N2  UNL     1      24.700   4.620  50.396  1.00  0.00    -0.278 N 
HETATM    2  C6  UNL     1      24.039   3.329  50.396  1.00  0.00     0.278 C 
HETATM    3  N3  UNL     1      23.499   2.990  51.685  1.00  0.00    -0.335 N 
HETATM    4  C13 UNL     1      22.998   4.058  52.505  1.00  0.00     0.111 C 
HETATM    5  C14 UNL     1      23.305   5.348  52.320  1.00  0.00     0.124 C 
HETATM    6  N5  UNL     1      24.190   5.633  51.220  1.00  0.00    -0.307 N 
HETATM    7  H18 UNL     1      24.429   6.641  51.077  1.00  0.00     0.186 HD
ENDROOT
BRANCH   1   8
HETATM    8  C5  UNL     1      25.843   5.011  49.642  1.00  0.00     0.036 A 
HETATM    9  C4  UNL     1      26.905   3.987  49.343  1.00  0.00     0.088 A 
HETATM   10  C3  UNL     1      27.894   4.775  48.560  1.00  0.00     0.008 A 
HETATM   11  C2  UNL     1      27.468   6.036  48.437  1.00  0.00     0.026 A 
HETATM   12  C15 UNL     1      26.197   6.169  49.110  1.00  0.00     0.055 A 
BRANCH  11  13
HETATM   13  N1  UNL     1      28.229   7.006  47.730  1.00  0.00    -0.394 N 
HETATM   14  C1  UNL     1      29.650   7.332  47.680  1.00  0.00     0.146 C 
HETATM   15  H4  UNL     1      27.623   7.600  47.125  1.00  0.00     0.159 HD
ENDBRANCH  11  13
ENDBRANCH   1   8
BRANCH   3  16
HETATM   16  C7  UNL     1      23.399   1.689  52.258  1.00  0.00     0.060 A 
HETATM   17  C8  UNL     1      22.206   1.011  52.005  1.00  0.00     0.033 A 
HETATM   18  C9  UNL     1      22.034  -0.255  52.524  1.00  0.00     0.022 A 
HETATM   19  C10 UNL     1      23.042  -0.846  53.294  1.00  0.00     0.117 A 
HETATM   20  N4  UNL     1      24.182  -0.169  53.522  1.00  0.00    -0.264 NA
HETATM   21  C11 UNL     1      24.367   1.067  53.022  1.00  0.00     0.057 A 
HETATM   22  C12 UNL     1      25.620   1.822  53.268  1.00  0.00     0.072 C 
ENDBRANCH   3  16
TORSDOF 3
ENDMDL
MODEL 9
REMARK VINA RESULT:      -6.9      2.495      7.039
REMARK  3 active torsions:
REMARK  status: ('A' for Active; 'I' for Inactive)
REMARK    1  A    between atoms: N1_2  and  C2_3 
REMARK    2  A    between atoms: C5_6  and  N2_7 
REMARK    3  A    between atoms: N3_9  and  C7_10 
ROOT
HETATM    1  N2  UNL     1      25.604   1.842  51.787  1.00  0.00    -0.278 N 
HETATM    2  C6  UNL     1      24.538   1.705  52.762  1.00  0.00     0.278 C 
HETATM    3  N3  UNL     1      24.197   0.331  53.011  1.00  0.00    -0.335 N 
HETATM    4  C13 UNL     1      25.251  -0.644  52.952  1.00  0.00     0.111 C 
HETATM    5  C14 UNL     1      26.429  -0.433  52.354  1.00  0.00     0.124 C 
HETATM    6  N5  UNL     1      26.607   0.863  51.750  1.00  0.00    -0.307 N 
HETATM    7  H18 UNL     1      27.529   1.025  51.284  1.00  0.00     0.186 HD
ENDROOT
BRANCH   1   8
HETATM    8  C5  UNL     1      25.775   2.877  50.825  1.00  0.00     0.036 A 
HETATM    9  C4  UNL     1      24.567   3.399  50.094  1.00  0.00     0.088 A 
HETATM   10  C3  UNL     1      25.157   4.438  49.208  1.00  0.00     0.008 A 
HETATM   11  C2  UNL     1      26.478   4.496  49.401  1.00  0.00     0.026 A 
HETATM   12  C15 UNL     1      26.849   3.526  50.405  1.00  0.00     0.055 A 
BRANCH  11  13
HETATM   13  N1  UNL     1      27.290   5.410  48.675  1.00  0.00    -0.394 N 
HETATM   14  C1  UNL     1      28.690   5.411  48.266  1.00  0.00     0.146 C 
HETATM   15  H4  UNL     1      26.750   6.252  48.385  1.00  0.00     0.159 HD
ENDBRANCH  11  13
ENDBRANCH   1   8
BRANCH   3  16
HETATM   16  C7  UNL     1      22.906  -0.190  53.318  1.00  0.00     0.060 A 
HETATM   17  C8  UNL     1      22.823  -0.932  54.496  1.00  0.00     0.033 A 
HETATM   18  C9  UNL     1      21.607  -1.469  54.863  1.00  0.00     0.022 A 
HETATM   19  C10 UNL     1      20.476  -1.270  54.063  1.00  0.00     0.117 A 
HETATM   20  N4  UNL     1      20.587  -0.550  52.932  1.00  0.00    -0.264 NA
HETATM   21  C11 UNL     1      21.766  -0.019  52.559  1.00  0.00     0.057 A 
HETATM   22  C12 UNL     1      21.897   0.777  51.314  1.00  0.00     0.072 C 
ENDBRANCH   3  16
TORSDOF 3
ENDMDL
