MODEL 1
REMARK VINA RESULT:      -8.9      0.000      0.000
REMARK  6 active torsions:
REMARK  status: ('A' for Active; 'I' for Inactive)
REMARK    1  A    between atoms: O1_2  and  C2_3 
REMARK    2  A    between atoms: C6_9  and  O2_10 
REMARK    3  A    between atoms: O2_10  and  C7_11 
REMARK    4  A    between atoms: C10_14  and  N3_15 
REMARK       I    between atoms: N3_15  and  C11_16 
REMARK    5  A    between atoms: C11_16  and  C12_18 
REMARK    6  A    between atoms: C22_28  and  O4_29 
ROOT
HETATM    1  C7  UNL     1      26.820   5.621  48.765  1.00  0.00     0.078 A 
HETATM    2  C8  UNL     1      27.207   4.297  49.002  1.00  0.00     0.039 A 
HETATM    3  C9  UNL     1      26.487   3.490  49.882  1.00  0.00     0.032 A 
HETATM    4  C10 UNL     1      25.396   3.999  50.516  1.00  0.00     0.035 A 
HETATM    5  C18 UNL     1      25.011   5.305  50.282  1.00  0.00     0.032 A 
HETATM    6  C19 UNL     1      25.712   6.120  49.417  1.00  0.00     0.039 A 
ENDROOT
BRANCH   1   7
HETATM    7  O2  UNL     1      27.681   6.221  47.862  1.00  0.00    -0.291 OA
BRANCH   7   8
HETATM    8  C6  UNL     1      28.579   7.159  48.350  1.00  0.00     0.183 A 
HETATM    9  N2  UNL     1      28.235   8.424  48.721  1.00  0.00    -0.217 NA
HETATM   10  C5  UNL     1      29.158   9.286  49.188  1.00  0.00     0.236 A 
HETATM   11  N1  UNL     1      30.478   8.975  49.324  1.00  0.00    -0.241 NA
HETATM   12  C4  UNL     1      30.836   7.713  48.957  1.00  0.00     0.075 A 
HETATM   13  C3  UNL     1      32.173   7.415  49.101  1.00  0.00     0.072 A 
HETATM   14  C20 UNL     1      29.909   6.812  48.476  1.00  0.00     0.049 A 
HETATM   15  C2  UNL     1      32.598   6.138  48.740  1.00  0.00     0.103 A 
HETATM   16  C22 UNL     1      31.660   5.249  48.261  1.00  0.00     0.102 A 
HETATM   17  C21 UNL     1      30.319   5.526  48.110  1.00  0.00     0.057 A 
BRANCH  15  18
HETATM   18  O1  UNL     1      33.939   5.797  48.870  1.00  0.00    -0.353 OA
HETATM   19  C1  UNL     1      34.894   6.789  48.483  1.00  0.00     0.210 C 
ENDBRANCH  15  18
BRANCH  16  20
HETATM   20  O4  UNL     1      32.148   4.000  47.923  1.00  0.00    -0.353 OA
HETATM   21  C23 UNL     1      32.182   3.537  46.576  1.00  0.00     0.210 C 
ENDBRANCH  16  20
ENDBRANCH   7   8
ENDBRANCH   1   7
BRANCH   4  22
HETATM   22  N3  UNL     1      24.656   3.197  51.408  1.00  0.00    -0.323 N 
HETATM   23  C11 UNL     1      23.560   2.373  51.079  1.00  0.00     0.252 C 
HETATM   24  O3  UNL     1      23.178   2.328  49.874  1.00  0.00    -0.268 OA
HETATM   25  H8  UNL     1      24.962   3.224  52.418  1.00  0.00     0.169 HD
BRANCH  23  26
HETATM   26  C12 UNL     1      22.841   1.566  52.075  1.00  0.00     0.014 A 
HETATM   27  C13 UNL     1      21.560   1.651  52.389  1.00  0.00     0.013 A 
HETATM   28  C14 UNL     1      21.227   0.683  53.420  1.00  0.00     0.003 A 
HETATM   29  C15 UNL     1      22.341   0.020  53.714  1.00  0.00    -0.079 A 
HETATM   30  C16 UNL     1      22.433  -1.073  54.734  1.00  0.00     0.043 C 
HETATM   31  C17 UNL     1      23.482   0.507  52.895  1.00  0.00     0.078 A 
ENDBRANCH  23  26
ENDBRANCH   4  22
TORSDOF 6
ENDMDL
MODEL 2
REMARK VINA RESULT:      -8.5      2.111      3.560
REMARK  6 active torsions:
REMARK  status: ('A' for Active; 'I' for Inactive)
REMARK    1  A    between atoms: O1_2  and  C2_3 
REMARK    2  A    between atoms: C6_9  and  O2_10 
REMARK    3  A    between atoms: O2_10  and  C7_11 
REMARK    4  A    between atoms: C10_14  and  N3_15 
REMARK       I    between atoms: N3_15  and  C11_16 
REMARK    5  A    between atoms: C11_16  and  C12_18 
REMARK    6  A    between atoms: C22_28  and  O4_29 
ROOT
HETATM    1  C7  UNL     1      26.592   5.092  49.037  1.00  0.00     0.078 A 
HETATM    2  C8  UNL     1      25.453   5.618  49.657  1.00  0.00     0.039 A 
HETATM    3  C9  UNL     1      24.712   4.850  50.556  1.00  0.00     0.032 A 
HETATM    4  C10 UNL     1      25.103   3.576  50.828  1.00  0.00     0.035 A 
HETATM    5  C18 UNL     1      26.227   3.055  50.216  1.00  0.00     0.032 A 
HETATM    6  C19 UNL     1      26.973   3.798  49.325  1.00  0.00     0.039 A 
ENDROOT
BRANCH   1   7
HETATM    7  O2  UNL     1      27.158   6.032  48.193  1.00  0.00    -0.291 OA
BRANCH   7   8
HETATM    8  C6  UNL     1      28.531   6.225  48.269  1.00  0.00     0.183 A 
HETATM    9  N2  UNL     1      29.452   5.244  48.057  1.00  0.00    -0.217 NA
HETATM   10  C5  UNL     1      30.771   5.500  48.146  1.00  0.00     0.236 A 
HETATM   11  N1  UNL     1      31.282   6.727  48.446  1.00  0.00    -0.241 NA
HETATM   12  C4  UNL     1      30.371   7.718  48.660  1.00  0.00     0.075 A 
HETATM   13  C3  UNL     1      30.904   8.951  48.961  1.00  0.00     0.072 A 
HETATM   14  C20 UNL     1      29.015   7.481  48.575  1.00  0.00     0.049 A 
HETATM   15  C2  UNL     1      30.019  10.004  49.191  1.00  0.00     0.103 A 
HETATM   16  C22 UNL     1      28.667   9.752  49.102  1.00  0.00     0.102 A 
HETATM   17  C21 UNL     1      28.114   8.526  48.801  1.00  0.00     0.057 A 
BRANCH  15  18
HETATM   18  O1  UNL     1      30.516  11.265  49.498  1.00  0.00    -0.353 OA
HETATM   19  C1  UNL     1      31.130  11.991  48.430  1.00  0.00     0.210 C 
ENDBRANCH  15  18
BRANCH  16  20
HETATM   20  O4  UNL     1      27.846  10.838  49.340  1.00  0.00    -0.353 OA
HETATM   21  C23 UNL     1      27.153  11.511  48.293  1.00  0.00     0.210 C 
ENDBRANCH  16  20
ENDBRANCH   7   8
ENDBRANCH   1   7
BRANCH   4  22
HETATM   22  N3  UNL     1      24.366   2.786  51.733  1.00  0.00    -0.323 N 
HETATM   23  C11 UNL     1      23.280   1.944  51.415  1.00  0.00     0.252 C 
HETATM   24  O3  UNL     1      22.905   1.869  50.210  1.00  0.00    -0.268 OA
HETATM   25  H8  UNL     1      24.666   2.837  52.744  1.00  0.00     0.169 HD
BRANCH  23  26
HETATM   26  C12 UNL     1      22.563   1.151  52.425  1.00  0.00     0.014 A 
HETATM   27  C13 UNL     1      21.317   1.323  52.830  1.00  0.00     0.013 A 
HETATM   28  C14 UNL     1      20.974   0.337  53.840  1.00  0.00     0.003 A 
HETATM   29  C15 UNL     1      22.045  -0.426  54.028  1.00  0.00    -0.079 A 
HETATM   30  C16 UNL     1      22.113  -1.570  54.994  1.00  0.00     0.043 C 
HETATM   31  C17 UNL     1      23.167   0.007  53.154  1.00  0.00     0.078 A 
ENDBRANCH  23  26
ENDBRANCH   4  22
TORSDOF 6
ENDMDL
MODEL 3
REMARK VINA RESULT:      -8.0      3.276     11.278
REMARK  6 active torsions:
REMARK  status: ('A' for Active; 'I' for Inactive)
REMARK    1  A    between atoms: O1_2  and  C2_3 
REMARK    2  A    between atoms: C6_9  and  O2_10 
REMARK    3  A    between atoms: O2_10  and  C7_11 
REMARK    4  A    between atoms: C10_14  and  N3_15 
REMARK       I    between atoms: N3_15  and  C11_16 
REMARK    5  A    between atoms: C11_16  and  C12_18 
REMARK    6  A    between atoms: C22_28  and  O4_29 
ROOT
HETATM    1  C7  UNL     1      21.968   3.736  52.006  1.00  0.00     0.078 A 
HETATM    2  C8  UNL     1      22.512   4.996  52.281  1.00  0.00     0.039 A 
HETATM    3  C9  UNL     1      23.730   5.384  51.721  1.00  0.00     0.032 A 
HETATM    4  C10 UNL     1      24.393   4.526  50.899  1.00  0.00     0.035 A 
HETATM    5  C18 UNL     1      23.856   3.282  50.626  1.00  0.00     0.032 A 
HETATM    6  C19 UNL     1      22.654   2.879  51.171  1.00  0.00     0.039 A 
ENDROOT
BRANCH   1   7
HETATM    7  O2  UNL     1      20.763   3.577  52.669  1.00  0.00    -0.291 OA
BRANCH   7   8
HETATM    8  C6  UNL     1      19.760   2.865  52.026  1.00  0.00     0.183 A 
HETATM    9  N2  UNL     1      18.979   3.374  51.034  1.00  0.00    -0.217 NA
HETATM   10  C5  UNL     1      18.022   2.628  50.451  1.00  0.00     0.236 A 
HETATM   11  N1  UNL     1      17.762   1.335  50.794  1.00  0.00    -0.241 NA
HETATM   12  C4  UNL     1      18.537   0.812  51.785  1.00  0.00     0.075 A 
HETATM   13  C3  UNL     1      18.262  -0.496  52.119  1.00  0.00     0.072 A 
HETATM   14  C20 UNL     1      19.524   1.556  52.398  1.00  0.00     0.049 A 
HETATM   15  C2  UNL     1      19.024  -1.084  53.128  1.00  0.00     0.103 A 
HETATM   16  C22 UNL     1      20.005  -0.327  53.730  1.00  0.00     0.102 A 
HETATM   17  C21 UNL     1      20.297   0.981  53.410  1.00  0.00     0.057 A 
BRANCH  15  18
HETATM   18  O1  UNL     1      18.778  -2.401  53.496  1.00  0.00    -0.353 OA
HETATM   19  C1  UNL     1      17.409  -2.817  53.517  1.00  0.00     0.210 C 
ENDBRANCH  15  18
BRANCH  16  20
HETATM   20  O4  UNL     1      20.723  -0.971  54.721  1.00  0.00    -0.353 OA
HETATM   21  C23 UNL     1      22.126  -0.783  54.887  1.00  0.00     0.210 C 
ENDBRANCH  16  20
ENDBRANCH   7   8
ENDBRANCH   1   7
BRANCH   4  22
HETATM   22  N3  UNL     1      25.623   4.901  50.325  1.00  0.00    -0.323 N 
HETATM   23  C11 UNL     1      25.801   5.600  49.114  1.00  0.00     0.252 C 
HETATM   24  O3  UNL     1      24.777   5.936  48.453  1.00  0.00    -0.268 OA
HETATM   25  H8  UNL     1      26.489   4.628  50.865  1.00  0.00     0.169 HD
BRANCH  23  26
HETATM   26  C12 UNL     1      27.126   5.954  48.584  1.00  0.00     0.014 A 
HETATM   27  C13 UNL     1      27.487   7.112  48.060  1.00  0.00     0.013 A 
HETATM   28  C14 UNL     1      28.881   7.070  47.652  1.00  0.00     0.003 A 
HETATM   29  C15 UNL     1      29.342   5.859  47.944  1.00  0.00    -0.079 A 
HETATM   30  C16 UNL     1      30.744   5.398  47.683  1.00  0.00     0.043 C 
HETATM   31  C17 UNL     1      28.282   5.021  48.565  1.00  0.00     0.078 A 
ENDBRANCH  23  26
ENDBRANCH   4  22
TORSDOF 6
ENDMDL
MODEL 4
REMARK VINA RESULT:      -7.9      3.093     10.125
REMARK  6 active torsions:
REMARK  status: ('A' for Active; 'I' for Inactive)
REMARK    1  A    between atoms: O1_2  and  C2_3 
REMARK    2  A    between atoms: C6_9  and  O2_10 
REMARK    3  A    between atoms: O2_10  and  C7_11 
REMARK    4  A    between atoms: C10_14  and  N3_15 
REMARK       I    between atoms: N3_15  and  C11_16 
REMARK    5  A    between atoms: C11_16  and  C12_18 
REMARK    6  A    between atoms: C22_28  and  O4_29 
ROOT
HETATM    1  C7  UNL     1      26.326   4.517  49.277  1.00  0.00     0.078 A 
HETATM    2  C8  UNL     1      25.644   5.706  49.557  1.00  0.00     0.039 A 
HETATM    3  C9  UNL     1      26.221   6.943  49.272  1.00  0.00     0.032 A 
HETATM    4  C10 UNL     1      27.461   6.991  48.715  1.00  0.00     0.035 A 
HETATM    5  C18 UNL     1      28.136   5.818  48.438  1.00  0.00     0.032 A 
HETATM    6  C19 UNL     1      27.584   4.584  48.714  1.00  0.00     0.039 A 
ENDROOT
BRANCH   1   7
HETATM    7  O2  UNL     1      25.561   3.424  49.644  1.00  0.00    -0.291 OA
BRANCH   7   8
HETATM    8  C6  UNL     1      25.902   2.759  50.814  1.00  0.00     0.183 A 
HETATM    9  N2  UNL     1      27.165   2.706  51.321  1.00  0.00    -0.217 NA
HETATM   10  C5  UNL     1      27.427   2.042  52.462  1.00  0.00     0.236 A 
HETATM   11  N1  UNL     1      26.478   1.385  53.187  1.00  0.00    -0.241 NA
HETATM   12  C4  UNL     1      25.210   1.430  52.691  1.00  0.00     0.075 A 
HETATM   13  C3  UNL     1      24.263   0.762  53.436  1.00  0.00     0.072 A 
HETATM   14  C20 UNL     1      24.916   2.104  51.524  1.00  0.00     0.049 A 
HETATM   15  C2  UNL     1      22.947   0.773  52.977  1.00  0.00     0.103 A 
HETATM   16  C22 UNL     1      22.669   1.450  51.809  1.00  0.00     0.102 A 
HETATM   17  C21 UNL     1      23.601   2.125  51.050  1.00  0.00     0.057 A 
BRANCH  15  18
HETATM   18  O1  UNL     1      21.962   0.111  53.698  1.00  0.00    -0.353 OA
HETATM   19  C1  UNL     1      22.381  -1.015  54.474  1.00  0.00     0.210 C 
ENDBRANCH  15  18
BRANCH  16  20
HETATM   20  O4  UNL     1      21.346   1.422  51.411  1.00  0.00    -0.353 OA
HETATM   21  C23 UNL     1      20.883   0.571  50.366  1.00  0.00     0.210 C 
ENDBRANCH  16  20
ENDBRANCH   7   8
ENDBRANCH   1   7
BRANCH   4  22
HETATM   22  N3  UNL     1      28.059   8.233  48.420  1.00  0.00    -0.323 N 
HETATM   23  C11 UNL     1      28.143   9.345  49.282  1.00  0.00     0.252 C 
HETATM   24  O3  UNL     1      27.641   9.254  50.439  1.00  0.00    -0.268 OA
HETATM   25  H8  UNL     1      28.483   8.325  47.458  1.00  0.00     0.169 HD
BRANCH  23  26
HETATM   26  C12 UNL     1      28.787  10.609  48.893  1.00  0.00     0.014 A 
HETATM   27  C13 UNL     1      30.067  10.916  49.014  1.00  0.00     0.013 A 
HETATM   28  C14 UNL     1      30.313  12.258  48.516  1.00  0.00     0.003 A 
HETATM   29  C15 UNL     1      29.150  12.744  48.096  1.00  0.00    -0.079 A 
HETATM   30  C16 UNL     1      28.963  14.109  47.507  1.00  0.00     0.043 C 
HETATM   31  C17 UNL     1      28.058  11.754  48.290  1.00  0.00     0.078 A 
ENDBRANCH  23  26
ENDBRANCH   4  22
TORSDOF 6
ENDMDL
MODEL 5
REMARK VINA RESULT:      -7.7      7.585     13.714
REMARK  6 active torsions:
REMARK  status: ('A' for Active; 'I' for Inactive)
REMARK    1  A    between atoms: O1_2  and  C2_3 
REMARK    2  A    between atoms: C6_9  and  O2_10 
REMARK    3  A    between atoms: O2_10  and  C7_11 
REMARK    4  A    between atoms: C10_14  and  N3_15 
REMARK       I    between atoms: N3_15  and  C11_16 
REMARK    5  A    between atoms: C11_16  and  C12_18 
REMARK    6  A    between atoms: C22_28  and  O4_29 
ROOT
HETATM    1  C7  UNL     1      19.938  -0.064  52.826  1.00  0.00     0.078 A 
HETATM    2  C8  UNL     1      20.404  -0.208  54.137  1.00  0.00     0.039 A 
HETATM    3  C9  UNL     1      21.764  -0.380  54.396  1.00  0.00     0.032 A 
HETATM    4  C10 UNL     1      22.644  -0.409  53.359  1.00  0.00     0.035 A 
HETATM    5  C18 UNL     1      22.185  -0.266  52.064  1.00  0.00     0.032 A 
HETATM    6  C19 UNL     1      20.844  -0.096  51.787  1.00  0.00     0.039 A 
ENDROOT
BRANCH   1   7
HETATM    7  O2  UNL     1      18.563   0.093  52.818  1.00  0.00    -0.291 OA
BRANCH   7   8
HETATM    8  C6  UNL     1      17.781  -1.053  52.880  1.00  0.00     0.183 A 
HETATM    9  N2  UNL     1      18.142  -2.187  53.542  1.00  0.00    -0.217 NA
HETATM   10  C5  UNL     1      17.335  -3.264  53.564  1.00  0.00     0.236 A 
HETATM   11  N1  UNL     1      16.122  -3.310  52.944  1.00  0.00    -0.241 NA
HETATM   12  C4  UNL     1      15.748  -2.181  52.278  1.00  0.00     0.075 A 
HETATM   13  C3  UNL     1      14.520  -2.244  51.658  1.00  0.00     0.072 A 
HETATM   14  C20 UNL     1      16.557  -1.065  52.241  1.00  0.00     0.049 A 
HETATM   15  C2  UNL     1      14.085  -1.117  50.961  1.00  0.00     0.103 A 
HETATM   16  C22 UNL     1      14.905  -0.010  50.933  1.00  0.00     0.102 A 
HETATM   17  C21 UNL     1      16.136   0.073  51.547  1.00  0.00     0.057 A 
BRANCH  15  18
HETATM   18  O1  UNL     1      12.852  -1.139  50.320  1.00  0.00    -0.353 OA
HETATM   19  C1  UNL     1      12.724  -2.025  49.205  1.00  0.00     0.210 C 
ENDBRANCH  15  18
BRANCH  16  20
HETATM   20  O4  UNL     1      14.413   1.071  50.226  1.00  0.00    -0.353 OA
HETATM   21  C23 UNL     1      13.963   2.260  50.869  1.00  0.00     0.210 C 
ENDBRANCH  16  20
ENDBRANCH   7   8
ENDBRANCH   1   7
BRANCH   4  22
HETATM   22  N3  UNL     1      24.021  -0.582  53.602  1.00  0.00    -0.323 N 
HETATM   23  C11 UNL     1      25.006   0.426  53.583  1.00  0.00     0.252 C 
HETATM   24  O3  UNL     1      24.653   1.612  53.325  1.00  0.00    -0.268 OA
HETATM   25  H8  UNL     1      24.333  -1.568  53.820  1.00  0.00     0.169 HD
BRANCH  23  26
HETATM   26  C12 UNL     1      26.427   0.158  53.849  1.00  0.00     0.014 A 
HETATM   27  C13 UNL     1      27.157   0.655  54.833  1.00  0.00     0.013 A 
HETATM   28  C14 UNL     1      28.517   0.150  54.757  1.00  0.00     0.003 A 
HETATM   29  C15 UNL     1      28.581  -0.657  53.705  1.00  0.00    -0.079 A 
HETATM   30  C16 UNL     1      29.815  -1.388  53.269  1.00  0.00     0.043 C 
HETATM   31  C17 UNL     1      27.267  -0.740  53.016  1.00  0.00     0.078 A 
ENDBRANCH  23  26
ENDBRANCH   4  22
TORSDOF 6
ENDMDL
MODEL 6
REMARK VINA RESULT:      -7.6      3.112     10.145
REMARK  6 active torsions:
REMARK  status: ('A' for Active; 'I' for Inactive)
REMARK    1  A    between atoms: O1_2  and  C2_3 
REMARK    2  A    between atoms: C6_9  and  O2_10 
REMARK    3  A    between atoms: O2_10  and  C7_11 
REMARK    4  A    between atoms: C10_14  and  N3_15 
REMARK       I    between atoms: N3_15  and  C11_16 
REMARK    5  A    between atoms: C11_16  and  C12_18 
REMARK    6  A    between atoms: C22_28  and  O4_29 
ROOT
HETATM    1  C7  UNL     1      24.483   3.925  49.219  1.00  0.00     0.078 A 
HETATM    2  C8  UNL     1      25.811   3.579  49.494  1.00  0.00     0.039 A 
HETATM    3  C9  UNL     1      26.833   4.520  49.370  1.00  0.00     0.032 A 
HETATM    4  C10 UNL     1      26.533   5.787  48.977  1.00  0.00     0.035 A 
HETATM    5  C18 UNL     1      25.222   6.130  48.705  1.00  0.00     0.032 A 
HETATM    6  C19 UNL     1      24.197   5.214  48.821  1.00  0.00     0.039 A 
ENDROOT
BRANCH   1   7
HETATM    7  O2  UNL     1      23.652   2.835  49.410  1.00  0.00    -0.291 OA
BRANCH   7   8
HETATM    8  C6  UNL     1      22.531   3.009  50.210  1.00  0.00     0.183 A 
HETATM    9  N2  UNL     1      21.568   3.944  49.981  1.00  0.00    -0.217 NA
HETATM   10  C5  UNL     1      20.504   4.059  50.797  1.00  0.00     0.236 A 
HETATM   11  N1  UNL     1      20.305   3.272  51.891  1.00  0.00    -0.241 NA
HETATM   12  C4  UNL     1      21.261   2.331  52.132  1.00  0.00     0.075 A 
HETATM   13  C3  UNL     1      21.044   1.543  53.241  1.00  0.00     0.072 A 
HETATM   14  C20 UNL     1      22.360   2.193  51.310  1.00  0.00     0.049 A 
HETATM   15  C2  UNL     1      21.990   0.562  53.537  1.00  0.00     0.103 A 
HETATM   16  C22 UNL     1      23.083   0.437  52.707  1.00  0.00     0.102 A 
HETATM   17  C21 UNL     1      23.317   1.215  51.593  1.00  0.00     0.057 A 
BRANCH  15  18
HETATM   18  O1  UNL     1      21.809  -0.253  54.647  1.00  0.00    -0.353 OA
HETATM   19  C1  UNL     1      21.076  -1.464  54.442  1.00  0.00     0.210 C 
ENDBRANCH  15  18
BRANCH  16  20
HETATM   20  O4  UNL     1      23.981  -0.554  53.057  1.00  0.00    -0.353 OA
HETATM   21  C23 UNL     1      25.162  -0.280  53.806  1.00  0.00     0.210 C 
ENDBRANCH  16  20
ENDBRANCH   7   8
ENDBRANCH   1   7
BRANCH   4  22
HETATM   22  N3  UNL     1      27.553   6.750  48.846  1.00  0.00    -0.323 N 
HETATM   23  C11 UNL     1      27.568   8.035  49.427  1.00  0.00     0.252 C 
HETATM   24  O3  UNL     1      26.585   8.388  50.139  1.00  0.00    -0.268 OA
HETATM   25  H8  UNL     1      28.382   6.470  48.254  1.00  0.00     0.169 HD
BRANCH  23  26
HETATM   26  C12 UNL     1      28.677   8.982  49.240  1.00  0.00     0.014 A 
HETATM   27  C13 UNL     1      29.959   8.686  49.108  1.00  0.00     0.013 A 
HETATM   28  C14 UNL     1      30.742   9.898  48.941  1.00  0.00     0.003 A 
HETATM   29  C15 UNL     1      29.898  10.923  48.978  1.00  0.00    -0.079 A 
HETATM   30  C16 UNL     1      30.301  12.360  48.843  1.00  0.00     0.043 C 
HETATM   31  C17 UNL     1      28.500  10.455  49.171  1.00  0.00     0.078 A 
ENDBRANCH  23  26
ENDBRANCH   4  22
TORSDOF 6
ENDMDL
MODEL 7
REMARK VINA RESULT:      -7.6      3.112     10.009
REMARK  6 active torsions:
REMARK  status: ('A' for Active; 'I' for Inactive)
REMARK    1  A    between atoms: O1_2  and  C2_3 
REMARK    2  A    between atoms: C6_9  and  O2_10 
REMARK    3  A    between atoms: O2_10  and  C7_11 
REMARK    4  A    between atoms: C10_14  and  N3_15 
REMARK       I    between atoms: N3_15  and  C11_16 
REMARK    5  A    between atoms: C11_16  and  C12_18 
REMARK    6  A    between atoms: C22_28  and  O4_29 
ROOT
HETATM    1  C7  UNL     1      26.275   4.748  49.284  1.00  0.00     0.078 A 
HETATM    2  C8  UNL     1      27.531   4.814  48.670  1.00  0.00     0.039 A 
HETATM    3  C9  UNL     1      28.110   6.045  48.361  1.00  0.00     0.032 A 
HETATM    4  C10 UNL     1      27.444   7.192  48.660  1.00  0.00     0.035 A 
HETATM    5  C18 UNL     1      26.204   7.129  49.266  1.00  0.00     0.032 A 
HETATM    6  C19 UNL     1      25.614   5.922  49.580  1.00  0.00     0.039 A 
ENDROOT
BRANCH   1   7
HETATM    7  O2  UNL     1      25.909   3.430  49.492  1.00  0.00    -0.291 OA
BRANCH   7   8
HETATM    8  C6  UNL     1      24.562   3.156  49.685  1.00  0.00     0.183 A 
HETATM    9  N2  UNL     1      23.564   3.643  48.896  1.00  0.00    -0.217 NA
HETATM   10  C5  UNL     1      22.276   3.337  49.139  1.00  0.00     0.236 A 
HETATM   11  N1  UNL     1      21.872   2.536  50.165  1.00  0.00    -0.241 NA
HETATM   12  C4  UNL     1      22.860   2.042  50.962  1.00  0.00     0.075 A 
HETATM   13  C3  UNL     1      22.436   1.235  51.994  1.00  0.00     0.072 A 
HETATM   14  C20 UNL     1      24.187   2.341  50.734  1.00  0.00     0.049 A 
HETATM   15  C2  UNL     1      23.403   0.700  52.843  1.00  0.00     0.103 A 
HETATM   16  C22 UNL     1      24.725   1.008  52.603  1.00  0.00     0.102 A 
HETATM   17  C21 UNL     1      25.170   1.813  51.576  1.00  0.00     0.057 A 
BRANCH  15  18
HETATM   18  O1  UNL     1      23.017  -0.118  53.897  1.00  0.00    -0.353 OA
HETATM   19  C1  UNL     1      22.124  -1.191  53.583  1.00  0.00     0.210 C 
ENDBRANCH  15  18
BRANCH  16  20
HETATM   20  O4  UNL     1      25.632   0.446  53.480  1.00  0.00    -0.353 OA
HETATM   21  C23 UNL     1      26.321  -0.767  53.189  1.00  0.00     0.210 C 
ENDBRANCH  16  20
ENDBRANCH   7   8
ENDBRANCH   1   7
BRANCH   4  22
HETATM   22  N3  UNL     1      28.014   8.444  48.354  1.00  0.00    -0.323 N 
HETATM   23  C11 UNL     1      28.188   9.523  49.245  1.00  0.00     0.252 C 
HETATM   24  O3  UNL     1      27.804   9.387  50.442  1.00  0.00    -0.268 OA
HETATM   25  H8  UNL     1      28.340   8.574  47.358  1.00  0.00     0.169 HD
BRANCH  23  26
HETATM   26  C12 UNL     1      28.794  10.800  48.842  1.00  0.00     0.014 A 
HETATM   27  C13 UNL     1      30.062  11.152  48.973  1.00  0.00     0.013 A 
HETATM   28  C14 UNL     1      30.269  12.493  48.455  1.00  0.00     0.003 A 
HETATM   29  C15 UNL     1      29.096  12.933  48.014  1.00  0.00    -0.079 A 
HETATM   30  C16 UNL     1      28.871  14.281  47.400  1.00  0.00     0.043 C 
HETATM   31  C17 UNL     1      28.035  11.910  48.212  1.00  0.00     0.078 A 
ENDBRANCH  23  26
ENDBRANCH   4  22
TORSDOF 6
ENDMDL
MODEL 8
REMARK VINA RESULT:      -7.6      2.485      3.772
REMARK  6 active torsions:
REMARK  status: ('A' for Active; 'I' for Inactive)
REMARK    1  A    between atoms: O1_2  and  C2_3 
REMARK    2  A    between atoms: C6_9  and  O2_10 
REMARK    3  A    between atoms: O2_10  and  C7_11 
REMARK    4  A    between atoms: C10_14  and  N3_15 
REMARK       I    between atoms: N3_15  and  C11_16 
REMARK    5  A    between atoms: C11_16  and  C12_18 
REMARK    6  A    between atoms: C22_28  and  O4_29 
ROOT
HETATM    1  C7  UNL     1      25.075   3.337  49.871  1.00  0.00     0.078 A 
HETATM    2  C8  UNL     1      25.130   2.629  51.077  1.00  0.00     0.039 A 
HETATM    3  C9  UNL     1      24.066   1.821  51.478  1.00  0.00     0.032 A 
HETATM    4  C10 UNL     1      22.964   1.723  50.687  1.00  0.00     0.035 A 
HETATM    5  C18 UNL     1      22.908   2.421  49.495  1.00  0.00     0.032 A 
HETATM    6  C19 UNL     1      23.950   3.226  49.081  1.00  0.00     0.039 A 
ENDROOT
BRANCH   1   7
HETATM    7  O2  UNL     1      26.238   4.064  49.686  1.00  0.00    -0.291 OA
BRANCH   7   8
HETATM    8  C6  UNL     1      26.141   5.281  49.025  1.00  0.00     0.183 A 
HETATM    9  N2  UNL     1      24.980   5.975  48.871  1.00  0.00    -0.217 NA
HETATM   10  C5  UNL     1      24.956   7.152  48.218  1.00  0.00     0.236 A 
HETATM   11  N1  UNL     1      26.061   7.733  47.672  1.00  0.00    -0.241 NA
HETATM   12  C4  UNL     1      27.231   7.050  47.819  1.00  0.00     0.075 A 
HETATM   13  C3  UNL     1      28.338   7.650  47.262  1.00  0.00     0.072 A 
HETATM   14  C20 UNL     1      27.281   5.842  48.484  1.00  0.00     0.049 A 
HETATM   15  C2  UNL     1      29.563   6.996  47.381  1.00  0.00     0.103 A 
HETATM   16  C22 UNL     1      29.597   5.790  48.048  1.00  0.00     0.102 A 
HETATM   17  C21 UNL     1      28.501   5.173  48.613  1.00  0.00     0.057 A 
BRANCH  15  18
HETATM   18  O1  UNL     1      30.704   7.568  46.833  1.00  0.00    -0.353 OA
HETATM   19  C1  UNL     1      30.610   8.016  45.478  1.00  0.00     0.210 C 
ENDBRANCH  15  18
BRANCH  16  20
HETATM   20  O4  UNL     1      30.842   5.195  48.131  1.00  0.00    -0.353 OA
HETATM   21  C23 UNL     1      31.294   4.241  47.174  1.00  0.00     0.210 C 
ENDBRANCH  16  20
ENDBRANCH   7   8
ENDBRANCH   1   7
BRANCH   4  22
HETATM   22  N3  UNL     1      21.880   0.912  51.077  1.00  0.00    -0.323 N 
HETATM   23  C11 UNL     1      20.801   1.298  51.899  1.00  0.00     0.252 C 
HETATM   24  O3  UNL     1      20.774   2.480  52.347  1.00  0.00    -0.268 OA
HETATM   25  H8  UNL     1      21.887  -0.078  50.711  1.00  0.00     0.169 HD
BRANCH  23  26
HETATM   26  C12 UNL     1      19.706   0.385  52.259  1.00  0.00     0.014 A 
HETATM   27  C13 UNL     1      19.687  -0.472  53.265  1.00  0.00     0.013 A 
HETATM   28  C14 UNL     1      18.427  -1.194  53.290  1.00  0.00     0.003 A 
HETATM   29  C15 UNL     1      17.696  -0.749  52.274  1.00  0.00    -0.079 A 
HETATM   30  C16 UNL     1      16.319  -1.237  51.941  1.00  0.00     0.043 C 
HETATM   31  C17 UNL     1      18.426   0.298  51.511  1.00  0.00     0.078 A 
ENDBRANCH  23  26
ENDBRANCH   4  22
TORSDOF 6
ENDMDL
MODEL 9
REMARK VINA RESULT:      -7.4      6.957     11.046
REMARK  6 active torsions:
REMARK  status: ('A' for Active; 'I' for Inactive)
REMARK    1  A    between atoms: O1_2  and  C2_3 
REMARK    2  A    between atoms: C6_9  and  O2_10 
REMARK    3  A    between atoms: O2_10  and  C7_11 
REMARK    4  A    between atoms: C10_14  and  N3_15 
REMARK       I    between atoms: N3_15  and  C11_16 
REMARK    5  A    between atoms: C11_16  and  C12_18 
REMARK    6  A    between atoms: C22_28  and  O4_29 
ROOT
HETATM    1  C7  UNL     1      21.422   3.455  51.549  1.00  0.00     0.078 A 
HETATM    2  C8  UNL     1      22.496   3.952  52.295  1.00  0.00     0.039 A 
HETATM    3  C9  UNL     1      23.672   3.213  52.430  1.00  0.00     0.032 A 
HETATM    4  C10 UNL     1      23.772   1.997  51.829  1.00  0.00     0.035 A 
HETATM    5  C18 UNL     1      22.712   1.505  51.092  1.00  0.00     0.032 A 
HETATM    6  C19 UNL     1      21.540   2.219  50.947  1.00  0.00     0.039 A 
ENDROOT
BRANCH   1   7
HETATM    7  O2  UNL     1      20.372   4.356  51.557  1.00  0.00    -0.291 OA
BRANCH   7   8
HETATM    8  C6  UNL     1      19.797   4.691  50.339  1.00  0.00     0.183 A 
HETATM    9  N2  UNL     1      20.491   5.193  49.280  1.00  0.00    -0.217 NA
HETATM   10  C5  UNL     1      19.871   5.497  48.124  1.00  0.00     0.236 A 
HETATM   11  N1  UNL     1      18.534   5.332  47.921  1.00  0.00    -0.241 NA
HETATM   12  C4  UNL     1      17.826   4.831  48.973  1.00  0.00     0.075 A 
HETATM   13  C3  UNL     1      16.477   4.671  48.751  1.00  0.00     0.072 A 
HETATM   14  C20 UNL     1      18.439   4.512  50.167  1.00  0.00     0.049 A 
HETATM   15  C2  UNL     1      15.702   4.161  49.792  1.00  0.00     0.103 A 
HETATM   16  C22 UNL     1      16.328   3.847  50.979  1.00  0.00     0.102 A 
HETATM   17  C21 UNL     1      17.677   3.999  51.220  1.00  0.00     0.057 A 
BRANCH  15  18
HETATM   18  O1  UNL     1      14.336   3.984  49.609  1.00  0.00    -0.353 OA
HETATM   19  C1  UNL     1      13.557   5.167  49.407  1.00  0.00     0.210 C 
ENDBRANCH  15  18
BRANCH  16  20
HETATM   20  O4  UNL     1      15.503   3.346  51.968  1.00  0.00    -0.353 OA
HETATM   21  C23 UNL     1      15.138   4.111  53.113  1.00  0.00     0.210 C 
ENDBRANCH  16  20
ENDBRANCH   7   8
ENDBRANCH   1   7
BRANCH   4  22
HETATM   22  N3  UNL     1      24.952   1.238  51.955  1.00  0.00    -0.323 N 
HETATM   23  C11 UNL     1      25.184   0.202  52.883  1.00  0.00     0.252 C 
HETATM   24  O3  UNL     1      24.264  -0.099  53.697  1.00  0.00    -0.268 OA
HETATM   25  H8  UNL     1      25.731   1.477  51.283  1.00  0.00     0.169 HD
BRANCH  23  26
HETATM   26  C12 UNL     1      26.451  -0.542  52.947  1.00  0.00     0.014 A 
HETATM   27  C13 UNL     1      26.659  -1.788  52.557  1.00  0.00     0.013 A 
HETATM   28  C14 UNL     1      28.044  -2.163  52.783  1.00  0.00     0.003 A 
HETATM   29  C15 UNL     1      28.656  -1.113  53.319  1.00  0.00    -0.079 A 
HETATM   30  C16 UNL     1      30.103  -1.081  53.707  1.00  0.00     0.043 C 
HETATM   31  C17 UNL     1      27.715   0.026  53.481  1.00  0.00     0.078 A 
ENDBRANCH  23  26
ENDBRANCH   4  22
TORSDOF 6
ENDMDL
