MODEL 1
REMARK VINA RESULT:      -8.5      0.000      0.000
REMARK  3 active torsions:
REMARK  status: ('A' for Active; 'I' for Inactive)
REMARK    1  A    between atoms: C1_2  and  C2_3 
REMARK    2  A    between atoms: C3_4  and  N2_5 
REMARK    3  A    between atoms: C9_12  and  O1_13 
ROOT
HETATM    1  N2  UNL     1      25.596   1.826  52.536  1.00  0.00    -0.372 N 
HETATM    2  C4  UNL     1      26.797   1.180  52.147  1.00  0.00     0.124 C 
HETATM    3  C5  UNL     1      27.946   1.140  53.113  1.00  0.00     0.023 C 
HETATM    4  C6  UNL     1      27.558   0.120  54.166  1.00  0.00     0.030 C 
HETATM    5  C7  UNL     1      26.313   0.398  54.822  1.00  0.00    -0.010 C 
HETATM    6  C8  UNL     1      25.342  -0.388  54.418  1.00  0.00     0.081 C 
HETATM    7  N3  UNL     1      24.021  -0.893  54.380  1.00  0.00    -0.370 N 
HETATM    8  C9  UNL     1      23.075  -0.912  53.291  1.00  0.00     0.252 C 
HETATM    9  C10 UNL     1      22.727   0.323  52.625  1.00  0.00    -0.000 A 
HETATM   10  C11 UNL     1      21.578  -0.003  51.861  1.00  0.00     0.014 A 
HETATM   11  C12 UNL     1      20.819   0.854  51.054  1.00  0.00     0.033 A 
HETATM   12  C13 UNL     1      21.255   2.183  51.007  1.00  0.00     0.071 A 
HETATM   13  N4  UNL     1      20.587   3.088  50.300  1.00  0.00    -0.241 NA
HETATM   14  C14 UNL     1      20.964   4.377  50.273  1.00  0.00     0.234 A 
HETATM   15  N5  UNL     1      22.043   4.719  50.992  1.00  0.00    -0.234 NA
HETATM   16  C15 UNL     1      22.692   3.786  51.691  1.00  0.00     0.110 A 
HETATM   17  C16 UNL     1      22.374   2.455  51.763  1.00  0.00     0.038 A 
HETATM   18  C17 UNL     1      23.138   1.666  52.545  1.00  0.00     0.001 A 
HETATM   19  C18 UNL     1      24.347   2.266  53.133  1.00  0.00     0.187 C 
HETATM   20  S1  UNL     1      24.043   4.065  52.815  1.00  0.00    -0.079 SA
HETATM   21  H13 UNL     1      23.827  -1.279  55.357  1.00  0.00     0.161 HD
ENDROOT
BRANCH   1  22
HETATM   22  C3  UNL     1      25.633   2.873  51.516  1.00  0.00     0.088 C 
HETATM   23  C2  UNL     1      26.438   2.733  50.483  1.00  0.00     0.035 C 
BRANCH  23  24
HETATM   24  C1  UNL     1      26.517   3.742  49.435  1.00  0.00     0.108 C 
HETATM   25  N1  UNL     1      27.537   4.532  49.267  1.00  0.00    -0.312 NA
HETATM   26  H1  UNL     1      27.542   5.235  48.502  1.00  0.00     0.186 HD
ENDBRANCH  23  24
ENDBRANCH   1  22
BRANCH   8  27
HETATM   27  O1  UNL     1      21.952  -1.599  53.805  1.00  0.00    -0.373 OA
HETATM   28  H15 UNL     1      21.129  -1.257  53.413  1.00  0.00     0.212 HD
ENDBRANCH   8  27
TORSDOF 3
ENDMDL
MODEL 2
REMARK VINA RESULT:      -8.3      2.142      3.633
REMARK  3 active torsions:
REMARK  status: ('A' for Active; 'I' for Inactive)
REMARK    1  A    between atoms: C1_2  and  C2_3 
REMARK    2  A    between atoms: C3_4  and  N2_5 
REMARK    3  A    between atoms: C9_12  and  O1_13 
ROOT
HETATM    1  N2  UNL     1      23.497   0.908  52.984  1.00  0.00    -0.372 N 
HETATM    2  C4  UNL     1      23.891  -0.402  53.358  1.00  0.00     0.124 C 
HETATM    3  C5  UNL     1      23.504  -0.917  54.714  1.00  0.00     0.023 C 
HETATM    4  C6  UNL     1      22.021  -1.222  54.627  1.00  0.00     0.030 C 
HETATM    5  C7  UNL     1      21.215  -0.105  54.226  1.00  0.00    -0.010 C 
HETATM    6  C8  UNL     1      20.800  -0.201  52.985  1.00  0.00     0.081 C 
HETATM    7  N3  UNL     1      20.118   0.212  51.815  1.00  0.00    -0.370 N 
HETATM    8  C9  UNL     1      20.641   0.530  50.510  1.00  0.00     0.252 C 
HETATM    9  C10 UNL     1      21.674   1.534  50.379  1.00  0.00    -0.000 A 
HETATM   10  C11 UNL     1      21.715   1.816  48.991  1.00  0.00     0.014 A 
HETATM   11  C12 UNL     1      22.526   2.750  48.335  1.00  0.00     0.033 A 
HETATM   12  C13 UNL     1      23.388   3.485  49.156  1.00  0.00     0.071 A 
HETATM   13  N4  UNL     1      24.176   4.423  48.641  1.00  0.00    -0.241 NA
HETATM   14  C14 UNL     1      24.982   5.167  49.414  1.00  0.00     0.234 A 
HETATM   15  N5  UNL     1      24.960   4.930  50.735  1.00  0.00    -0.234 NA
HETATM   16  C15 UNL     1      24.159   3.981  51.220  1.00  0.00     0.110 A 
HETATM   17  C16 UNL     1      23.316   3.178  50.496  1.00  0.00     0.038 A 
HETATM   18  C17 UNL     1      22.561   2.287  51.170  1.00  0.00     0.001 A 
HETATM   19  C18 UNL     1      22.818   2.138  52.612  1.00  0.00     0.187 C 
HETATM   20  S1  UNL     1      23.879   3.620  52.940  1.00  0.00    -0.079 SA
HETATM   21  H13 UNL     1      19.083   0.254  52.080  1.00  0.00     0.161 HD
ENDROOT
BRANCH   1  22
HETATM   22  C3  UNL     1      24.847   1.455  52.851  1.00  0.00     0.088 C 
HETATM   23  C2  UNL     1      25.791   0.707  52.314  1.00  0.00     0.035 C 
BRANCH  23  24
HETATM   24  C1  UNL     1      27.153   1.198  52.154  1.00  0.00     0.108 C 
HETATM   25  N1  UNL     1      27.473   2.458  52.162  1.00  0.00    -0.312 NA
HETATM   26  H1  UNL     1      28.463   2.754  52.043  1.00  0.00     0.186 HD
ENDBRANCH  23  24
ENDBRANCH   1  22
BRANCH   8  27
HETATM   27  O1  UNL     1      19.499   0.807  49.725  1.00  0.00    -0.373 OA
HETATM   28  H15 UNL     1      19.750   0.986  48.801  1.00  0.00     0.212 HD
ENDBRANCH   8  27
TORSDOF 3
ENDMDL
MODEL 3
REMARK VINA RESULT:      -7.9      2.865      3.839
REMARK  3 active torsions:
REMARK  status: ('A' for Active; 'I' for Inactive)
REMARK    1  A    between atoms: C1_2  and  C2_3 
REMARK    2  A    between atoms: C3_4  and  N2_5 
REMARK    3  A    between atoms: C9_12  and  O1_13 
ROOT
HETATM    1  N2  UNL     1      25.127   3.414  50.664  1.00  0.00    -0.372 N 
HETATM    2  C4  UNL     1      26.176   2.476  50.839  1.00  0.00     0.124 C 
HETATM    3  C5  UNL     1      26.562   2.071  52.232  1.00  0.00     0.023 C 
HETATM    4  C6  UNL     1      25.454   1.154  52.713  1.00  0.00     0.030 C 
HETATM    5  C7  UNL     1      24.146   1.739  52.666  1.00  0.00    -0.010 C 
HETATM    6  C8  UNL     1      23.420   1.277  51.676  1.00  0.00     0.081 C 
HETATM    7  N3  UNL     1      22.267   1.166  50.861  1.00  0.00    -0.370 N 
HETATM    8  C9  UNL     1      22.100   1.462  49.460  1.00  0.00     0.252 C 
HETATM    9  C10 UNL     1      22.446   2.774  48.960  1.00  0.00    -0.000 A 
HETATM   10  C11 UNL     1      21.871   2.819  47.666  1.00  0.00     0.014 A 
HETATM   11  C12 UNL     1      21.883   3.890  46.764  1.00  0.00     0.033 A 
HETATM   12  C13 UNL     1      22.540   5.044  47.206  1.00  0.00     0.071 A 
HETATM   13  N4  UNL     1      22.581   6.132  46.443  1.00  0.00    -0.241 NA
HETATM   14  C14 UNL     1      23.170   7.262  46.862  1.00  0.00     0.234 A 
HETATM   15  N5  UNL     1      23.717   7.255  48.087  1.00  0.00    -0.234 NA
HETATM   16  C15 UNL     1      23.660   6.147  48.827  1.00  0.00     0.110 A 
HETATM   17  C16 UNL     1      23.084   4.956  48.467  1.00  0.00     0.038 A 
HETATM   18  C17 UNL     1      23.103   3.950  49.365  1.00  0.00     0.001 A 
HETATM   19  C18 UNL     1      23.881   4.159  50.597  1.00  0.00     0.187 C 
HETATM   20  S1  UNL     1      24.190   5.984  50.518  1.00  0.00    -0.079 SA
HETATM   21  H13 UNL     1      21.491   0.805  51.501  1.00  0.00     0.161 HD
ENDROOT
BRANCH   1  22
HETATM   22  C3  UNL     1      25.939   4.454  50.034  1.00  0.00     0.088 C 
HETATM   23  C2  UNL     1      26.908   4.102  49.213  1.00  0.00     0.035 C 
BRANCH  23  24
HETATM   24  C1  UNL     1      27.749   5.093  48.555  1.00  0.00     0.108 C 
HETATM   25  N1  UNL     1      28.960   5.379  48.933  1.00  0.00    -0.312 NA
HETATM   26  H1  UNL     1      29.517   6.096  48.427  1.00  0.00     0.186 HD
ENDBRANCH  23  24
ENDBRANCH   1  22
BRANCH   8  27
HETATM   27  O1  UNL     1      20.765   1.095  49.174  1.00  0.00    -0.373 OA
HETATM   28  H15 UNL     1      20.495   1.430  48.301  1.00  0.00     0.212 HD
ENDBRANCH   8  27
TORSDOF 3
ENDMDL
MODEL 4
REMARK VINA RESULT:      -7.8      2.559      5.019
REMARK  3 active torsions:
REMARK  status: ('A' for Active; 'I' for Inactive)
REMARK    1  A    between atoms: C1_2  and  C2_3 
REMARK    2  A    between atoms: C3_4  and  N2_5 
REMARK    3  A    between atoms: C9_12  and  O1_13 
ROOT
HETATM    1  N2  UNL     1      21.371   1.013  52.101  1.00  0.00    -0.372 N 
HETATM    2  C4  UNL     1      20.769   1.019  53.385  1.00  0.00     0.124 C 
HETATM    3  C5  UNL     1      20.284  -0.278  53.966  1.00  0.00     0.023 C 
HETATM    4  C6  UNL     1      21.533  -1.029  54.386  1.00  0.00     0.030 C 
HETATM    5  C7  UNL     1      22.479  -1.234  53.327  1.00  0.00    -0.010 C 
HETATM    6  C8  UNL     1      23.524  -0.446  53.423  1.00  0.00     0.081 C 
HETATM    7  N3  UNL     1      24.772   0.097  53.034  1.00  0.00    -0.370 N 
HETATM    8  C9  UNL     1      25.106   1.443  52.640  1.00  0.00     0.252 C 
HETATM    9  C10 UNL     1      24.385   2.070  51.554  1.00  0.00    -0.000 A 
HETATM   10  C11 UNL     1      25.160   3.212  51.232  1.00  0.00     0.014 A 
HETATM   11  C12 UNL     1      24.919   4.147  50.218  1.00  0.00     0.033 A 
HETATM   12  C13 UNL     1      23.780   3.914  49.439  1.00  0.00     0.071 A 
HETATM   13  N4  UNL     1      23.477   4.721  48.427  1.00  0.00    -0.241 NA
HETATM   14  C14 UNL     1      22.412   4.494  47.642  1.00  0.00     0.234 A 
HETATM   15  N5  UNL     1      21.663   3.415  47.916  1.00  0.00    -0.234 NA
HETATM   16  C15 UNL     1      21.994   2.626  48.938  1.00  0.00     0.110 A 
HETATM   17  C16 UNL     1      23.057   2.795  49.787  1.00  0.00     0.038 A 
HETATM   18  C17 UNL     1      23.245   1.874  50.753  1.00  0.00     0.001 A 
HETATM   19  C18 UNL     1      22.202   0.848  50.920  1.00  0.00     0.187 C 
HETATM   20  S1  UNL     1      21.221   1.082  49.367  1.00  0.00    -0.079 SA
HETATM   21  H13 UNL     1      25.470  -0.711  53.082  1.00  0.00     0.161 HD
ENDROOT
BRANCH   1  22
HETATM   22  C3  UNL     1      20.371   1.852  51.444  1.00  0.00     0.088 C 
HETATM   23  C2  UNL     1      19.881   2.891  52.091  1.00  0.00     0.035 C 
BRANCH  23  24
HETATM   24  C1  UNL     1      18.883   3.764  51.489  1.00  0.00     0.108 C 
HETATM   25  N1  UNL     1      17.641   3.814  51.871  1.00  0.00    -0.312 NA
HETATM   26  H1  UNL     1      16.969   4.456  51.406  1.00  0.00     0.186 HD
ENDBRANCH  23  24
ENDBRANCH   1  22
BRANCH   8  27
HETATM   27  O1  UNL     1      26.504   1.419  52.434  1.00  0.00    -0.373 OA
HETATM   28  H15 UNL     1      26.780   2.149  51.852  1.00  0.00     0.212 HD
ENDBRANCH   8  27
TORSDOF 3
ENDMDL
MODEL 5
REMARK VINA RESULT:      -7.7     10.157     12.568
REMARK  3 active torsions:
REMARK  status: ('A' for Active; 'I' for Inactive)
REMARK    1  A    between atoms: C1_2  and  C2_3 
REMARK    2  A    between atoms: C3_4  and  N2_5 
REMARK    3  A    between atoms: C9_12  and  O1_13 
ROOT
HETATM    1  N2  UNL     1      32.401   9.065  46.764  1.00  0.00    -0.372 N 
HETATM    2  C4  UNL     1      32.813  10.297  47.331  1.00  0.00     0.124 C 
HETATM    3  C5  UNL     1      31.815  11.413  47.447  1.00  0.00     0.023 C 
HETATM    4  C6  UNL     1      30.894  11.020  48.586  1.00  0.00     0.030 C 
HETATM    5  C7  UNL     1      30.259   9.745  48.415  1.00  0.00    -0.010 C 
HETATM    6  C8  UNL     1      30.781   8.813  49.176  1.00  0.00     0.081 C 
HETATM    7  N3  UNL     1      30.923   7.509  49.708  1.00  0.00    -0.370 N 
HETATM    8  C9  UNL     1      32.041   6.603  49.632  1.00  0.00     0.252 C 
HETATM    9  C10 UNL     1      32.582   6.240  48.341  1.00  0.00    -0.000 A 
HETATM   10  C11 UNL     1      33.419   5.129  48.611  1.00  0.00     0.014 A 
HETATM   11  C12 UNL     1      34.155   4.373  47.690  1.00  0.00     0.033 A 
HETATM   12  C13 UNL     1      34.042   4.770  46.354  1.00  0.00     0.071 A 
HETATM   13  N4  UNL     1      34.671   4.100  45.394  1.00  0.00    -0.241 NA
HETATM   14  C14 UNL     1      34.544   4.438  44.101  1.00  0.00     0.234 A 
HETATM   15  N5  UNL     1      33.752   5.482  43.812  1.00  0.00    -0.234 NA
HETATM   16  C15 UNL     1      33.135   6.134  44.798  1.00  0.00     0.110 A 
HETATM   17  C16 UNL     1      33.221   5.854  46.137  1.00  0.00     0.038 A 
HETATM   18  C17 UNL     1      32.500   6.613  46.987  1.00  0.00     0.001 A 
HETATM   19  C18 UNL     1      31.806   7.783  46.424  1.00  0.00     0.187 C 
HETATM   20  S1  UNL     1      31.939   7.437  44.609  1.00  0.00    -0.079 SA
HETATM   21  H13 UNL     1      30.001   7.294  50.204  1.00  0.00     0.161 HD
ENDROOT
BRANCH   1  22
HETATM   22  C3  UNL     1      33.299   9.105  45.610  1.00  0.00     0.088 C 
HETATM   23  C2  UNL     1      34.531   9.544  45.773  1.00  0.00     0.035 C 
BRANCH  23  24
HETATM   24  C1  UNL     1      35.471   9.607  44.661  1.00  0.00     0.108 C 
HETATM   25  N1  UNL     1      36.763   9.608  44.807  1.00  0.00    -0.312 NA
HETATM   26  H1  UNL     1      37.389   9.654  43.979  1.00  0.00     0.186 HD
ENDBRANCH  23  24
ENDBRANCH   1  22
BRANCH   8  27
HETATM   27  O1  UNL     1      31.647   5.483  50.400  1.00  0.00    -0.373 OA
HETATM   28  H15 UNL     1      30.850   5.070  50.024  1.00  0.00     0.212 HD
ENDBRANCH   8  27
TORSDOF 3
ENDMDL
MODEL 6
REMARK VINA RESULT:      -7.6      1.685      2.330
REMARK  3 active torsions:
REMARK  status: ('A' for Active; 'I' for Inactive)
REMARK    1  A    between atoms: C1_2  and  C2_3 
REMARK    2  A    between atoms: C3_4  and  N2_5 
REMARK    3  A    between atoms: C9_12  and  O1_13 
ROOT
HETATM    1  N2  UNL     1      24.317   2.678  51.581  1.00  0.00    -0.372 N 
HETATM    2  C4  UNL     1      25.412   2.330  50.750  1.00  0.00     0.124 C 
HETATM    3  C5  UNL     1      26.784   2.816  51.115  1.00  0.00     0.023 C 
HETATM    4  C6  UNL     1      27.216   1.971  52.298  1.00  0.00     0.030 C 
HETATM    5  C7  UNL     1      26.314   2.017  53.412  1.00  0.00    -0.010 C 
HETATM    6  C8  UNL     1      25.598   0.925  53.529  1.00  0.00     0.081 C 
HETATM    7  N3  UNL     1      24.628   0.072  54.109  1.00  0.00    -0.370 N 
HETATM    8  C9  UNL     1      23.401  -0.438  53.549  1.00  0.00     0.252 C 
HETATM    9  C10 UNL     1      22.418   0.482  53.021  1.00  0.00    -0.000 A 
HETATM   10  C11 UNL     1      21.251  -0.306  52.862  1.00  0.00     0.014 A 
HETATM   11  C12 UNL     1      19.993   0.116  52.413  1.00  0.00     0.033 A 
HETATM   12  C13 UNL     1      19.890   1.474  52.090  1.00  0.00     0.071 A 
HETATM   13  N4  UNL     1      18.732   1.987  51.688  1.00  0.00    -0.241 NA
HETATM   14  C14 UNL     1      18.601   3.294  51.411  1.00  0.00     0.234 A 
HETATM   15  N5  UNL     1      19.687   4.067  51.559  1.00  0.00    -0.234 NA
HETATM   16  C15 UNL     1      20.834   3.522  51.964  1.00  0.00     0.110 A 
HETATM   17  C16 UNL     1      21.048   2.200  52.258  1.00  0.00     0.038 A 
HETATM   18  C17 UNL     1      22.277   1.839  52.678  1.00  0.00     0.001 A 
HETATM   19  C18 UNL     1      23.334   2.863  52.635  1.00  0.00     0.187 C 
HETATM   20  S1  UNL     1      22.332   4.397  52.360  1.00  0.00    -0.079 SA
HETATM   21  H13 UNL     1      24.978  -0.140  55.096  1.00  0.00     0.161 HD
ENDROOT
BRANCH   1  22
HETATM   22  C3  UNL     1      23.590   3.457  50.581  1.00  0.00     0.088 C 
HETATM   23  C2  UNL     1      23.500   2.994  49.350  1.00  0.00     0.035 C 
BRANCH  23  24
HETATM   24  C1  UNL     1      22.788   3.725  48.310  1.00  0.00     0.108 C 
HETATM   25  N1  UNL     1      22.048   4.770  48.539  1.00  0.00    -0.312 NA
HETATM   26  H1  UNL     1      21.561   5.254  47.759  1.00  0.00     0.186 HD
ENDBRANCH  23  24
ENDBRANCH   1  22
BRANCH   8  27
HETATM   27  O1  UNL     1      22.879  -1.291  54.549  1.00  0.00    -0.373 OA
HETATM   28  H15 UNL     1      22.765  -0.809  55.387  1.00  0.00     0.212 HD
ENDBRANCH   8  27
TORSDOF 3
ENDMDL
MODEL 7
REMARK VINA RESULT:      -7.5      2.004      5.270
REMARK  3 active torsions:
REMARK  status: ('A' for Active; 'I' for Inactive)
REMARK    1  A    between atoms: C1_2  and  C2_3 
REMARK    2  A    between atoms: C3_4  and  N2_5 
REMARK    3  A    between atoms: C9_12  and  O1_13 
ROOT
HETATM    1  N2  UNL     1      20.906   2.813  51.046  1.00  0.00    -0.372 N 
HETATM    2  C4  UNL     1      19.820   3.436  51.712  1.00  0.00     0.124 C 
HETATM    3  C5  UNL     1      18.423   3.169  51.231  1.00  0.00     0.023 C 
HETATM    4  C6  UNL     1      18.096   1.760  51.689  1.00  0.00     0.030 C 
HETATM    5  C7  UNL     1      19.022   0.765  51.233  1.00  0.00    -0.010 C 
HETATM    6  C8  UNL     1      19.829   0.352  52.182  1.00  0.00     0.081 C 
HETATM    7  N3  UNL     1      20.882  -0.412  52.741  1.00  0.00    -0.370 N 
HETATM    8  C9  UNL     1      22.129   0.025  53.316  1.00  0.00     0.252 C 
HETATM    9  C10 UNL     1      23.018   0.865  52.544  1.00  0.00    -0.000 A 
HETATM   10  C11 UNL     1      24.241   0.832  53.259  1.00  0.00     0.014 A 
HETATM   11  C12 UNL     1      25.447   1.455  52.914  1.00  0.00     0.033 A 
HETATM   12  C13 UNL     1      25.429   2.189  51.723  1.00  0.00     0.071 A 
HETATM   13  N4  UNL     1      26.529   2.792  51.285  1.00  0.00    -0.241 NA
HETATM   14  C14 UNL     1      26.546   3.468  50.125  1.00  0.00     0.234 A 
HETATM   15  N5  UNL     1      25.405   3.510  49.420  1.00  0.00    -0.234 NA
HETATM   16  C15 UNL     1      24.318   2.896  49.888  1.00  0.00     0.110 A 
HETATM   17  C16 UNL     1      24.221   2.195  51.062  1.00  0.00     0.038 A 
HETATM   18  C17 UNL     1      23.038   1.619  51.357  1.00  0.00     0.001 A 
HETATM   19  C18 UNL     1      21.901   1.923  50.472  1.00  0.00     0.187 C 
HETATM   20  S1  UNL     1      22.766   2.713  49.038  1.00  0.00    -0.079 SA
HETATM   21  H13 UNL     1      20.578  -1.433  52.656  1.00  0.00     0.161 HD
ENDROOT
BRANCH   1  22
HETATM   22  C3  UNL     1      21.538   4.043  50.573  1.00  0.00     0.088 C 
HETATM   23  C2  UNL     1      21.654   5.063  51.400  1.00  0.00     0.035 C 
BRANCH  23  24
HETATM   24  C1  UNL     1      22.276   6.314  50.986  1.00  0.00     0.108 C 
HETATM   25  N1  UNL     1      21.715   7.480  51.122  1.00  0.00    -0.312 NA
HETATM   26  H1  UNL     1      22.204   8.342  50.809  1.00  0.00     0.186 HD
ENDBRANCH  23  24
ENDBRANCH   1  22
BRANCH   8  27
HETATM   27  O1  UNL     1      22.747  -1.161  53.774  1.00  0.00    -0.373 OA
HETATM   28  H15 UNL     1      23.074  -1.691  53.025  1.00  0.00     0.212 HD
ENDBRANCH   8  27
TORSDOF 3
ENDMDL
MODEL 8
REMARK VINA RESULT:      -7.4      2.687      6.171
REMARK  3 active torsions:
REMARK  status: ('A' for Active; 'I' for Inactive)
REMARK    1  A    between atoms: C1_2  and  C2_3 
REMARK    2  A    between atoms: C3_4  and  N2_5 
REMARK    3  A    between atoms: C9_12  and  O1_13 
ROOT
HETATM    1  N2  UNL     1      19.353   1.989  50.893  1.00  0.00    -0.372 N 
HETATM    2  C4  UNL     1      18.290   2.909  51.077  1.00  0.00     0.124 C 
HETATM    3  C5  UNL     1      17.207   2.983  50.040  1.00  0.00     0.023 C 
HETATM    4  C6  UNL     1      16.366   1.736  50.237  1.00  0.00     0.030 C 
HETATM    5  C7  UNL     1      17.106   0.510  50.155  1.00  0.00    -0.010 C 
HETATM    6  C8  UNL     1      17.304  -0.040  51.330  1.00  0.00     0.081 C 
HETATM    7  N3  UNL     1      17.788  -1.016  52.234  1.00  0.00    -0.370 N 
HETATM    8  C9  UNL     1      18.745  -0.883  53.303  1.00  0.00     0.252 C 
HETATM    9  C10 UNL     1      20.060  -0.348  53.024  1.00  0.00    -0.000 A 
HETATM   10  C11 UNL     1      20.816  -0.653  54.183  1.00  0.00     0.014 A 
HETATM   11  C12 UNL     1      22.171  -0.384  54.413  1.00  0.00     0.033 A 
HETATM   12  C13 UNL     1      22.844   0.259  53.368  1.00  0.00     0.071 A 
HETATM   13  N4  UNL     1      24.142   0.531  53.467  1.00  0.00    -0.241 NA
HETATM   14  C14 UNL     1      24.817   1.110  52.462  1.00  0.00     0.234 A 
HETATM   15  N5  UNL     1      24.131   1.405  51.347  1.00  0.00    -0.234 NA
HETATM   16  C15 UNL     1      22.830   1.120  51.280  1.00  0.00     0.110 A 
HETATM   17  C16 UNL     1      22.072   0.538  52.263  1.00  0.00     0.038 A 
HETATM   18  C17 UNL     1      20.770   0.305  52.001  1.00  0.00     0.001 A 
HETATM   19  C18 UNL     1      20.230   0.840  50.740  1.00  0.00     0.187 C 
HETATM   20  S1  UNL     1      21.788   1.295  49.848  1.00  0.00    -0.079 SA
HETATM   21  H13 UNL     1      17.296  -1.928  51.971  1.00  0.00     0.161 HD
ENDROOT
BRANCH   1  22
HETATM   22  C3  UNL     1      20.420   2.984  50.801  1.00  0.00     0.088 C 
HETATM   23  C2  UNL     1      20.413   4.010  51.628  1.00  0.00     0.035 C 
BRANCH  23  24
HETATM   24  C1  UNL     1      21.449   5.033  51.584  1.00  0.00     0.108 C 
HETATM   25  N1  UNL     1      22.336   5.123  50.637  1.00  0.00    -0.312 NA
HETATM   26  H1  UNL     1      23.054   5.874  50.655  1.00  0.00     0.186 HD
ENDBRANCH  23  24
ENDBRANCH   1  22
BRANCH   8  27
HETATM   27  O1  UNL     1      18.785  -2.160  53.909  1.00  0.00    -0.373 OA
HETATM   28  H15 UNL     1      18.924  -2.082  54.869  1.00  0.00     0.212 HD
ENDBRANCH   8  27
TORSDOF 3
ENDMDL
MODEL 9
REMARK VINA RESULT:      -7.3     10.022     12.015
REMARK  3 active torsions:
REMARK  status: ('A' for Active; 'I' for Inactive)
REMARK    1  A    between atoms: C1_2  and  C2_3 
REMARK    2  A    between atoms: C3_4  and  N2_5 
REMARK    3  A    between atoms: C9_12  and  O1_13 
ROOT
HETATM    1  N2  UNL     1      33.748   6.437  45.852  1.00  0.00    -0.372 N 
HETATM    2  C4  UNL     1      33.521   5.395  44.918  1.00  0.00     0.124 C 
HETATM    3  C5  UNL     1      34.619   4.406  44.652  1.00  0.00     0.023 C 
HETATM    4  C6  UNL     1      34.666   3.509  45.875  1.00  0.00     0.030 C 
HETATM    5  C7  UNL     1      34.861   4.211  47.110  1.00  0.00    -0.010 C 
HETATM    6  C8  UNL     1      33.763   4.290  47.826  1.00  0.00     0.081 C 
HETATM    7  N3  UNL     1      32.971   4.663  48.938  1.00  0.00    -0.370 N 
HETATM    8  C9  UNL     1      31.821   5.531  48.996  1.00  0.00     0.252 C 
HETATM    9  C10 UNL     1      31.918   6.882  48.489  1.00  0.00    -0.000 A 
HETATM   10  C11 UNL     1      30.757   7.527  48.985  1.00  0.00     0.014 A 
HETATM   11  C12 UNL     1      30.387   8.866  48.812  1.00  0.00     0.033 A 
HETATM   12  C13 UNL     1      31.274   9.647  48.062  1.00  0.00     0.071 A 
HETATM   13  N4  UNL     1      31.037  10.940  47.867  1.00  0.00    -0.241 NA
HETATM   14  C14 UNL     1      31.894  11.717  47.186  1.00  0.00     0.234 A 
HETATM   15  N5  UNL     1      33.006  11.137  46.710  1.00  0.00    -0.234 NA
HETATM   16  C15 UNL     1      33.215   9.838  46.923  1.00  0.00     0.110 A 
HETATM   17  C16 UNL     1      32.387   8.980  47.600  1.00  0.00     0.038 A 
HETATM   18  C17 UNL     1      32.781   7.698  47.735  1.00  0.00     0.001 A 
HETATM   19  C18 UNL     1      33.992   7.284  47.007  1.00  0.00     0.187 C 
HETATM   20  S1  UNL     1      34.685   8.927  46.506  1.00  0.00    -0.079 SA
HETATM   21  H13 UNL     1      33.397   4.164  49.781  1.00  0.00     0.161 HD
ENDROOT
BRANCH   1  22
HETATM   22  C3  UNL     1      33.615   7.542  44.903  1.00  0.00     0.088 C 
HETATM   23  C2  UNL     1      32.700   7.468  43.958  1.00  0.00     0.035 C 
BRANCH  23  24
HETATM   24  C1  UNL     1      32.520   8.537  42.984  1.00  0.00     0.108 C 
HETATM   25  N1  UNL     1      31.584   8.542  42.081  1.00  0.00    -0.312 NA
HETATM   26  H1  UNL     1      31.501   9.332  41.410  1.00  0.00     0.186 HD
ENDBRANCH  23  24
ENDBRANCH   1  22
BRANCH   8  27
HETATM   27  O1  UNL     1      31.400   5.476  50.345  1.00  0.00    -0.373 OA
HETATM   28  H15 UNL     1      30.616   4.907  50.438  1.00  0.00     0.212 HD
ENDBRANCH   8  27
TORSDOF 3
ENDMDL
