MODEL 1
REMARK VINA RESULT:      -7.8      0.000      0.000
REMARK  3 active torsions:
REMARK  status: ('A' for Active; 'I' for Inactive)
REMARK       I    between atoms: N1_1  and  C1_2 
REMARK    1  A    between atoms: C1_2  and  C2_4 
REMARK    2  A    between atoms: C8_10  and  N2_11 
REMARK    3  A    between atoms: C13_18  and  N3_19 
ROOT
HETATM    1  C2  UNL     1      25.083   3.718  49.877  1.00  0.00     0.026 A 
HETATM    2  C3  UNL     1      23.953   3.239  49.205  1.00  0.00     0.019 A 
HETATM    3  C4  UNL     1      23.062   2.379  49.805  1.00  0.00     0.033 A 
HETATM    4  C5  UNL     1      23.251   1.954  51.104  1.00  0.00     0.065 A 
HETATM    5  C6  UNL     1      24.362   2.419  51.778  1.00  0.00    -0.001 A 
HETATM    6  C7  UNL     1      25.249   3.273  51.186  1.00  0.00     0.028 A 
HETATM    7  C8  UNL     1      24.416   1.868  53.156  1.00  0.00     0.162 A 
HETATM    8  C14 UNL     1      23.177   1.035  53.139  1.00  0.00     0.120 A 
HETATM    9  N4  UNL     1      22.537   1.090  51.996  1.00  0.00    -0.262 NA
ENDROOT
BRANCH   7  10
HETATM   10  N2  UNL     1      25.590   1.092  53.404  1.00  0.00    -0.343 N 
HETATM   11  C9  UNL     1      25.686  -0.128  52.651  1.00  0.00     0.116 A 
HETATM   12  C10 UNL     1      26.732  -0.917  52.807  1.00  0.00     0.087 A 
HETATM   13 CL1  UNL     1      26.848  -2.405  51.889  1.00  0.00    -0.080 Cl
HETATM   14  C11 UNL     1      27.805  -0.591  53.726  1.00  0.00     0.139 A 
HETATM   15  F1  UNL     1      28.863  -1.421  53.862  1.00  0.00    -0.204 F 
HETATM   16  C12 UNL     1      27.707   0.522  54.405  1.00  0.00     0.073 A 
HETATM   17  C13 UNL     1      26.612   1.509  54.350  1.00  0.00     0.346 A 
BRANCH  17  18
HETATM   18  N3  UNL     1      27.184   2.744  53.792  1.00  0.00     0.105 N 
HETATM   19  H10 UNL     1      28.144   2.590  53.415  1.00  0.00     0.315 HD
HETATM   20  H11 UNL     1      26.585   3.145  53.042  1.00  0.00     0.315 HD
ENDBRANCH  17  18
ENDBRANCH   7  10
BRANCH   1  21
HETATM   21  C1  UNL     1      26.057   4.632  49.283  1.00  0.00     0.228 C 
HETATM   22  N1  UNL     1      27.423   4.272  49.453  1.00  0.00    -0.268 NA
HETATM   23  H1  UNL     1      28.251   3.807  49.018  1.00  0.00     0.127 HD
HETATM   24  H2  UNL     1      28.203   3.787  48.941  1.00  0.00     0.127 HD
HETATM   25  O1  UNL     1      25.655   5.649  48.677  1.00  0.00    -0.274 OA
ENDBRANCH   1  21
TORSDOF 3
ENDMDL
MODEL 2
REMARK VINA RESULT:      -7.7      2.985      4.696
REMARK  3 active torsions:
REMARK  status: ('A' for Active; 'I' for Inactive)
REMARK       I    between atoms: N1_1  and  C1_2 
REMARK    1  A    between atoms: C1_2  and  C2_4 
REMARK    2  A    between atoms: C8_10  and  N2_11 
REMARK    3  A    between atoms: C13_18  and  N3_19 
ROOT
HETATM    1  C2  UNL     1      21.456  -0.176  53.543  1.00  0.00     0.026 A 
HETATM    2  C3  UNL     1      20.791   1.034  53.314  1.00  0.00     0.019 A 
HETATM    3  C4  UNL     1      21.388   2.073  52.638  1.00  0.00     0.033 A 
HETATM    4  C5  UNL     1      22.676   1.960  52.156  1.00  0.00     0.065 A 
HETATM    5  C6  UNL     1      23.343   0.771  52.376  1.00  0.00    -0.001 A 
HETATM    6  C7  UNL     1      22.754  -0.262  53.046  1.00  0.00     0.028 A 
HETATM    7  C8  UNL     1      24.710   0.815  51.797  1.00  0.00     0.162 A 
HETATM    8  C14 UNL     1      24.695   2.196  51.230  1.00  0.00     0.120 A 
HETATM    9  N4  UNL     1      23.562   2.823  51.434  1.00  0.00    -0.262 NA
ENDROOT
BRANCH   7  10
HETATM   10  N2  UNL     1      25.738   0.639  52.773  1.00  0.00    -0.343 N 
HETATM   11  C9  UNL     1      26.689  -0.397  52.477  1.00  0.00     0.116 A 
HETATM   12  C10 UNL     1      27.679  -0.641  53.316  1.00  0.00     0.087 A 
HETATM   13 CL1  UNL     1      28.838  -1.903  52.955  1.00  0.00    -0.080 Cl
HETATM   14  C11 UNL     1      27.842   0.113  54.544  1.00  0.00     0.139 A 
HETATM   15  F1  UNL     1      28.867  -0.161  55.382  1.00  0.00    -0.204 F 
HETATM   16  C12 UNL     1      26.971   1.052  54.801  1.00  0.00     0.073 A 
HETATM   17  C13 UNL     1      25.814   1.450  53.977  1.00  0.00     0.346 A 
BRANCH  17  18
HETATM   18  N3  UNL     1      26.077   2.820  53.512  1.00  0.00     0.105 N 
HETATM   19  H10 UNL     1      26.537   3.397  54.248  1.00  0.00     0.315 HD
HETATM   20  H11 UNL     1      26.665   2.833  52.654  1.00  0.00     0.315 HD
ENDBRANCH  17  18
ENDBRANCH   7  10
BRANCH   1  21
HETATM   21  C1  UNL     1      20.865  -1.307  54.255  1.00  0.00     0.228 C 
HETATM   22  N1  UNL     1      19.488  -1.550  53.991  1.00  0.00    -0.268 NA
HETATM   23  H1  UNL     1      18.804  -2.108  53.433  1.00  0.00     0.127 HD
HETATM   24  H2  UNL     1      18.872  -2.155  53.390  1.00  0.00     0.127 HD
HETATM   25  O1  UNL     1      21.573  -1.982  55.034  1.00  0.00    -0.274 OA
ENDBRANCH   1  21
TORSDOF 3
ENDMDL
MODEL 3
REMARK VINA RESULT:      -7.3      4.086      6.133
REMARK  3 active torsions:
REMARK  status: ('A' for Active; 'I' for Inactive)
REMARK       I    between atoms: N1_1  and  C1_2 
REMARK    1  A    between atoms: C1_2  and  C2_4 
REMARK    2  A    between atoms: C8_10  and  N2_11 
REMARK    3  A    between atoms: C13_18  and  N3_19 
ROOT
HETATM    1  C2  UNL     1      23.733  -0.698  54.272  1.00  0.00     0.026 A 
HETATM    2  C3  UNL     1      22.497  -1.156  54.742  1.00  0.00     0.019 A 
HETATM    3  C4  UNL     1      21.321  -0.865  54.091  1.00  0.00     0.033 A 
HETATM    4  C5  UNL     1      21.315  -0.104  52.940  1.00  0.00     0.065 A 
HETATM    5  C6  UNL     1      22.528   0.355  52.466  1.00  0.00    -0.001 A 
HETATM    6  C7  UNL     1      23.698   0.067  53.110  1.00  0.00     0.028 A 
HETATM    7  C8  UNL     1      22.347   1.153  51.227  1.00  0.00     0.162 A 
HETATM    8  C14 UNL     1      20.862   1.067  51.091  1.00  0.00     0.120 A 
HETATM    9  N4  UNL     1      20.299   0.367  52.047  1.00  0.00    -0.262 NA
ENDROOT
BRANCH   7  10
HETATM   10  N2  UNL     1      22.804   2.501  51.357  1.00  0.00    -0.343 N 
HETATM   11  C9  UNL     1      23.733   2.930  50.349  1.00  0.00     0.116 A 
HETATM   12  C10 UNL     1      24.216   4.158  50.379  1.00  0.00     0.087 A 
HETATM   13 CL1  UNL     1      25.349   4.681  49.150  1.00  0.00    -0.080 Cl
HETATM   14  C11 UNL     1      23.834   5.104  51.410  1.00  0.00     0.139 A 
HETATM   15  F1  UNL     1      24.347   6.355  51.412  1.00  0.00    -0.204 F 
HETATM   16  C12 UNL     1      22.988   4.702  52.321  1.00  0.00     0.073 A 
HETATM   17  C13 UNL     1      22.359   3.372  52.433  1.00  0.00     0.346 A 
BRANCH  17  18
HETATM   18  N3  UNL     1      20.918   3.566  52.210  1.00  0.00     0.105 N 
HETATM   19  H10 UNL     1      20.475   4.103  52.987  1.00  0.00     0.315 HD
HETATM   20  H11 UNL     1      20.725   4.051  51.309  1.00  0.00     0.315 HD
ENDBRANCH  17  18
ENDBRANCH   7  10
BRANCH   1  21
HETATM   21  C1  UNL     1      25.008  -0.981  54.927  1.00  0.00     0.228 C 
HETATM   22  N1  UNL     1      24.924  -1.394  56.287  1.00  0.00    -0.268 NA
HETATM   23  H1  UNL     1      24.909  -2.210  56.939  1.00  0.00     0.127 HD
HETATM   24  H2  UNL     1      24.917  -2.271  56.869  1.00  0.00     0.127 HD
HETATM   25  O1  UNL     1      26.073  -0.850  54.285  1.00  0.00    -0.274 OA
ENDBRANCH   1  21
TORSDOF 3
ENDMDL
MODEL 4
REMARK VINA RESULT:      -7.2      3.806      5.694
REMARK  3 active torsions:
REMARK  status: ('A' for Active; 'I' for Inactive)
REMARK       I    between atoms: N1_1  and  C1_2 
REMARK    1  A    between atoms: C1_2  and  C2_4 
REMARK    2  A    between atoms: C8_10  and  N2_11 
REMARK    3  A    between atoms: C13_18  and  N3_19 
ROOT
HETATM    1  C2  UNL     1      27.564   0.995  53.850  1.00  0.00     0.026 A 
HETATM    2  C3  UNL     1      26.902   0.127  54.726  1.00  0.00     0.019 A 
HETATM    3  C4  UNL     1      25.585  -0.224  54.542  1.00  0.00     0.033 A 
HETATM    4  C5  UNL     1      24.859   0.273  53.478  1.00  0.00     0.065 A 
HETATM    5  C6  UNL     1      25.500   1.131  52.607  1.00  0.00    -0.001 A 
HETATM    6  C7  UNL     1      26.808   1.480  52.786  1.00  0.00     0.028 A 
HETATM    7  C8  UNL     1      24.583   1.570  51.525  1.00  0.00     0.162 A 
HETATM    8  C14 UNL     1      23.350   0.831  51.928  1.00  0.00     0.120 A 
HETATM    9  N4  UNL     1      23.514   0.114  53.014  1.00  0.00    -0.262 NA
ENDROOT
BRANCH   7  10
HETATM   10  N2  UNL     1      24.386   2.985  51.498  1.00  0.00    -0.343 N 
HETATM   11  C9  UNL     1      25.015   3.669  50.402  1.00  0.00     0.116 A 
HETATM   12  C10 UNL     1      24.893   4.978  50.287  1.00  0.00     0.087 A 
HETATM   13 CL1  UNL     1      25.661   5.812  48.951  1.00  0.00    -0.080 Cl
HETATM   14  C11 UNL     1      24.134   5.762  51.241  1.00  0.00     0.139 A 
HETATM   15  F1  UNL     1      24.028   7.102  51.094  1.00  0.00    -0.204 F 
HETATM   16  C12 UNL     1      23.566   5.129  52.233  1.00  0.00     0.073 A 
HETATM   17  C13 UNL     1      23.604   3.680  52.508  1.00  0.00     0.346 A 
BRANCH  17  18
HETATM   18  N3  UNL     1      22.228   3.183  52.350  1.00  0.00     0.105 N 
HETATM   19  H10 UNL     1      21.856   2.786  53.239  1.00  0.00     0.315 HD
HETATM   20  H11 UNL     1      21.583   3.927  52.014  1.00  0.00     0.315 HD
ENDBRANCH  17  18
ENDBRANCH   7  10
BRANCH   1  21
HETATM   21  C1  UNL     1      28.961   1.395  54.002  1.00  0.00     0.228 C 
HETATM   22  N1  UNL     1      29.923   0.493  53.468  1.00  0.00    -0.268 NA
HETATM   23  H1  UNL     1      30.533   0.271  52.650  1.00  0.00     0.127 HD
HETATM   24  H2  UNL     1      30.504   0.345  52.604  1.00  0.00     0.127 HD
HETATM   25  O1  UNL     1      29.233   2.473  54.575  1.00  0.00    -0.274 OA
ENDBRANCH   1  21
TORSDOF 3
ENDMDL
MODEL 5
REMARK VINA RESULT:      -7.0      3.808      6.184
REMARK  3 active torsions:
REMARK  status: ('A' for Active; 'I' for Inactive)
REMARK       I    between atoms: N1_1  and  C1_2 
REMARK    1  A    between atoms: C1_2  and  C2_4 
REMARK    2  A    between atoms: C8_10  and  N2_11 
REMARK    3  A    between atoms: C13_18  and  N3_19 
ROOT
HETATM    1  C2  UNL     1      22.786   0.152  53.627  1.00  0.00     0.026 A 
HETATM    2  C3  UNL     1      23.722  -0.888  53.672  1.00  0.00     0.019 A 
HETATM    3  C4  UNL     1      25.011  -0.722  53.222  1.00  0.00     0.033 A 
HETATM    4  C5  UNL     1      25.434   0.485  52.705  1.00  0.00     0.065 A 
HETATM    5  C6  UNL     1      24.520   1.519  52.656  1.00  0.00    -0.001 A 
HETATM    6  C7  UNL     1      23.239   1.358  53.102  1.00  0.00     0.028 A 
HETATM    7  C8  UNL     1      25.132   2.741  52.076  1.00  0.00     0.162 A 
HETATM    8  C14 UNL     1      26.511   2.229  51.815  1.00  0.00     0.120 A 
HETATM    9  N4  UNL     1      26.668   0.976  52.169  1.00  0.00    -0.262 NA
ENDROOT
BRANCH   7  10
HETATM   10  N2  UNL     1      24.482   3.182  50.883  1.00  0.00    -0.343 N 
HETATM   11  C9  UNL     1      23.519   2.265  50.338  1.00  0.00     0.116 A 
HETATM   12  C10 UNL     1      22.862   2.578  49.236  1.00  0.00     0.087 A 
HETATM   13 CL1  UNL     1      21.689   1.460  48.572  1.00  0.00    -0.080 Cl
HETATM   14  C11 UNL     1      23.082   3.835  48.547  1.00  0.00     0.139 A 
HETATM   15  F1  UNL     1      22.392   4.125  47.421  1.00  0.00    -0.204 F 
HETATM   16  C12 UNL     1      23.960   4.660  49.053  1.00  0.00     0.073 A 
HETATM   17  C13 UNL     1      24.774   4.466  50.267  1.00  0.00     0.346 A 
BRANCH  17  18
HETATM   18  N3  UNL     1      24.332   5.478  51.239  1.00  0.00     0.105 N 
HETATM   19  H10 UNL     1      24.821   5.374  52.154  1.00  0.00     0.315 HD
HETATM   20  H11 UNL     1      24.475   6.446  50.885  1.00  0.00     0.315 HD
ENDBRANCH  17  18
ENDBRANCH   7  10
BRANCH   1  21
HETATM   21  C1  UNL     1      21.406   0.025  54.093  1.00  0.00     0.228 C 
HETATM   22  N1  UNL     1      21.136  -1.102  54.918  1.00  0.00    -0.268 NA
HETATM   23  H1  UNL     1      21.035  -1.446  55.900  1.00  0.00     0.127 HD
HETATM   24  H2  UNL     1      21.053  -1.361  55.935  1.00  0.00     0.127 HD
HETATM   25  O1  UNL     1      20.562   0.882  53.754  1.00  0.00    -0.274 OA
ENDBRANCH   1  21
TORSDOF 3
ENDMDL
MODEL 6
REMARK VINA RESULT:      -7.0      3.788      5.767
REMARK  3 active torsions:
REMARK  status: ('A' for Active; 'I' for Inactive)
REMARK       I    between atoms: N1_1  and  C1_2 
REMARK    1  A    between atoms: C1_2  and  C2_4 
REMARK    2  A    between atoms: C8_10  and  N2_11 
REMARK    3  A    between atoms: C13_18  and  N3_19 
ROOT
HETATM    1  C2  UNL     1      26.220   0.644  53.590  1.00  0.00     0.026 A 
HETATM    2  C3  UNL     1      26.979   0.818  52.426  1.00  0.00     0.019 A 
HETATM    3  C4  UNL     1      26.507   1.536  51.353  1.00  0.00     0.033 A 
HETATM    4  C5  UNL     1      25.255   2.117  51.381  1.00  0.00     0.065 A 
HETATM    5  C6  UNL     1      24.496   1.952  52.523  1.00  0.00    -0.001 A 
HETATM    6  C7  UNL     1      24.962   1.240  53.591  1.00  0.00     0.028 A 
HETATM    7  C8  UNL     1      23.184   2.635  52.391  1.00  0.00     0.162 A 
HETATM    8  C14 UNL     1      23.334   3.197  51.015  1.00  0.00     0.120 A 
HETATM    9  N4  UNL     1      24.487   2.903  50.464  1.00  0.00    -0.262 NA
ENDROOT
BRANCH   7  10
HETATM   10  N2  UNL     1      22.074   1.743  52.496  1.00  0.00    -0.343 N 
HETATM   11  C9  UNL     1      22.278   0.614  53.362  1.00  0.00     0.116 A 
HETATM   12  C10 UNL     1      21.314  -0.271  53.528  1.00  0.00     0.087 A 
HETATM   13 CL1  UNL     1      21.563  -1.648  54.583  1.00  0.00    -0.080 Cl
HETATM   14  C11 UNL     1      20.034  -0.142  52.857  1.00  0.00     0.139 A 
HETATM   15  F1  UNL     1      19.066  -1.066  53.049  1.00  0.00    -0.204 F 
HETATM   16  C12 UNL     1      19.860   0.889  52.073  1.00  0.00     0.073 A 
HETATM   17  C13 UNL     1      20.828   1.962  51.779  1.00  0.00     0.346 A 
BRANCH  17  18
HETATM   18  N3  UNL     1      20.268   3.203  52.337  1.00  0.00     0.105 N 
HETATM   19  H10 UNL     1      20.803   4.042  52.027  1.00  0.00     0.315 HD
HETATM   20  H11 UNL     1      19.266   3.325  52.083  1.00  0.00     0.315 HD
ENDBRANCH  17  18
ENDBRANCH   7  10
BRANCH   1  21
HETATM   21  C1  UNL     1      26.678  -0.109  54.755  1.00  0.00     0.228 C 
HETATM   22  N1  UNL     1      28.087  -0.143  54.951  1.00  0.00    -0.268 NA
HETATM   23  H1  UNL     1      28.896   0.283  55.456  1.00  0.00     0.127 HD
HETATM   24  H2  UNL     1      28.841   0.343  55.501  1.00  0.00     0.127 HD
HETATM   25  O1  UNL     1      25.839  -0.666  55.496  1.00  0.00    -0.274 OA
ENDBRANCH   1  21
TORSDOF 3
ENDMDL
MODEL 7
REMARK VINA RESULT:      -6.8      1.667      2.065
REMARK  3 active torsions:
REMARK  status: ('A' for Active; 'I' for Inactive)
REMARK       I    between atoms: N1_1  and  C1_2 
REMARK    1  A    between atoms: C1_2  and  C2_4 
REMARK    2  A    between atoms: C8_10  and  N2_11 
REMARK    3  A    between atoms: C13_18  and  N3_19 
ROOT
HETATM    1  C2  UNL     1      24.683   4.130  50.015  1.00  0.00     0.026 A 
HETATM    2  C3  UNL     1      23.742   3.627  49.110  1.00  0.00     0.019 A 
HETATM    3  C4  UNL     1      22.923   2.568  49.429  1.00  0.00     0.033 A 
HETATM    4  C5  UNL     1      23.001   1.957  50.663  1.00  0.00     0.065 A 
HETATM    5  C6  UNL     1      23.926   2.443  51.565  1.00  0.00    -0.001 A 
HETATM    6  C7  UNL     1      24.740   3.495  51.253  1.00  0.00     0.028 A 
HETATM    7  C8  UNL     1      23.880   1.678  52.837  1.00  0.00     0.162 A 
HETATM    8  C14 UNL     1      22.799   0.704  52.503  1.00  0.00     0.120 A 
HETATM    9  N4  UNL     1      22.317   0.867  51.294  1.00  0.00    -0.262 NA
ENDROOT
BRANCH   7  10
HETATM   10  N2  UNL     1      25.117   1.034  53.148  1.00  0.00    -0.343 N 
HETATM   11  C9  UNL     1      26.241   1.914  53.308  1.00  0.00     0.116 A 
HETATM   12  C10 UNL     1      27.430   1.418  53.596  1.00  0.00     0.087 A 
HETATM   13 CL1  UNL     1      28.801   2.491  53.790  1.00  0.00    -0.080 Cl
HETATM   14  C11 UNL     1      27.643  -0.007  53.760  1.00  0.00     0.139 A 
HETATM   15  F1  UNL     1      28.873  -0.484  54.056  1.00  0.00    -0.204 F 
HETATM   16  C12 UNL     1      26.612  -0.798  53.613  1.00  0.00     0.073 A 
HETATM   17  C13 UNL     1      25.226  -0.409  53.292  1.00  0.00     0.346 A 
BRANCH  17  18
HETATM   18  N3  UNL     1      24.409  -0.750  54.466  1.00  0.00     0.105 N 
HETATM   19  H10 UNL     1      23.442  -0.367  54.388  1.00  0.00     0.315 HD
HETATM   20  H11 UNL     1      24.356  -1.778  54.618  1.00  0.00     0.315 HD
ENDBRANCH  17  18
ENDBRANCH   7  10
BRANCH   1  21
HETATM   21  C1  UNL     1      25.573   5.252  49.724  1.00  0.00     0.228 C 
HETATM   22  N1  UNL     1      25.437   6.384  50.575  1.00  0.00    -0.268 NA
HETATM   23  H1  UNL     1      25.810   6.877  51.417  1.00  0.00     0.127 HD
HETATM   24  H2  UNL     1      25.876   6.812  51.430  1.00  0.00     0.127 HD
HETATM   25  O1  UNL     1      26.381   5.165  48.773  1.00  0.00    -0.274 OA
ENDBRANCH   1  21
TORSDOF 3
ENDMDL
MODEL 8
REMARK VINA RESULT:      -6.7      3.969      5.977
REMARK  3 active torsions:
REMARK  status: ('A' for Active; 'I' for Inactive)
REMARK       I    between atoms: N1_1  and  C1_2 
REMARK    1  A    between atoms: C1_2  and  C2_4 
REMARK    2  A    between atoms: C8_10  and  N2_11 
REMARK    3  A    between atoms: C13_18  and  N3_19 
ROOT
HETATM    1  C2  UNL     1      25.714   1.206  53.220  1.00  0.00     0.026 A 
HETATM    2  C3  UNL     1      24.527   0.527  53.517  1.00  0.00     0.019 A 
HETATM    3  C4  UNL     1      23.413   0.629  52.716  1.00  0.00     0.033 A 
HETATM    4  C5  UNL     1      23.425   1.411  51.579  1.00  0.00     0.065 A 
HETATM    5  C6  UNL     1      24.590   2.086  51.275  1.00  0.00    -0.001 A 
HETATM    6  C7  UNL     1      25.698   1.987  52.067  1.00  0.00     0.028 A 
HETATM    7  C8  UNL     1      24.435   2.877  50.027  1.00  0.00     0.162 A 
HETATM    8  C14 UNL     1      23.020   2.539  49.693  1.00  0.00     0.120 A 
HETATM    9  N4  UNL     1      22.468   1.724  50.560  1.00  0.00    -0.262 NA
ENDROOT
BRANCH   7  10
HETATM   10  N2  UNL     1      24.627   4.279  50.225  1.00  0.00    -0.343 N 
HETATM   11  C9  UNL     1      25.614   4.886  49.375  1.00  0.00     0.116 A 
HETATM   12  C10 UNL     1      25.868   6.176  49.478  1.00  0.00     0.087 A 
HETATM   13 CL1  UNL     1      27.071   6.916  48.441  1.00  0.00    -0.080 Cl
HETATM   14  C11 UNL     1      25.174   7.017  50.434  1.00  0.00     0.139 A 
HETATM   15  F1  UNL     1      25.456   8.337  50.515  1.00  0.00    -0.204 F 
HETATM   16  C12 UNL     1      24.278   6.454  51.201  1.00  0.00     0.073 A 
HETATM   17  C13 UNL     1      23.878   5.035  51.215  1.00  0.00     0.346 A 
BRANCH  17  18
HETATM   18  N3  UNL     1      22.477   4.986  50.768  1.00  0.00     0.105 N 
HETATM   19  H10 UNL     1      21.985   5.889  50.939  1.00  0.00     0.315 HD
HETATM   20  H11 UNL     1      22.399   4.742  49.760  1.00  0.00     0.315 HD
ENDBRANCH  17  18
ENDBRANCH   7  10
BRANCH   1  21
HETATM   21  C1  UNL     1      26.922   1.129  54.039  1.00  0.00     0.228 C 
HETATM   22  N1  UNL     1      27.199  -0.144  54.610  1.00  0.00    -0.268 NA
HETATM   23  H1  UNL     1      27.739  -1.033  54.510  1.00  0.00     0.127 HD
HETATM   24  H2  UNL     1      27.779  -1.004  54.432  1.00  0.00     0.127 HD
HETATM   25  O1  UNL     1      27.627   2.150  54.192  1.00  0.00    -0.274 OA
ENDBRANCH   1  21
TORSDOF 3
ENDMDL
MODEL 9
REMARK VINA RESULT:      -6.6      3.587      4.762
REMARK  3 active torsions:
REMARK  status: ('A' for Active; 'I' for Inactive)
REMARK       I    between atoms: N1_1  and  C1_2 
REMARK    1  A    between atoms: C1_2  and  C2_4 
REMARK    2  A    between atoms: C8_10  and  N2_11 
REMARK    3  A    between atoms: C13_18  and  N3_19 
ROOT
HETATM    1  C2  UNL     1      26.158   5.978  48.982  1.00  0.00     0.026 A 
HETATM    2  C3  UNL     1      25.480   6.820  48.092  1.00  0.00     0.019 A 
HETATM    3  C4  UNL     1      24.170   7.187  48.299  1.00  0.00     0.033 A 
HETATM    4  C5  UNL     1      23.470   6.736  49.399  1.00  0.00     0.065 A 
HETATM    5  C6  UNL     1      24.128   5.905  50.283  1.00  0.00    -0.001 A 
HETATM    6  C7  UNL     1      25.428   5.538  50.082  1.00  0.00     0.028 A 
HETATM    7  C8  UNL     1      23.238   5.512  51.405  1.00  0.00     0.162 A 
HETATM    8  C14 UNL     1      21.999   6.246  51.008  1.00  0.00     0.120 A 
HETATM    9  N4  UNL     1      22.139   6.923  49.893  1.00  0.00    -0.262 NA
ENDROOT
BRANCH   7  10
HETATM   10  N2  UNL     1      23.030   4.101  51.488  1.00  0.00    -0.343 N 
HETATM   11  C9  UNL     1      22.557   3.481  50.281  1.00  0.00     0.116 A 
HETATM   12  C10 UNL     1      22.333   2.181  50.254  1.00  0.00     0.087 A 
HETATM   13 CL1  UNL     1      21.757   1.425  48.782  1.00  0.00    -0.080 Cl
HETATM   14  C11 UNL     1      22.552   1.343  51.417  1.00  0.00     0.139 A 
HETATM   15  F1  UNL     1      22.314   0.014  51.356  1.00  0.00    -0.204 F 
HETATM   16  C12 UNL     1      22.983   1.918  52.508  1.00  0.00     0.073 A 
HETATM   17  C13 UNL     1      23.280   3.349  52.708  1.00  0.00     0.346 A 
BRANCH  17  18
HETATM   18  N3  UNL     1      24.728   3.452  52.942  1.00  0.00     0.105 N 
HETATM   19  H10 UNL     1      25.182   2.514  52.977  1.00  0.00     0.315 HD
HETATM   20  H11 UNL     1      25.199   4.031  52.217  1.00  0.00     0.315 HD
ENDBRANCH  17  18
ENDBRANCH   7  10
BRANCH   1  21
HETATM   21  C1  UNL     1      27.548   5.560  48.806  1.00  0.00     0.228 C 
HETATM   22  N1  UNL     1      28.519   6.595  48.908  1.00  0.00    -0.268 NA
HETATM   23  H1  UNL     1      29.203   7.075  49.535  1.00  0.00     0.127 HD
HETATM   24  H2  UNL     1      29.182   7.019  49.607  1.00  0.00     0.127 HD
HETATM   25  O1  UNL     1      27.804   4.357  48.583  1.00  0.00    -0.274 OA
ENDBRANCH   1  21
TORSDOF 3
ENDMDL
