MODEL 1
REMARK VINA RESULT:      -8.4      0.000      0.000
REMARK  3 active torsions:
REMARK  status: ('A' for Active; 'I' for Inactive)
REMARK    1  A    between atoms: O1_2  and  C2_3 
REMARK    2  A    between atoms: C6_9  and  N3_10 
REMARK    3  A    between atoms: N3_10  and  C7_11 
ROOT
HETATM    1  C2  UNL     1      20.062  -0.128  52.697  1.00  0.00     0.089 A 
HETATM    2  C3  UNL     1      20.518  -0.700  53.860  1.00  0.00     0.070 A 
HETATM    3  C4  UNL     1      21.862  -0.737  54.089  1.00  0.00     0.075 A 
HETATM    4  N1  UNL     1      22.208  -1.317  55.250  1.00  0.00    -0.241 NA
HETATM    5  C5  UNL     1      23.487  -1.435  55.625  1.00  0.00     0.236 A 
HETATM    6  N2  UNL     1      24.391  -0.947  54.783  1.00  0.00    -0.224 NA
HETATM    7  C6  UNL     1      24.180  -0.355  53.615  1.00  0.00     0.142 A 
HETATM    8  C13 UNL     1      22.851  -0.253  53.266  1.00  0.00     0.040 A 
HETATM    9  C14 UNL     1      22.395   0.319  52.102  1.00  0.00     0.041 A 
HETATM   10  C15 UNL     1      21.040   0.360  51.864  1.00  0.00     0.059 A 
HETATM   11  S1  UNL     1      20.600   1.025  50.520  1.00  0.00     0.037 SA
HETATM   12  N4  UNL     1      20.228   1.568  49.439  1.00  0.00    -0.103 N 
ENDROOT
BRANCH   1  13
HETATM   13  O1  UNL     1      18.726  -0.027  52.345  1.00  0.00    -0.354 OA
HETATM   14  C1  UNL     1      17.766  -1.002  52.700  1.00  0.00     0.210 C 
ENDBRANCH   1  13
BRANCH   7  15
HETATM   15  N3  UNL     1      25.168   0.155  52.746  1.00  0.00    -0.340 N 
HETATM   16  H6  UNL     1      25.010   0.289  51.734  1.00  0.00     0.167 HD
BRANCH  15  17
HETATM   17  C7  UNL     1      26.486   0.554  53.079  1.00  0.00     0.035 A 
HETATM   18  C8  UNL     1      26.851   1.868  53.262  1.00  0.00     0.029 A 
HETATM   19  C9  UNL     1      28.125   2.290  53.573  1.00  0.00     0.004 A 
HETATM   20  C10 UNL     1      29.132   1.380  53.723  1.00  0.00     0.024 A 
HETATM   21  C11 UNL     1      28.825   0.052  53.552  1.00  0.00     0.036 A 
HETATM   22 CL1  UNL     1      30.064  -1.168  53.728  1.00  0.00    -0.084 Cl
HETATM   23  C12 UNL     1      27.542  -0.309  53.243  1.00  0.00     0.053 A 
ENDBRANCH  15  17
ENDBRANCH   7  15
TORSDOF 3
ENDMDL
MODEL 2
REMARK VINA RESULT:      -8.0      2.242      3.738
REMARK  3 active torsions:
REMARK  status: ('A' for Active; 'I' for Inactive)
REMARK    1  A    between atoms: O1_2  and  C2_3 
REMARK    2  A    between atoms: C6_9  and  N3_10 
REMARK    3  A    between atoms: N3_10  and  C7_11 
ROOT
HETATM    1  C2  UNL     1      21.564   0.743  51.410  1.00  0.00     0.089 A 
HETATM    2  C3  UNL     1      22.113   1.553  50.445  1.00  0.00     0.070 A 
HETATM    3  C4  UNL     1      23.350   2.085  50.662  1.00  0.00     0.075 A 
HETATM    4  N1  UNL     1      23.798   2.863  49.664  1.00  0.00    -0.241 NA
HETATM    5  C5  UNL     1      24.993   3.464  49.721  1.00  0.00     0.236 A 
HETATM    6  N2  UNL     1      25.707   3.245  50.820  1.00  0.00    -0.224 NA
HETATM    7  C6  UNL     1      25.378   2.502  51.869  1.00  0.00     0.142 A 
HETATM    8  C13 UNL     1      24.142   1.903  51.771  1.00  0.00     0.040 A 
HETATM    9  C14 UNL     1      23.592   1.092  52.737  1.00  0.00     0.041 A 
HETATM   10  C15 UNL     1      22.345   0.551  52.524  1.00  0.00     0.059 A 
HETATM   11  S1  UNL     1      21.788  -0.358  53.667  1.00  0.00     0.037 SA
HETATM   12  N4  UNL     1      21.328  -1.103  54.581  1.00  0.00    -0.103 N 
ENDROOT
BRANCH   1  13
HETATM   13  O1  UNL     1      20.321   0.141  51.312  1.00  0.00    -0.354 OA
HETATM   14  C1  UNL     1      19.125   0.878  51.146  1.00  0.00     0.210 C 
ENDBRANCH   1  13
BRANCH   7  15
HETATM   15  N3  UNL     1      26.165   2.290  53.021  1.00  0.00    -0.340 N 
HETATM   16  H6  UNL     1      26.060   2.852  53.883  1.00  0.00     0.167 HD
BRANCH  15  17
HETATM   17  C7  UNL     1      27.185   1.325  53.202  1.00  0.00     0.035 A 
HETATM   18  C8  UNL     1      28.446   1.638  53.657  1.00  0.00     0.029 A 
HETATM   19  C9  UNL     1      29.464   0.727  53.832  1.00  0.00     0.004 A 
HETATM   20  C10 UNL     1      29.260  -0.593  53.549  1.00  0.00     0.024 A 
HETATM   21  C11 UNL     1      28.018  -0.964  53.091  1.00  0.00     0.036 A 
HETATM   22 CL1  UNL     1      27.685  -2.637  52.708  1.00  0.00    -0.084 Cl
HETATM   23  C12 UNL     1      27.045  -0.015  52.936  1.00  0.00     0.053 A 
ENDBRANCH  15  17
ENDBRANCH   7  15
TORSDOF 3
ENDMDL
MODEL 3
REMARK VINA RESULT:      -7.9      4.276      5.472
REMARK  3 active torsions:
REMARK  status: ('A' for Active; 'I' for Inactive)
REMARK    1  A    between atoms: O1_2  and  C2_3 
REMARK    2  A    between atoms: C6_9  and  N3_10 
REMARK    3  A    between atoms: N3_10  and  C7_11 
ROOT
HETATM    1  C2  UNL     1      23.470  -0.102  53.355  1.00  0.00     0.089 A 
HETATM    2  C3  UNL     1      24.783   0.072  53.718  1.00  0.00     0.070 A 
HETATM    3  C4  UNL     1      25.561   0.918  52.983  1.00  0.00     0.075 A 
HETATM    4  N1  UNL     1      26.828   1.019  53.415  1.00  0.00    -0.241 NA
HETATM    5  C5  UNL     1      27.721   1.806  52.804  1.00  0.00     0.236 A 
HETATM    6  N2  UNL     1      27.280   2.480  51.747  1.00  0.00    -0.224 NA
HETATM    7  C6  UNL     1      26.061   2.468  51.225  1.00  0.00     0.142 A 
HETATM    8  C13 UNL     1      25.173   1.645  51.882  1.00  0.00     0.040 A 
HETATM    9  C14 UNL     1      23.858   1.472  51.519  1.00  0.00     0.041 A 
HETATM   10  C15 UNL     1      23.069   0.619  52.256  1.00  0.00     0.059 A 
HETATM   11  S1  UNL     1      21.587   0.474  51.780  1.00  0.00     0.037 SA
HETATM   12  N4  UNL     1      20.382   0.354  51.411  1.00  0.00    -0.103 N 
ENDROOT
BRANCH   1  13
HETATM   13  O1  UNL     1      22.577  -0.929  54.015  1.00  0.00    -0.354 OA
HETATM   14  C1  UNL     1      22.803  -1.405  55.327  1.00  0.00     0.210 C 
ENDBRANCH   1  13
BRANCH   7  15
HETATM   15  N3  UNL     1      25.627   3.201  50.099  1.00  0.00    -0.340 N 
HETATM   16  H6  UNL     1      24.894   2.859  49.456  1.00  0.00     0.167 HD
BRANCH  15  17
HETATM   17  C7  UNL     1      26.089   4.468  49.666  1.00  0.00     0.035 A 
HETATM   18  C8  UNL     1      27.180   4.631  48.843  1.00  0.00     0.029 A 
HETATM   19  C9  UNL     1      27.662   5.848  48.415  1.00  0.00     0.004 A 
HETATM   20  C10 UNL     1      27.049   7.005  48.804  1.00  0.00     0.024 A 
HETATM   21  C11 UNL     1      25.953   6.902  49.626  1.00  0.00     0.036 A 
HETATM   22 CL1  UNL     1      25.118   8.341  50.165  1.00  0.00    -0.084 Cl
HETATM   23  C12 UNL     1      25.519   5.666  50.021  1.00  0.00     0.053 A 
ENDBRANCH  15  17
ENDBRANCH   7  15
TORSDOF 3
ENDMDL
MODEL 4
REMARK VINA RESULT:      -7.8      1.998      2.099
REMARK  3 active torsions:
REMARK  status: ('A' for Active; 'I' for Inactive)
REMARK    1  A    between atoms: O1_2  and  C2_3 
REMARK    2  A    between atoms: C6_9  and  N3_10 
REMARK    3  A    between atoms: N3_10  and  C7_11 
ROOT
HETATM    1  C2  UNL     1      20.379   2.445  52.516  1.00  0.00     0.089 A 
HETATM    2  C3  UNL     1      20.521   1.266  53.206  1.00  0.00     0.070 A 
HETATM    3  C4  UNL     1      21.774   0.755  53.381  1.00  0.00     0.075 A 
HETATM    4  N1  UNL     1      21.809  -0.400  54.065  1.00  0.00    -0.241 NA
HETATM    5  C5  UNL     1      22.960  -1.033  54.321  1.00  0.00     0.236 A 
HETATM    6  N2  UNL     1      24.062  -0.453  53.860  1.00  0.00    -0.224 NA
HETATM    7  C6  UNL     1      24.161   0.680  53.176  1.00  0.00     0.142 A 
HETATM    8  C13 UNL     1      22.954   1.299  52.933  1.00  0.00     0.040 A 
HETATM    9  C14 UNL     1      22.812   2.480  52.242  1.00  0.00     0.041 A 
HETATM   10  C15 UNL     1      21.551   3.000  52.062  1.00  0.00     0.059 A 
HETATM   11  S1  UNL     1      21.471   4.343  51.266  1.00  0.00     0.037 SA
HETATM   12  N4  UNL     1      21.392   5.435  50.631  1.00  0.00    -0.103 N 
ENDROOT
BRANCH   1  13
HETATM   13  O1  UNL     1      19.166   3.068  52.271  1.00  0.00    -0.354 OA
HETATM   14  C1  UNL     1      18.141   2.470  51.503  1.00  0.00     0.210 C 
ENDBRANCH   1  13
BRANCH   7  15
HETATM   15  N3  UNL     1      25.352   1.268  52.702  1.00  0.00    -0.340 N 
HETATM   16  H6  UNL     1      25.362   2.033  52.006  1.00  0.00     0.167 HD
BRANCH  15  17
HETATM   17  C7  UNL     1      26.680   0.940  53.068  1.00  0.00     0.035 A 
HETATM   18  C8  UNL     1      27.579   1.864  53.552  1.00  0.00     0.029 A 
HETATM   19  C9  UNL     1      28.880   1.580  53.904  1.00  0.00     0.004 A 
HETATM   20  C10 UNL     1      29.361   0.307  53.786  1.00  0.00     0.024 A 
HETATM   21  C11 UNL     1      28.507  -0.658  53.308  1.00  0.00     0.036 A 
HETATM   22 CL1  UNL     1      29.056  -2.308  53.129  1.00  0.00    -0.084 Cl
HETATM   23  C12 UNL     1      27.225  -0.317  52.973  1.00  0.00     0.053 A 
ENDBRANCH  15  17
ENDBRANCH   7  15
TORSDOF 3
ENDMDL
MODEL 5
REMARK VINA RESULT:      -7.6      5.067      6.671
REMARK  3 active torsions:
REMARK  status: ('A' for Active; 'I' for Inactive)
REMARK    1  A    between atoms: O1_2  and  C2_3 
REMARK    2  A    between atoms: C6_9  and  N3_10 
REMARK    3  A    between atoms: N3_10  and  C7_11 
ROOT
HETATM    1  C2  UNL     1      25.629   0.074  53.686  1.00  0.00     0.089 A 
HETATM    2  C3  UNL     1      24.413   0.446  53.164  1.00  0.00     0.070 A 
HETATM    3  C4  UNL     1      24.391   1.287  52.091  1.00  0.00     0.075 A 
HETATM    4  N1  UNL     1      23.159   1.594  51.655  1.00  0.00    -0.241 NA
HETATM    5  C5  UNL     1      22.963   2.409  50.612  1.00  0.00     0.236 A 
HETATM    6  N2  UNL     1      24.056   2.895  50.035  1.00  0.00    -0.224 NA
HETATM    7  C6  UNL     1      25.320   2.670  50.367  1.00  0.00     0.142 A 
HETATM    8  C13 UNL     1      25.479   1.827  51.445  1.00  0.00     0.040 A 
HETATM    9  C14 UNL     1      26.695   1.454  51.968  1.00  0.00     0.041 A 
HETATM   10  C15 UNL     1      26.724   0.606  53.050  1.00  0.00     0.059 A 
HETATM   11  S1  UNL     1      28.143   0.229  53.588  1.00  0.00     0.037 SA
HETATM   12  N4  UNL     1      29.286  -0.091  54.028  1.00  0.00    -0.103 N 
ENDROOT
BRANCH   1  13
HETATM   13  O1  UNL     1      25.788  -0.773  54.770  1.00  0.00    -0.354 OA
HETATM   14  C1  UNL     1      24.713  -1.165  55.600  1.00  0.00     0.210 C 
ENDBRANCH   1  13
BRANCH   7  15
HETATM   15  N3  UNL     1      26.459   3.204  49.728  1.00  0.00    -0.340 N 
HETATM   16  H6  UNL     1      27.277   2.628  49.465  1.00  0.00     0.167 HD
BRANCH  15  17
HETATM   17  C7  UNL     1      26.684   4.550  49.351  1.00  0.00     0.035 A 
HETATM   18  C8  UNL     1      27.754   4.949  48.581  1.00  0.00     0.029 A 
HETATM   19  C9  UNL     1      28.008   6.250  48.208  1.00  0.00     0.004 A 
HETATM   20  C10 UNL     1      27.170   7.254  48.603  1.00  0.00     0.024 A 
HETATM   21  C11 UNL     1      26.084   6.914  49.373  1.00  0.00     0.036 A 
HETATM   22 CL1  UNL     1      24.970   8.147  49.916  1.00  0.00    -0.084 Cl
HETATM   23  C12 UNL     1      25.882   5.604  49.714  1.00  0.00     0.053 A 
ENDBRANCH  15  17
ENDBRANCH   7  15
TORSDOF 3
ENDMDL
MODEL 6
REMARK VINA RESULT:      -7.5      3.817      7.064
REMARK  3 active torsions:
REMARK  status: ('A' for Active; 'I' for Inactive)
REMARK    1  A    between atoms: O1_2  and  C2_3 
REMARK    2  A    between atoms: C6_9  and  N3_10 
REMARK    3  A    between atoms: N3_10  and  C7_11 
ROOT
HETATM    1  C2  UNL     1      26.740   0.521  53.205  1.00  0.00     0.089 A 
HETATM    2  C3  UNL     1      26.281  -0.357  54.157  1.00  0.00     0.070 A 
HETATM    3  C4  UNL     1      24.935  -0.472  54.348  1.00  0.00     0.075 A 
HETATM    4  N1  UNL     1      24.587  -1.352  55.300  1.00  0.00    -0.241 NA
HETATM    5  C5  UNL     1      23.306  -1.582  55.613  1.00  0.00     0.236 A 
HETATM    6  N2  UNL     1      22.403  -0.890  54.928  1.00  0.00    -0.224 NA
HETATM    7  C6  UNL     1      22.616   0.002  53.969  1.00  0.00     0.142 A 
HETATM    8  C13 UNL     1      23.947   0.210  53.679  1.00  0.00     0.040 A 
HETATM    9  C14 UNL     1      24.406   1.089  52.725  1.00  0.00     0.041 A 
HETATM   10  C15 UNL     1      25.762   1.210  52.527  1.00  0.00     0.059 A 
HETATM   11  S1  UNL     1      26.206   2.229  51.429  1.00  0.00     0.037 SA
HETATM   12  N4  UNL     1      26.579   3.045  50.535  1.00  0.00    -0.103 N 
ENDROOT
BRANCH   1  13
HETATM   13  O1  UNL     1      28.077   0.731  52.913  1.00  0.00    -0.354 OA
HETATM   14  C1  UNL     1      29.100   0.606  53.881  1.00  0.00     0.210 C 
ENDBRANCH   1  13
BRANCH   7  15
HETATM   15  N3  UNL     1      21.629   0.719  53.260  1.00  0.00    -0.340 N 
HETATM   16  H6  UNL     1      21.747   1.706  52.978  1.00  0.00     0.167 HD
BRANCH  15  17
HETATM   17  C7  UNL     1      20.366   0.247  52.828  1.00  0.00     0.035 A 
HETATM   18  C8  UNL     1      19.664   0.815  51.789  1.00  0.00     0.029 A 
HETATM   19  C9  UNL     1      18.429   0.389  51.353  1.00  0.00     0.004 A 
HETATM   20  C10 UNL     1      17.814  -0.668  51.960  1.00  0.00     0.024 A 
HETATM   21  C11 UNL     1      18.469  -1.275  53.004  1.00  0.00     0.036 A 
HETATM   22 CL1  UNL     1      17.741  -2.634  53.829  1.00  0.00    -0.084 Cl
HETATM   23  C12 UNL     1      19.695  -0.809  53.395  1.00  0.00     0.053 A 
ENDBRANCH  15  17
ENDBRANCH   7  15
TORSDOF 3
ENDMDL
MODEL 7
REMARK VINA RESULT:      -7.4      4.596      6.530
REMARK  3 active torsions:
REMARK  status: ('A' for Active; 'I' for Inactive)
REMARK    1  A    between atoms: O1_2  and  C2_3 
REMARK    2  A    between atoms: C6_9  and  N3_10 
REMARK    3  A    between atoms: N3_10  and  C7_11 
ROOT
HETATM    1  C2  UNL     1      26.657  -0.140  53.894  1.00  0.00     0.089 A 
HETATM    2  C3  UNL     1      25.468  -0.827  53.858  1.00  0.00     0.070 A 
HETATM    3  C4  UNL     1      24.339  -0.164  53.475  1.00  0.00     0.075 A 
HETATM    4  N1  UNL     1      23.229  -0.919  53.474  1.00  0.00    -0.241 NA
HETATM    5  C5  UNL     1      22.037  -0.419  53.126  1.00  0.00     0.236 A 
HETATM    6  N2  UNL     1      22.018   0.864  52.783  1.00  0.00    -0.224 NA
HETATM    7  C6  UNL     1      23.037   1.711  52.743  1.00  0.00     0.142 A 
HETATM    8  C13 UNL     1      24.245   1.158  53.109  1.00  0.00     0.040 A 
HETATM    9  C14 UNL     1      25.436   1.846  53.145  1.00  0.00     0.041 A 
HETATM   10  C15 UNL     1      26.578   1.183  53.530  1.00  0.00     0.059 A 
HETATM   11  S1  UNL     1      27.891   2.031  53.547  1.00  0.00     0.037 SA
HETATM   12  N4  UNL     1      28.963   2.704  53.557  1.00  0.00    -0.103 N 
ENDROOT
BRANCH   1  13
HETATM   13  O1  UNL     1      27.871  -0.695  54.263  1.00  0.00    -0.354 OA
HETATM   14  C1  UNL     1      28.690  -1.413  53.360  1.00  0.00     0.210 C 
ENDBRANCH   1  13
BRANCH   7  15
HETATM   15  N3  UNL     1      22.980   3.071  52.370  1.00  0.00    -0.340 N 
HETATM   16  H6  UNL     1      22.841   3.834  53.054  1.00  0.00     0.167 HD
BRANCH  15  17
HETATM   17  C7  UNL     1      23.093   3.613  51.067  1.00  0.00     0.035 A 
HETATM   18  C8  UNL     1      23.527   4.895  50.819  1.00  0.00     0.029 A 
HETATM   19  C9  UNL     1      23.636   5.456  49.565  1.00  0.00     0.004 A 
HETATM   20  C10 UNL     1      23.303   4.731  48.458  1.00  0.00     0.024 A 
HETATM   21  C11 UNL     1      22.863   3.443  48.645  1.00  0.00     0.036 A 
HETATM   22 CL1  UNL     1      22.418   2.456  47.272  1.00  0.00    -0.084 Cl
HETATM   23  C12 UNL     1      22.774   2.938  49.914  1.00  0.00     0.053 A 
ENDBRANCH  15  17
ENDBRANCH   7  15
TORSDOF 3
ENDMDL
MODEL 8
REMARK VINA RESULT:      -7.3      4.790      6.600
REMARK  3 active torsions:
REMARK  status: ('A' for Active; 'I' for Inactive)
REMARK    1  A    between atoms: O1_2  and  C2_3 
REMARK    2  A    between atoms: C6_9  and  N3_10 
REMARK    3  A    between atoms: N3_10  and  C7_11 
ROOT
HETATM    1  C2  UNL     1      26.514  -0.136  53.711  1.00  0.00     0.089 A 
HETATM    2  C3  UNL     1      25.299  -0.768  53.593  1.00  0.00     0.070 A 
HETATM    3  C4  UNL     1      24.204  -0.024  53.262  1.00  0.00     0.075 A 
HETATM    4  N1  UNL     1      23.065  -0.729  53.173  1.00  0.00    -0.241 NA
HETATM    5  C5  UNL     1      21.900  -0.150  52.859  1.00  0.00     0.236 A 
HETATM    6  N2  UNL     1      21.937   1.159  52.641  1.00  0.00    -0.224 NA
HETATM    7  C6  UNL     1      22.991   1.964  52.696  1.00  0.00     0.142 A 
HETATM    8  C13 UNL     1      24.169   1.329  53.022  1.00  0.00     0.040 A 
HETATM    9  C14 UNL     1      25.386   1.961  53.140  1.00  0.00     0.041 A 
HETATM   10  C15 UNL     1      26.494   1.217  53.474  1.00  0.00     0.059 A 
HETATM   11  S1  UNL     1      27.838   2.005  53.590  1.00  0.00     0.037 SA
HETATM   12  N4  UNL     1      28.936   2.629  53.679  1.00  0.00    -0.103 N 
ENDROOT
BRANCH   1  13
HETATM   13  O1  UNL     1      27.698  -0.774  54.040  1.00  0.00    -0.354 OA
HETATM   14  C1  UNL     1      28.427  -1.560  53.118  1.00  0.00     0.210 C 
ENDBRANCH   1  13
BRANCH   7  15
HETATM   15  N3  UNL     1      22.994   3.354  52.455  1.00  0.00    -0.340 N 
HETATM   16  H6  UNL     1      22.794   4.052  53.191  1.00  0.00     0.167 HD
BRANCH  15  17
HETATM   17  C7  UNL     1      23.253   4.016  51.230  1.00  0.00     0.035 A 
HETATM   18  C8  UNL     1      23.345   3.360  50.024  1.00  0.00     0.029 A 
HETATM   19  C9  UNL     1      23.608   3.971  48.817  1.00  0.00     0.004 A 
HETATM   20  C10 UNL     1      23.799   5.322  48.760  1.00  0.00     0.024 A 
HETATM   21  C11 UNL     1      23.718   6.030  49.935  1.00  0.00     0.036 A 
HETATM   22 CL1  UNL     1      23.952   7.763  49.937  1.00  0.00    -0.084 Cl
HETATM   23  C12 UNL     1      23.454   5.369  51.104  1.00  0.00     0.053 A 
ENDBRANCH  15  17
ENDBRANCH   7  15
TORSDOF 3
ENDMDL
MODEL 9
REMARK VINA RESULT:      -7.2      4.433      6.985
REMARK  3 active torsions:
REMARK  status: ('A' for Active; 'I' for Inactive)
REMARK    1  A    between atoms: O1_2  and  C2_3 
REMARK    2  A    between atoms: C6_9  and  N3_10 
REMARK    3  A    between atoms: N3_10  and  C7_11 
ROOT
HETATM    1  C2  UNL     1      25.858   4.259  49.815  1.00  0.00     0.089 A 
HETATM    2  C3  UNL     1      26.584   3.167  50.224  1.00  0.00     0.070 A 
HETATM    3  C4  UNL     1      26.019   2.300  51.113  1.00  0.00     0.075 A 
HETATM    4  N1  UNL     1      26.807   1.267  51.454  1.00  0.00    -0.241 NA
HETATM    5  C5  UNL     1      26.403   0.328  52.317  1.00  0.00     0.236 A 
HETATM    6  N2  UNL     1      25.181   0.477  52.816  1.00  0.00    -0.224 NA
HETATM    7  C6  UNL     1      24.311   1.445  52.561  1.00  0.00     0.142 A 
HETATM    8  C13 UNL     1      24.765   2.391  51.669  1.00  0.00     0.040 A 
HETATM    9  C14 UNL     1      24.038   3.485  51.258  1.00  0.00     0.041 A 
HETATM   10  C15 UNL     1      24.602   4.363  50.362  1.00  0.00     0.059 A 
HETATM   11  S1  UNL     1      23.715   5.580  49.944  1.00  0.00     0.037 SA
HETATM   12  N4  UNL     1      23.004   6.566  49.591  1.00  0.00    -0.103 N 
ENDROOT
BRANCH   1  13
HETATM   13  O1  UNL     1      26.314   5.211  48.919  1.00  0.00    -0.354 OA
HETATM   14  C1  UNL     1      27.674   5.323  48.548  1.00  0.00     0.210 C 
ENDBRANCH   1  13
BRANCH   7  15
HETATM   15  N3  UNL     1      23.016   1.570  53.109  1.00  0.00    -0.340 N 
HETATM   16  H6  UNL     1      22.593   2.483  53.344  1.00  0.00     0.167 HD
BRANCH  15  17
HETATM   17  C7  UNL     1      22.109   0.529  53.422  1.00  0.00     0.035 A 
HETATM   18  C8  UNL     1      22.433  -0.534  54.234  1.00  0.00     0.029 A 
HETATM   19  C9  UNL     1      21.579  -1.568  54.548  1.00  0.00     0.004 A 
HETATM   20  C10 UNL     1      20.310  -1.587  54.045  1.00  0.00     0.024 A 
HETATM   21  C11 UNL     1      19.931  -0.550  53.227  1.00  0.00     0.036 A 
HETATM   22 CL1  UNL     1      18.321  -0.509  52.546  1.00  0.00    -0.084 Cl
HETATM   23  C12 UNL     1      20.822   0.451  52.949  1.00  0.00     0.053 A 
ENDBRANCH  15  17
ENDBRANCH   7  15
TORSDOF 3
ENDMDL
