MODEL 1
REMARK VINA RESULT:      -9.0      0.000      0.000
REMARK  5 active torsions:
REMARK  status: ('A' for Active; 'I' for Inactive)
REMARK    1  A    between atoms: C4_4  and  C5_5 
REMARK    2  A    between atoms: C5_5  and  C6_6 
REMARK    3  A    between atoms: C9_9  and  N1_10 
REMARK    4  A    between atoms: N1_10  and  C10_11 
REMARK    5  A    between atoms: C10_11  and  C12_13 
ROOT
HETATM    1  C6  UNL     1      24.104   0.084  53.597  1.00  0.00     0.006 C 
HETATM    2  C7  UNL     1      23.998   1.302  53.129  1.00  0.00     0.006 C 
HETATM    3  C8  UNL     1      23.970   2.643  52.540  1.00  0.00     0.107 C 
HETATM    4  C9  UNL     1      22.624   2.798  51.814  1.00  0.00     0.105 C 
HETATM    5  N2  UNL     1      21.422   2.228  51.765  1.00  0.00    -0.229 NA
HETATM    6  C18 UNL     1      21.289   1.103  52.664  1.00  0.00     0.230 C 
HETATM    7  N3  UNL     1      22.145   0.209  52.657  1.00  0.00    -0.263 NA
HETATM    8  C19 UNL     1      22.389  -0.991  53.338  1.00  0.00     0.271 C 
HETATM    9  N4  UNL     1      23.328  -0.771  54.475  1.00  0.00    -0.375 N 
HETATM   10  H24 UNL     1      23.890  -0.712  55.352  1.00  0.00     0.161 HD
ENDROOT
BRANCH   4  11
HETATM   11  N1  UNL     1      22.599   3.926  50.917  1.00  0.00    -0.370 N 
HETATM   12  H11 UNL     1      22.228   4.843  51.320  1.00  0.00     0.161 HD
BRANCH  11  13
HETATM   13  C10 UNL     1      23.035   3.891  49.535  1.00  0.00     0.112 C 
HETATM   14  C11 UNL     1      22.720   2.522  48.978  1.00  0.00     0.037 C 
BRANCH  13  15
HETATM   15  C12 UNL     1      24.427   4.314  49.335  1.00  0.00    -0.036 A 
HETATM   16  C13 UNL     1      24.692   5.620  48.958  1.00  0.00     0.009 A 
HETATM   17  C14 UNL     1      26.002   6.027  48.768  1.00  0.00     0.001 A 
HETATM   18  C15 UNL     1      27.026   5.118  48.957  1.00  0.00     0.000 A 
HETATM   19  C16 UNL     1      26.792   3.811  49.332  1.00  0.00     0.001 A 
HETATM   20  C17 UNL     1      25.463   3.422  49.519  1.00  0.00     0.009 A 
ENDBRANCH  13  15
ENDBRANCH  11  13
ENDBRANCH   4  11
BRANCH   1  21
HETATM   21  C5  UNL     1      25.224  -0.668  53.037  1.00  0.00     0.090 C 
BRANCH  21  22
HETATM   22  C4  UNL     1      26.551  -0.032  53.404  1.00  0.00    -0.074 C 
HETATM   23  C3  UNL     1      27.220  -0.142  54.547  1.00  0.00     0.007 C 
HETATM   24  C2  UNL     1      28.510   0.617  54.594  1.00  0.00     0.140 C 
HETATM   25  C1  UNL     1      29.618  -0.052  53.833  1.00  0.00     0.044 C 
HETATM   26  O1  UNL     1      28.278   1.924  54.187  1.00  0.00    -0.382 OA
HETATM   27  C21 UNL     1      27.835   2.035  52.898  1.00  0.00     0.172 C 
HETATM   28  C20 UNL     1      27.161   0.818  52.339  1.00  0.00     0.060 C 
ENDBRANCH  21  22
ENDBRANCH   1  21
TORSDOF 5
ENDMDL
MODEL 2
REMARK VINA RESULT:      -8.6      1.143      1.730
REMARK  5 active torsions:
REMARK  status: ('A' for Active; 'I' for Inactive)
REMARK    1  A    between atoms: C4_4  and  C5_5 
REMARK    2  A    between atoms: C5_5  and  C6_6 
REMARK    3  A    between atoms: C9_9  and  N1_10 
REMARK    4  A    between atoms: N1_10  and  C10_11 
REMARK    5  A    between atoms: C10_11  and  C12_13 
ROOT
HETATM    1  C6  UNL     1      23.718   0.366  53.433  1.00  0.00     0.006 C 
HETATM    2  C7  UNL     1      23.872   1.588  52.987  1.00  0.00     0.006 C 
HETATM    3  C8  UNL     1      24.143   2.920  52.442  1.00  0.00     0.107 C 
HETATM    4  C9  UNL     1      22.987   3.270  51.489  1.00  0.00     0.105 C 
HETATM    5  N2  UNL     1      21.747   2.879  51.208  1.00  0.00    -0.229 NA
HETATM    6  C18 UNL     1      21.293   1.784  52.036  1.00  0.00     0.230 C 
HETATM    7  N3  UNL     1      22.001   0.775  52.158  1.00  0.00    -0.263 NA
HETATM    8  C19 UNL     1      21.944  -0.449  52.838  1.00  0.00     0.271 C 
HETATM    9  N4  UNL     1      22.682  -0.369  54.131  1.00  0.00    -0.375 N 
HETATM   10  H24 UNL     1      23.076  -0.394  55.097  1.00  0.00     0.161 HD
ENDROOT
BRANCH   4  11
HETATM   11  N1  UNL     1      23.287   4.391  50.635  1.00  0.00    -0.370 N 
HETATM   12  H11 UNL     1      22.743   4.446  49.717  1.00  0.00     0.161 HD
BRANCH  11  13
HETATM   13  C10 UNL     1      24.258   5.423  50.939  1.00  0.00     0.112 C 
HETATM   14  C11 UNL     1      23.538   6.751  50.970  1.00  0.00     0.037 C 
BRANCH  13  15
HETATM   15  C12 UNL     1      25.444   5.405  50.073  1.00  0.00    -0.036 A 
HETATM   16  C13 UNL     1      25.894   6.589  49.514  1.00  0.00     0.009 A 
HETATM   17  C14 UNL     1      27.012   6.581  48.696  1.00  0.00     0.001 A 
HETATM   18  C15 UNL     1      27.661   5.384  48.452  1.00  0.00     0.000 A 
HETATM   19  C16 UNL     1      27.235   4.190  48.995  1.00  0.00     0.001 A 
HETATM   20  C17 UNL     1      26.105   4.222  49.817  1.00  0.00     0.009 A 
ENDBRANCH  13  15
ENDBRANCH  11  13
ENDBRANCH   4  11
BRANCH   1  21
HETATM   21  C5  UNL     1      24.803  -0.538  53.062  1.00  0.00     0.090 C 
BRANCH  21  22
HETATM   22  C4  UNL     1      26.157   0.091  53.329  1.00  0.00    -0.074 C 
HETATM   23  C3  UNL     1      27.083   0.441  52.441  1.00  0.00     0.007 C 
HETATM   24  C2  UNL     1      28.321   1.043  53.031  1.00  0.00     0.140 C 
HETATM   25  C1  UNL     1      28.137   2.469  53.463  1.00  0.00     0.044 C 
HETATM   26  O1  UNL     1      28.781   0.218  54.049  1.00  0.00    -0.382 OA
HETATM   27  C21 UNL     1      27.908   0.082  55.093  1.00  0.00     0.172 C 
HETATM   28  C20 UNL     1      26.467   0.339  54.767  1.00  0.00     0.060 C 
ENDBRANCH  21  22
ENDBRANCH   1  21
TORSDOF 5
ENDMDL
MODEL 3
REMARK VINA RESULT:      -8.1      1.833      2.326
REMARK  5 active torsions:
REMARK  status: ('A' for Active; 'I' for Inactive)
REMARK    1  A    between atoms: C4_4  and  C5_5 
REMARK    2  A    between atoms: C5_5  and  C6_6 
REMARK    3  A    between atoms: C9_9  and  N1_10 
REMARK    4  A    between atoms: N1_10  and  C10_11 
REMARK    5  A    between atoms: C10_11  and  C12_13 
ROOT
HETATM    1  C6  UNL     1      23.837  -0.068  53.644  1.00  0.00     0.006 C 
HETATM    2  C7  UNL     1      23.593   1.109  53.125  1.00  0.00     0.006 C 
HETATM    3  C8  UNL     1      23.407   2.408  52.476  1.00  0.00     0.107 C 
HETATM    4  C9  UNL     1      22.007   2.409  51.840  1.00  0.00     0.105 C 
HETATM    5  N2  UNL     1      20.860   1.737  51.906  1.00  0.00    -0.229 NA
HETATM    6  C18 UNL     1      20.887   0.656  52.866  1.00  0.00     0.230 C 
HETATM    7  N3  UNL     1      21.816  -0.162  52.841  1.00  0.00    -0.263 NA
HETATM    8  C19 UNL     1      22.210  -1.297  53.561  1.00  0.00     0.271 C 
HETATM    9  N4  UNL     1      23.201  -0.936  54.615  1.00  0.00    -0.375 N 
HETATM   10  H24 UNL     1      23.812  -0.782  55.446  1.00  0.00     0.161 HD
ENDROOT
BRANCH   4  11
HETATM   11  N1  UNL     1      21.822   3.480  50.894  1.00  0.00    -0.370 N 
HETATM   12  H11 UNL     1      22.142   3.288  49.893  1.00  0.00     0.161 HD
BRANCH  11  13
HETATM   13  C10 UNL     1      21.243   4.771  51.211  1.00  0.00     0.112 C 
HETATM   14  C11 UNL     1      19.913   4.875  50.503  1.00  0.00     0.037 C 
BRANCH  13  15
HETATM   15  C12 UNL     1      22.142   5.906  50.971  1.00  0.00    -0.036 A 
HETATM   16  C13 UNL     1      23.459   5.830  51.391  1.00  0.00     0.009 A 
HETATM   17  C14 UNL     1      24.314   6.897  51.167  1.00  0.00     0.001 A 
HETATM   18  C15 UNL     1      23.834   8.024  50.526  1.00  0.00     0.000 A 
HETATM   19  C16 UNL     1      22.527   8.128  50.097  1.00  0.00     0.001 A 
HETATM   20  C17 UNL     1      21.682   7.039  50.333  1.00  0.00     0.009 A 
ENDBRANCH  13  15
ENDBRANCH  11  13
ENDBRANCH   4  11
BRANCH   1  21
HETATM   21  C5  UNL     1      24.980  -0.752  53.042  1.00  0.00     0.090 C 
BRANCH  21  22
HETATM   22  C4  UNL     1      26.280  -0.052  53.384  1.00  0.00    -0.074 C 
HETATM   23  C3  UNL     1      26.910  -0.025  54.554  1.00  0.00     0.007 C 
HETATM   24  C2  UNL     1      28.184   0.762  54.563  1.00  0.00     0.140 C 
HETATM   25  C1  UNL     1      29.330   0.040  53.917  1.00  0.00     0.044 C 
HETATM   26  O1  UNL     1      27.944   2.013  54.010  1.00  0.00    -0.382 OA
HETATM   27  C21 UNL     1      27.546   1.976  52.702  1.00  0.00     0.172 C 
HETATM   28  C20 UNL     1      26.913   0.692  52.255  1.00  0.00     0.060 C 
ENDBRANCH  21  22
ENDBRANCH   1  21
TORSDOF 5
ENDMDL
MODEL 4
REMARK VINA RESULT:      -8.0      4.645      8.021
REMARK  5 active torsions:
REMARK  status: ('A' for Active; 'I' for Inactive)
REMARK    1  A    between atoms: C4_4  and  C5_5 
REMARK    2  A    between atoms: C5_5  and  C6_6 
REMARK    3  A    between atoms: C9_9  and  N1_10 
REMARK    4  A    between atoms: N1_10  and  C10_11 
REMARK    5  A    between atoms: C10_11  and  C12_13 
ROOT
HETATM    1  C6  UNL     1      29.772   6.296  48.002  1.00  0.00     0.006 C 
HETATM    2  C7  UNL     1      28.686   5.612  48.261  1.00  0.00     0.006 C 
HETATM    3  C8  UNL     1      27.533   4.786  48.624  1.00  0.00     0.107 C 
HETATM    4  C9  UNL     1      26.460   5.724  49.204  1.00  0.00     0.105 C 
HETATM    5  N2  UNL     1      26.155   7.019  49.243  1.00  0.00    -0.229 NA
HETATM    6  C18 UNL     1      27.097   7.848  48.526  1.00  0.00     0.230 C 
HETATM    7  N3  UNL     1      28.310   7.727  48.746  1.00  0.00    -0.263 NA
HETATM    8  C19 UNL     1      29.504   8.299  48.287  1.00  0.00     0.271 C 
HETATM    9  N4  UNL     1      30.109   7.463  47.211  1.00  0.00    -0.375 N 
HETATM   10  H24 UNL     1      30.562   7.015  46.384  1.00  0.00     0.161 HD
ENDROOT
BRANCH   4  11
HETATM   11  N1  UNL     1      25.418   5.016  49.905  1.00  0.00    -0.370 N 
HETATM   12  H11 UNL     1      24.775   5.608  50.520  1.00  0.00     0.161 HD
BRANCH  11  13
HETATM   13  C10 UNL     1      25.197   3.586  49.828  1.00  0.00     0.112 C 
HETATM   14  C11 UNL     1      23.804   3.355  49.288  1.00  0.00     0.037 C 
BRANCH  13  15
HETATM   15  C12 UNL     1      25.483   2.867  51.075  1.00  0.00    -0.036 A 
HETATM   16  C13 UNL     1      26.636   2.107  51.172  1.00  0.00     0.009 A 
HETATM   17  C14 UNL     1      26.915   1.426  52.345  1.00  0.00     0.001 A 
HETATM   18  C15 UNL     1      26.030   1.517  53.404  1.00  0.00     0.000 A 
HETATM   19  C16 UNL     1      24.874   2.266  53.337  1.00  0.00     0.001 A 
HETATM   20  C17 UNL     1      24.614   2.945  52.143  1.00  0.00     0.009 A 
ENDBRANCH  13  15
ENDBRANCH  11  13
ENDBRANCH   4  11
BRANCH   1  21
HETATM   21  C5  UNL     1      30.939   5.861  48.765  1.00  0.00     0.090 C 
BRANCH  21  22
HETATM   22  C4  UNL     1      31.925   5.119  47.884  1.00  0.00    -0.074 C 
HETATM   23  C3  UNL     1      31.708   4.031  47.152  1.00  0.00     0.007 C 
HETATM   24  C2  UNL     1      32.898   3.540  46.388  1.00  0.00     0.140 C 
HETATM   25  C1  UNL     1      33.192   4.356  45.163  1.00  0.00     0.044 C 
HETATM   26  O1  UNL     1      33.980   3.444  47.254  1.00  0.00    -0.382 OA
HETATM   27  C21 UNL     1      34.363   4.639  47.800  1.00  0.00     0.172 C 
HETATM   28  C20 UNL     1      33.301   5.697  47.849  1.00  0.00     0.060 C 
ENDBRANCH  21  22
ENDBRANCH   1  21
TORSDOF 5
ENDMDL
MODEL 5
REMARK VINA RESULT:      -7.8      2.574      6.602
REMARK  5 active torsions:
REMARK  status: ('A' for Active; 'I' for Inactive)
REMARK    1  A    between atoms: C4_4  and  C5_5 
REMARK    2  A    between atoms: C5_5  and  C6_6 
REMARK    3  A    between atoms: C9_9  and  N1_10 
REMARK    4  A    between atoms: N1_10  and  C10_11 
REMARK    5  A    between atoms: C10_11  and  C12_13 
ROOT
HETATM    1  C6  UNL     1      22.966   4.467  50.863  1.00  0.00     0.006 C 
HETATM    2  C7  UNL     1      23.559   3.931  51.901  1.00  0.00     0.006 C 
HETATM    3  C8  UNL     1      24.123   3.279  53.085  1.00  0.00     0.107 C 
HETATM    4  C9  UNL     1      25.282   2.387  52.610  1.00  0.00     0.105 C 
HETATM    5  N2  UNL     1      26.069   2.220  51.550  1.00  0.00    -0.229 NA
HETATM    6  C18 UNL     1      25.787   3.150  50.479  1.00  0.00     0.230 C 
HETATM    7  N3  UNL     1      24.622   3.290  50.081  1.00  0.00    -0.263 NA
HETATM    8  C19 UNL     1      23.945   4.053  49.121  1.00  0.00     0.271 C 
HETATM    9  N4  UNL     1      23.369   5.284  49.735  1.00  0.00    -0.375 N 
HETATM   10  H24 UNL     1      23.018   6.219  50.035  1.00  0.00     0.161 HD
ENDROOT
BRANCH   4  11
HETATM   11  N1  UNL     1      25.706   1.440  53.611  1.00  0.00    -0.370 N 
HETATM   12  H11 UNL     1      25.858   1.828  54.594  1.00  0.00     0.161 HD
BRANCH  11  13
HETATM   13  C10 UNL     1      25.932   0.029  53.368  1.00  0.00     0.112 C 
HETATM   14  C11 UNL     1      25.051  -0.757  54.311  1.00  0.00     0.037 C 
BRANCH  13  15
HETATM   15  C12 UNL     1      27.346  -0.366  53.400  1.00  0.00    -0.036 A 
HETATM   16  C13 UNL     1      27.697  -1.662  53.061  1.00  0.00     0.009 A 
HETATM   17  C14 UNL     1      29.028  -2.043  53.087  1.00  0.00     0.001 A 
HETATM   18  C15 UNL     1      29.987  -1.117  53.454  1.00  0.00     0.000 A 
HETATM   19  C16 UNL     1      29.668   0.181  53.797  1.00  0.00     0.001 A 
HETATM   20  C17 UNL     1      28.318   0.542  53.763  1.00  0.00     0.009 A 
ENDBRANCH  13  15
ENDBRANCH  11  13
ENDBRANCH   4  11
BRANCH   1  21
HETATM   21  C5  UNL     1      21.564   4.084  50.722  1.00  0.00     0.090 C 
BRANCH  21  22
HETATM   22  C4  UNL     1      21.343   2.645  51.144  1.00  0.00    -0.074 C 
HETATM   23  C3  UNL     1      21.794   1.542  50.554  1.00  0.00     0.007 C 
HETATM   24  C2  UNL     1      21.397   0.264  51.225  1.00  0.00     0.140 C 
HETATM   25  C1  UNL     1      22.192  -0.025  52.465  1.00  0.00     0.044 C 
HETATM   26  O1  UNL     1      20.025   0.279  51.446  1.00  0.00    -0.382 OA
HETATM   27  C21 UNL     1      19.607   1.277  52.283  1.00  0.00     0.172 C 
HETATM   28  C20 UNL     1      20.515   2.467  52.374  1.00  0.00     0.060 C 
ENDBRANCH  21  22
ENDBRANCH   1  21
TORSDOF 5
ENDMDL
MODEL 6
REMARK VINA RESULT:      -7.7      1.724      2.764
REMARK  5 active torsions:
REMARK  status: ('A' for Active; 'I' for Inactive)
REMARK    1  A    between atoms: C4_4  and  C5_5 
REMARK    2  A    between atoms: C5_5  and  C6_6 
REMARK    3  A    between atoms: C9_9  and  N1_10 
REMARK    4  A    between atoms: N1_10  and  C10_11 
REMARK    5  A    between atoms: C10_11  and  C12_13 
ROOT
HETATM    1  C6  UNL     1      25.183   1.781  52.148  1.00  0.00     0.006 C 
HETATM    2  C7  UNL     1      25.250   2.849  51.394  1.00  0.00     0.006 C 
HETATM    3  C8  UNL     1      25.406   3.990  50.489  1.00  0.00     0.107 C 
HETATM    4  C9  UNL     1      24.049   4.220  49.802  1.00  0.00     0.105 C 
HETATM    5  N2  UNL     1      22.767   3.895  49.947  1.00  0.00    -0.229 NA
HETATM    6  C18 UNL     1      22.518   3.064  51.104  1.00  0.00     0.230 C 
HETATM    7  N3  UNL     1      23.201   2.048  51.287  1.00  0.00    -0.263 NA
HETATM    8  C19 UNL     1      23.290   1.022  52.237  1.00  0.00     0.271 C 
HETATM    9  N4  UNL     1      24.348   1.325  53.243  1.00  0.00    -0.375 N 
HETATM   10  H24 UNL     1      24.985   1.484  54.054  1.00  0.00     0.161 HD
ENDROOT
BRANCH   4  11
HETATM   11  N1  UNL     1      24.144   5.085  48.652  1.00  0.00    -0.370 N 
HETATM   12  H11 UNL     1      24.276   4.604  47.708  1.00  0.00     0.161 HD
BRANCH  11  13
HETATM   13  C10 UNL     1      24.074   6.532  48.701  1.00  0.00     0.112 C 
HETATM   14  C11 UNL     1      23.339   7.008  47.470  1.00  0.00     0.037 C 
BRANCH  13  15
HETATM   15  C12 UNL     1      25.370   7.188  48.917  1.00  0.00    -0.036 A 
HETATM   16  C13 UNL     1      26.471   6.771  48.188  1.00  0.00     0.009 A 
HETATM   17  C14 UNL     1      27.697   7.384  48.384  1.00  0.00     0.001 A 
HETATM   18  C15 UNL     1      27.800   8.407  49.309  1.00  0.00     0.000 A 
HETATM   19  C16 UNL     1      26.721   8.843  50.049  1.00  0.00     0.001 A 
HETATM   20  C17 UNL     1      25.493   8.210  49.834  1.00  0.00     0.009 A 
ENDBRANCH  13  15
ENDBRANCH  11  13
ENDBRANCH   4  11
BRANCH   1  21
HETATM   21  C5  UNL     1      26.102   0.718  51.749  1.00  0.00     0.090 C 
BRANCH  21  22
HETATM   22  C4  UNL     1      27.257   0.597  52.724  1.00  0.00    -0.074 C 
HETATM   23  C3  UNL     1      27.539  -0.419  53.534  1.00  0.00     0.007 C 
HETATM   24  C2  UNL     1      28.760  -0.227  54.379  1.00  0.00     0.140 C 
HETATM   25  C1  UNL     1      30.041  -0.423  53.621  1.00  0.00     0.044 C 
HETATM   26  O1  UNL     1      28.681   1.008  55.010  1.00  0.00    -0.382 OA
HETATM   27  C21 UNL     1      28.661   2.072  54.150  1.00  0.00     0.172 C 
HETATM   28  C20 UNL     1      28.177   1.772  52.763  1.00  0.00     0.060 C 
ENDBRANCH  21  22
ENDBRANCH   1  21
TORSDOF 5
ENDMDL
MODEL 7
REMARK VINA RESULT:      -7.6      1.910      2.819
REMARK  5 active torsions:
REMARK  status: ('A' for Active; 'I' for Inactive)
REMARK    1  A    between atoms: C4_4  and  C5_5 
REMARK    2  A    between atoms: C5_5  and  C6_6 
REMARK    3  A    between atoms: C9_9  and  N1_10 
REMARK    4  A    between atoms: N1_10  and  C10_11 
REMARK    5  A    between atoms: C10_11  and  C12_13 
ROOT
HETATM    1  C6  UNL     1      24.005  -0.061  53.338  1.00  0.00     0.006 C 
HETATM    2  C7  UNL     1      23.935   0.882  52.432  1.00  0.00     0.006 C 
HETATM    3  C8  UNL     1      23.954   1.895  51.375  1.00  0.00     0.107 C 
HETATM    4  C9  UNL     1      22.681   1.705  50.533  1.00  0.00     0.105 C 
HETATM    5  N2  UNL     1      21.494   1.109  50.606  1.00  0.00    -0.229 NA
HETATM    6  C18 UNL     1      21.284   0.407  51.852  1.00  0.00     0.230 C 
HETATM    7  N3  UNL     1      22.143  -0.386  52.260  1.00  0.00    -0.263 NA
HETATM    8  C19 UNL     1      22.329  -1.225  53.366  1.00  0.00     0.271 C 
HETATM    9  N4  UNL     1      23.156  -0.549  54.407  1.00  0.00    -0.375 N 
HETATM   10  H24 UNL     1      23.632  -0.137  55.239  1.00  0.00     0.161 HD
ENDROOT
BRANCH   4  11
HETATM   11  N1  UNL     1      22.733   2.405  49.274  1.00  0.00    -0.370 N 
HETATM   12  H11 UNL     1      22.875   1.803  48.404  1.00  0.00     0.161 HD
BRANCH  11  13
HETATM   13  C10 UNL     1      22.609   3.842  49.124  1.00  0.00     0.112 C 
HETATM   14  C11 UNL     1      21.567   4.328  50.104  1.00  0.00     0.037 C 
BRANCH  13  15
HETATM   15  C12 UNL     1      22.384   4.283  47.742  1.00  0.00    -0.036 A 
HETATM   16  C13 UNL     1      21.974   3.360  46.793  1.00  0.00     0.009 A 
HETATM   17  C14 UNL     1      21.758   3.767  45.487  1.00  0.00     0.001 A 
HETATM   18  C15 UNL     1      21.957   5.094  45.152  1.00  0.00     0.000 A 
HETATM   19  C16 UNL     1      22.365   6.034  46.075  1.00  0.00     0.001 A 
HETATM   20  C17 UNL     1      22.577   5.601  47.387  1.00  0.00     0.009 A 
ENDBRANCH  13  15
ENDBRANCH  11  13
ENDBRANCH   4  11
BRANCH   1  21
HETATM   21  C5  UNL     1      25.178  -0.921  53.205  1.00  0.00     0.090 C 
BRANCH  21  22
HETATM   22  C4  UNL     1      26.459  -0.139  53.421  1.00  0.00    -0.074 C 
HETATM   23  C3  UNL     1      27.320   0.288  52.501  1.00  0.00     0.007 C 
HETATM   24  C2  UNL     1      28.497   1.037  53.044  1.00  0.00     0.140 C 
HETATM   25  C1  UNL     1      28.166   2.445  53.448  1.00  0.00     0.044 C 
HETATM   26  O1  UNL     1      29.070   0.295  54.068  1.00  0.00    -0.382 OA
HETATM   27  C21 UNL     1      28.242   0.090  55.138  1.00  0.00     0.172 C 
HETATM   28  C20 UNL     1      26.774   0.179  54.845  1.00  0.00     0.060 C 
ENDBRANCH  21  22
ENDBRANCH   1  21
TORSDOF 5
ENDMDL
MODEL 8
REMARK VINA RESULT:      -7.6      3.310      6.573
REMARK  5 active torsions:
REMARK  status: ('A' for Active; 'I' for Inactive)
REMARK    1  A    between atoms: C4_4  and  C5_5 
REMARK    2  A    between atoms: C5_5  and  C6_6 
REMARK    3  A    between atoms: C9_9  and  N1_10 
REMARK    4  A    between atoms: N1_10  and  C10_11 
REMARK    5  A    between atoms: C10_11  and  C12_13 
ROOT
HETATM    1  C6  UNL     1      21.962  -0.500  53.687  1.00  0.00     0.006 C 
HETATM    2  C7  UNL     1      23.065   0.146  53.401  1.00  0.00     0.006 C 
HETATM    3  C8  UNL     1      24.238   0.965  53.089  1.00  0.00     0.107 C 
HETATM    4  C9  UNL     1      25.290   0.694  54.178  1.00  0.00     0.105 C 
HETATM    5  N2  UNL     1      25.565  -0.198  55.127  1.00  0.00    -0.229 NA
HETATM    6  C18 UNL     1      24.602  -1.274  55.194  1.00  0.00     0.230 C 
HETATM    7  N3  UNL     1      23.393  -1.010  55.247  1.00  0.00    -0.263 NA
HETATM    8  C19 UNL     1      22.185  -1.717  55.310  1.00  0.00     0.271 C 
HETATM    9  N4  UNL     1      21.596  -1.878  53.950  1.00  0.00    -0.375 N 
HETATM   10  H24 UNL     1      21.151  -2.139  53.043  1.00  0.00     0.161 HD
ENDROOT
BRANCH   4  11
HETATM   11  N1  UNL     1      26.350   1.670  54.187  1.00  0.00    -0.370 N 
HETATM   12  H11 UNL     1      26.242   2.480  54.875  1.00  0.00     0.161 HD
BRANCH  11  13
HETATM   13  C10 UNL     1      27.525   1.620  53.338  1.00  0.00     0.112 C 
HETATM   14  C11 UNL     1      27.144   2.157  51.978  1.00  0.00     0.037 C 
BRANCH  13  15
HETATM   15  C12 UNL     1      28.183   0.308  53.302  1.00  0.00    -0.036 A 
HETATM   16  C13 UNL     1      29.449   0.169  53.846  1.00  0.00     0.009 A 
HETATM   17  C14 UNL     1      30.077  -1.065  53.817  1.00  0.00     0.001 A 
HETATM   18  C15 UNL     1      29.425  -2.141  53.242  1.00  0.00     0.000 A 
HETATM   19  C16 UNL     1      28.164  -2.032  52.693  1.00  0.00     0.001 A 
HETATM   20  C17 UNL     1      27.550  -0.777  52.734  1.00  0.00     0.009 A 
ENDBRANCH  13  15
ENDBRANCH  11  13
ENDBRANCH   4  11
BRANCH   1  21
HETATM   21  C5  UNL     1      20.808   0.369  53.901  1.00  0.00     0.090 C 
BRANCH  21  22
HETATM   22  C4  UNL     1      20.323   0.969  52.596  1.00  0.00    -0.074 C 
HETATM   23  C3  UNL     1      19.861   0.330  51.525  1.00  0.00     0.007 C 
HETATM   24  C2  UNL     1      19.461   1.218  50.389  1.00  0.00     0.140 C 
HETATM   25  C1  UNL     1      18.139   1.896  50.605  1.00  0.00     0.044 C 
HETATM   26  O1  UNL     1      20.495   2.107  50.126  1.00  0.00    -0.382 OA
HETATM   27  C21 UNL     1      20.782   2.949  51.165  1.00  0.00     0.172 C 
HETATM   28  C20 UNL     1      20.381   2.459  52.524  1.00  0.00     0.060 C 
ENDBRANCH  21  22
ENDBRANCH   1  21
TORSDOF 5
ENDMDL
MODEL 9
REMARK VINA RESULT:      -7.5      2.833      7.312
REMARK  5 active torsions:
REMARK  status: ('A' for Active; 'I' for Inactive)
REMARK    1  A    between atoms: C4_4  and  C5_5 
REMARK    2  A    between atoms: C5_5  and  C6_6 
REMARK    3  A    between atoms: C9_9  and  N1_10 
REMARK    4  A    between atoms: N1_10  and  C10_11 
REMARK    5  A    between atoms: C10_11  and  C12_13 
ROOT
HETATM    1  C6  UNL     1      24.594   5.213  50.500  1.00  0.00     0.006 C 
HETATM    2  C7  UNL     1      24.368   4.184  51.278  1.00  0.00     0.006 C 
HETATM    3  C8  UNL     1      24.012   3.025  52.100  1.00  0.00     0.107 C 
HETATM    4  C9  UNL     1      25.016   1.906  51.777  1.00  0.00     0.105 C 
HETATM    5  N2  UNL     1      26.207   1.743  51.206  1.00  0.00    -0.229 NA
HETATM    6  C18 UNL     1      26.783   2.978  50.723  1.00  0.00     0.230 C 
HETATM    7  N3  UNL     1      26.108   3.729  50.006  1.00  0.00    -0.263 NA
HETATM    8  C19 UNL     1      26.271   4.963  49.364  1.00  0.00     0.271 C 
HETATM    9  N4  UNL     1      25.725   6.070  50.201  1.00  0.00    -0.375 N 
HETATM   10  H24 UNL     1      25.473   6.924  50.744  1.00  0.00     0.161 HD
ENDROOT
BRANCH   4  11
HETATM   11  N1  UNL     1      24.589   0.616  52.256  1.00  0.00    -0.370 N 
HETATM   12  H11 UNL     1      24.620  -0.185  51.549  1.00  0.00     0.161 HD
BRANCH  11  13
HETATM   13  C10 UNL     1      24.132   0.347  53.605  1.00  0.00     0.112 C 
HETATM   14  C11 UNL     1      25.152  -0.542  54.278  1.00  0.00     0.037 C 
BRANCH  13  15
HETATM   15  C12 UNL     1      22.755  -0.155  53.682  1.00  0.00    -0.036 A 
HETATM   16  C13 UNL     1      22.471  -1.235  54.502  1.00  0.00     0.009 A 
HETATM   17  C14 UNL     1      21.175  -1.715  54.581  1.00  0.00     0.001 A 
HETATM   18  C15 UNL     1      20.182  -1.105  53.836  1.00  0.00     0.000 A 
HETATM   19  C16 UNL     1      20.435  -0.029  53.011  1.00  0.00     0.001 A 
HETATM   20  C17 UNL     1      21.751   0.439  52.947  1.00  0.00     0.009 A 
ENDBRANCH  13  15
ENDBRANCH  11  13
ENDBRANCH   4  11
BRANCH   1  21
HETATM   21  C5  UNL     1      23.473   5.548  49.624  1.00  0.00     0.090 C 
BRANCH  21  22
HETATM   22  C4  UNL     1      22.713   4.305  49.207  1.00  0.00    -0.074 C 
HETATM   23  C3  UNL     1      23.161   3.273  48.498  1.00  0.00     0.007 C 
HETATM   24  C2  UNL     1      22.152   2.195  48.252  1.00  0.00     0.140 C 
HETATM   25  C1  UNL     1      21.916   1.321  49.451  1.00  0.00     0.044 C 
HETATM   26  O1  UNL     1      20.989   2.771  47.758  1.00  0.00    -0.382 OA
HETATM   27  C21 UNL     1      20.389   3.643  48.623  1.00  0.00     0.172 C 
HETATM   28  C20 UNL     1      21.290   4.253  49.655  1.00  0.00     0.060 C 
ENDBRANCH  21  22
ENDBRANCH   1  21
TORSDOF 5
ENDMDL
