MODEL 1
REMARK VINA RESULT:      -7.7      0.000      0.000
REMARK  3 active torsions:
REMARK  status: ('A' for Active; 'I' for Inactive)
REMARK    1  A    between atoms: N1_1  and  C1_2 
REMARK    2  A    between atoms: C3_5  and  C4_6 
REMARK    3  A    between atoms: C7_11  and  O1_12 
ROOT
HETATM    1  C4  UNL     1      24.477   1.729  51.988  1.00  0.00     0.019 A 
HETATM    2  C5  UNL     1      23.160   1.939  52.063  1.00  0.00     0.126 A 
HETATM    3  N3  UNL     1      22.886   2.845  51.145  1.00  0.00    -0.279 N 
HETATM    4  N4  UNL     1      23.986   3.102  50.610  1.00  0.00    -0.174 NA
HETATM    5  C6  UNL     1      25.021   2.493  51.036  1.00  0.00     0.096 A 
HETATM    6  C7  UNL     1      26.241   2.890  50.363  1.00  0.00     0.176 C 
HETATM    7  C8  UNL     1      25.922   4.085  49.479  1.00  0.00     0.069 C 
HETATM    8  P1  UNL     1      24.595   5.090  50.295  1.00  0.00    -0.125 P 
HETATM    9  C9  UNL     1      22.883   4.814  49.642  1.00  0.00     0.053 C 
HETATM   10  C10 UNL     1      22.094   3.737  50.398  1.00  0.00     0.154 C 
HETATM   11  H8  UNL     1      24.947   6.498  50.351  1.00  0.00     0.057 HD
ENDROOT
BRANCH   1  12
HETATM   12  C3  UNL     1      25.335   0.900  52.656  1.00  0.00    -0.012 A 
HETATM   13  C2  UNL     1      25.874   0.869  53.847  1.00  0.00     0.136 A 
HETATM   14  N2  UNL     1      26.801   1.188  54.923  1.00  0.00    -0.255 NA
HETATM   15  C13 UNL     1      25.503  -0.500  54.525  1.00  0.00     0.229 A 
HETATM   16  C12 UNL     1      26.793  -0.368  53.640  1.00  0.00     0.106 A 
HETATM   17  C1  UNL     1      27.834   0.111  54.559  1.00  0.00     0.112 C 
HETATM   18  F1  UNL     1      25.731  -0.527  55.817  1.00  0.00    -0.245 F 
HETATM   19  C11 UNL     1      26.296  -0.438  52.356  1.00  0.00     0.008 A 
BRANCH  17  20
HETATM   20  N1  UNL     1      29.047  -0.695  54.480  1.00  0.00    -0.387 N 
HETATM   21  H1  UNL     1      29.787  -0.196  53.992  1.00  0.00     0.157 HD
HETATM   22  H2  UNL     1      29.038  -1.619  54.905  1.00  0.00     0.157 HD
ENDBRANCH  17  20
ENDBRANCH   1  12
BRANCH   6  23
HETATM   23  O1  UNL     1      27.246   3.357  51.218  1.00  0.00    -0.389 OA
HETATM   24  H5  UNL     1      27.076   3.011  52.109  1.00  0.00     0.210 HD
ENDBRANCH   6  23
TORSDOF 3
ENDMDL
MODEL 2
REMARK VINA RESULT:      -7.7      1.898      2.662
REMARK  3 active torsions:
REMARK  status: ('A' for Active; 'I' for Inactive)
REMARK    1  A    between atoms: N1_1  and  C1_2 
REMARK    2  A    between atoms: C3_5  and  C4_6 
REMARK    3  A    between atoms: C7_11  and  O1_12 
ROOT
HETATM    1  C4  UNL     1      26.182   1.938  51.684  1.00  0.00     0.019 A 
HETATM    2  C5  UNL     1      26.712   2.774  50.788  1.00  0.00     0.126 A 
HETATM    3  N3  UNL     1      25.779   3.670  50.535  1.00  0.00    -0.279 N 
HETATM    4  N4  UNL     1      24.810   3.336  51.252  1.00  0.00    -0.174 NA
HETATM    5  C6  UNL     1      24.934   2.303  51.988  1.00  0.00     0.096 A 
HETATM    6  C7  UNL     1      23.742   1.996  52.753  1.00  0.00     0.176 C 
HETATM    7  C8  UNL     1      22.625   2.907  52.268  1.00  0.00     0.069 C 
HETATM    8  P1  UNL     1      22.866   3.231  50.458  1.00  0.00    -0.125 P 
HETATM    9  C9  UNL     1      23.658   4.854  50.047  1.00  0.00     0.053 C 
HETATM   10  C10 UNL     1      25.185   4.786  49.917  1.00  0.00     0.154 C 
HETATM   11  H8  UNL     1      21.644   3.003  49.707  1.00  0.00     0.057 HD
ENDROOT
BRANCH   1  12
HETATM   12  C3  UNL     1      26.662   0.837  52.340  1.00  0.00    -0.012 A 
HETATM   13  C2  UNL     1      27.722   0.555  53.050  1.00  0.00     0.136 A 
HETATM   14  N2  UNL     1      29.102   0.191  53.338  1.00  0.00    -0.255 NA
HETATM   15  C13 UNL     1      27.255   0.038  54.459  1.00  0.00     0.229 A 
HETATM   16  C12 UNL     1      27.449  -0.960  53.263  1.00  0.00     0.106 A 
HETATM   17  C1  UNL     1      28.870  -1.326  53.303  1.00  0.00     0.112 C 
HETATM   18  F1  UNL     1      28.215   0.007  55.354  1.00  0.00    -0.245 F 
HETATM   19  C11 UNL     1      26.297  -0.787  52.525  1.00  0.00     0.008 A 
BRANCH  17  20
HETATM   20  N1  UNL     1      29.065  -2.771  53.263  1.00  0.00    -0.387 N 
HETATM   21  H1  UNL     1      28.180  -3.262  53.361  1.00  0.00     0.157 HD
HETATM   22  H2  UNL     1      30.009  -3.126  53.139  1.00  0.00     0.157 HD
ENDBRANCH  17  20
ENDBRANCH   1  12
BRANCH   6  23
HETATM   23  O1  UNL     1      23.242   0.704  52.547  1.00  0.00    -0.389 OA
HETATM   24  H5  UNL     1      22.629   0.494  53.270  1.00  0.00     0.210 HD
ENDBRANCH   6  23
TORSDOF 3
ENDMDL
MODEL 3
REMARK VINA RESULT:      -7.6      2.964      3.954
REMARK  3 active torsions:
REMARK  status: ('A' for Active; 'I' for Inactive)
REMARK    1  A    between atoms: N1_1  and  C1_2 
REMARK    2  A    between atoms: C3_5  and  C4_6 
REMARK    3  A    between atoms: C7_11  and  O1_12 
ROOT
HETATM    1  C4  UNL     1      24.256  -0.134  53.728  1.00  0.00     0.019 A 
HETATM    2  C5  UNL     1      23.644  -0.950  54.590  1.00  0.00     0.126 A 
HETATM    3  N3  UNL     1      22.384  -1.002  54.205  1.00  0.00    -0.279 N 
HETATM    4  N4  UNL     1      22.325  -0.262  53.199  1.00  0.00    -0.174 NA
HETATM    5  C6  UNL     1      23.392   0.320  52.815  1.00  0.00     0.096 A 
HETATM    6  C7  UNL     1      23.199   1.171  51.659  1.00  0.00     0.176 C 
HETATM    7  C8  UNL     1      21.706   1.262  51.386  1.00  0.00     0.069 C 
HETATM    8  P1  UNL     1      20.800   1.173  53.002  1.00  0.00    -0.125 P 
HETATM    9  C9  UNL     1      20.092  -0.488  53.418  1.00  0.00     0.053 C 
HETATM   10  C10 UNL     1      21.027  -1.373  54.252  1.00  0.00     0.154 C 
HETATM   11  H8  UNL     1      19.824   2.240  53.128  1.00  0.00     0.057 HD
ENDROOT
BRANCH   1  12
HETATM   12  C3  UNL     1      25.550   0.290  53.592  1.00  0.00    -0.012 A 
HETATM   13  C2  UNL     1      26.722  -0.133  53.986  1.00  0.00     0.136 A 
HETATM   14  N2  UNL     1      27.854  -0.354  54.873  1.00  0.00    -0.255 NA
HETATM   15  C13 UNL     1      27.633  -0.324  52.719  1.00  0.00     0.229 A 
HETATM   16  C12 UNL     1      27.573   1.057  53.462  1.00  0.00     0.106 A 
HETATM   17  C1  UNL     1      28.576   0.957  54.529  1.00  0.00     0.112 C 
HETATM   18  F1  UNL     1      28.721  -1.020  52.953  1.00  0.00    -0.245 F 
HETATM   19  C11 UNL     1      26.396   1.607  52.998  1.00  0.00     0.008 A 
BRANCH  17  20
HETATM   20  N1  UNL     1      29.484   2.098  54.536  1.00  0.00    -0.387 N 
HETATM   21  H1  UNL     1      30.376   1.859  54.108  1.00  0.00     0.157 HD
HETATM   22  H2  UNL     1      29.154   2.973  54.935  1.00  0.00     0.157 HD
ENDBRANCH  17  20
ENDBRANCH   1  12
BRANCH   6  23
HETATM   23  O1  UNL     1      23.593   2.501  51.850  1.00  0.00    -0.389 OA
HETATM   24  H5  UNL     1      24.549   2.517  52.015  1.00  0.00     0.210 HD
ENDBRANCH   6  23
TORSDOF 3
ENDMDL
MODEL 4
REMARK VINA RESULT:      -7.4      1.768      2.185
REMARK  3 active torsions:
REMARK  status: ('A' for Active; 'I' for Inactive)
REMARK    1  A    between atoms: N1_1  and  C1_2 
REMARK    2  A    between atoms: C3_5  and  C4_6 
REMARK    3  A    between atoms: C7_11  and  O1_12 
ROOT
HETATM    1  C4  UNL     1      23.970   1.092  52.567  1.00  0.00     0.019 A 
HETATM    2  C5  UNL     1      22.848   0.692  53.172  1.00  0.00     0.126 A 
HETATM    3  N3  UNL     1      21.900   1.502  52.745  1.00  0.00    -0.279 N 
HETATM    4  N4  UNL     1      22.476   2.284  51.958  1.00  0.00    -0.174 NA
HETATM    5  C6  UNL     1      23.728   2.137  51.771  1.00  0.00     0.096 A 
HETATM    6  C7  UNL     1      24.293   3.115  50.863  1.00  0.00     0.176 C 
HETATM    7  C8  UNL     1      23.226   4.158  50.572  1.00  0.00     0.069 C 
HETATM    8  P1  UNL     1      22.166   4.361  52.081  1.00  0.00    -0.125 P 
HETATM    9  C9  UNL     1      20.550   3.455  52.037  1.00  0.00     0.053 C 
HETATM   10  C10 UNL     1      20.607   2.050  52.650  1.00  0.00     0.154 C 
HETATM   11  H8  UNL     1      22.009   5.758  52.441  1.00  0.00     0.057 HD
ENDROOT
BRANCH   1  12
HETATM   12  C3  UNL     1      25.261   0.639  52.587  1.00  0.00    -0.012 A 
HETATM   13  C2  UNL     1      25.953  -0.189  53.324  1.00  0.00     0.136 A 
HETATM   14  N2  UNL     1      26.736  -0.667  54.454  1.00  0.00    -0.255 NA
HETATM   15  C13 UNL     1      26.564  -1.295  52.388  1.00  0.00     0.229 A 
HETATM   16  C12 UNL     1      27.343   0.040  52.666  1.00  0.00     0.106 A 
HETATM   17  C1  UNL     1      28.095  -0.212  53.901  1.00  0.00     0.112 C 
HETATM   18  F1  UNL     1      27.026  -2.338  53.036  1.00  0.00    -0.245 F 
HETATM   19  C11 UNL     1      26.721   0.941  51.827  1.00  0.00     0.008 A 
BRANCH  17  20
HETATM   20  N1  UNL     1      29.504   0.139  53.766  1.00  0.00    -0.387 N 
HETATM   21  H1  UNL     1      29.628   1.148  53.724  1.00  0.00     0.157 HD
HETATM   22  H2  UNL     1      30.186  -0.614  53.738  1.00  0.00     0.157 HD
ENDBRANCH  17  20
ENDBRANCH   1  12
BRANCH   6  23
HETATM   23  O1  UNL     1      25.355   3.854  51.400  1.00  0.00    -0.389 OA
HETATM   24  H5  UNL     1      25.526   3.536  52.300  1.00  0.00     0.210 HD
ENDBRANCH   6  23
TORSDOF 3
ENDMDL
MODEL 5
REMARK VINA RESULT:      -7.2      3.106      4.075
REMARK  3 active torsions:
REMARK  status: ('A' for Active; 'I' for Inactive)
REMARK    1  A    between atoms: N1_1  and  C1_2 
REMARK    2  A    between atoms: C3_5  and  C4_6 
REMARK    3  A    between atoms: C7_11  and  O1_12 
ROOT
HETATM    1  C4  UNL     1      23.050   2.033  52.588  1.00  0.00     0.019 A 
HETATM    2  C5  UNL     1      22.550   3.094  51.949  1.00  0.00     0.126 A 
HETATM    3  N3  UNL     1      21.240   2.954  51.988  1.00  0.00    -0.279 N 
HETATM    4  N4  UNL     1      21.049   1.887  52.611  1.00  0.00    -0.174 NA
HETATM    5  C6  UNL     1      22.066   1.239  53.022  1.00  0.00     0.096 A 
HETATM    6  C7  UNL     1      21.727   0.007  53.705  1.00  0.00     0.176 C 
HETATM    7  C8  UNL     1      20.235  -0.230  53.533  1.00  0.00     0.069 C 
HETATM    8  P1  UNL     1      19.715   0.435  51.881  1.00  0.00    -0.125 P 
HETATM    9  C9  UNL     1      18.914   2.105  51.920  1.00  0.00     0.053 C 
HETATM   10  C10 UNL     1      19.893   3.270  51.729  1.00  0.00     0.154 C 
HETATM   11  H8  UNL     1      18.937  -0.537  51.134  1.00  0.00     0.057 HD
ENDROOT
BRANCH   1  12
HETATM   12  C3  UNL     1      24.323   1.632  52.891  1.00  0.00    -0.012 A 
HETATM   13  C2  UNL     1      25.013   0.529  52.769  1.00  0.00     0.136 A 
HETATM   14  N2  UNL     1      25.500  -0.806  53.083  1.00  0.00    -0.255 NA
HETATM   15  C13 UNL     1      26.308   0.844  51.935  1.00  0.00     0.229 A 
HETATM   16  C12 UNL     1      26.304   0.995  53.497  1.00  0.00     0.106 A 
HETATM   17  C1  UNL     1      26.634  -0.341  54.008  1.00  0.00     0.112 C 
HETATM   18  F1  UNL     1      26.925  -0.228  51.495  1.00  0.00    -0.245 F 
HETATM   19  C11 UNL     1      25.677   2.209  53.689  1.00  0.00     0.008 A 
BRANCH  17  20
HETATM   20  N1  UNL     1      27.717  -0.302  54.985  1.00  0.00    -0.387 N 
HETATM   21  H1  UNL     1      28.439   0.356  54.704  1.00  0.00     0.157 HD
HETATM   22  H2  UNL     1      27.643  -0.894  55.807  1.00  0.00     0.157 HD
ENDBRANCH  17  20
ENDBRANCH   1  12
BRANCH   6  23
HETATM   23  O1  UNL     1      22.319  -1.138  53.159  1.00  0.00    -0.389 OA
HETATM   24  H5  UNL     1      23.174  -0.887  52.774  1.00  0.00     0.210 HD
ENDBRANCH   6  23
TORSDOF 3
ENDMDL
MODEL 6
REMARK VINA RESULT:      -6.9      3.112      3.894
REMARK  3 active torsions:
REMARK  status: ('A' for Active; 'I' for Inactive)
REMARK    1  A    between atoms: N1_1  and  C1_2 
REMARK    2  A    between atoms: C3_5  and  C4_6 
REMARK    3  A    between atoms: C7_11  and  O1_12 
ROOT
HETATM    1  C4  UNL     1      22.354   0.583  52.663  1.00  0.00     0.019 A 
HETATM    2  C5  UNL     1      21.379   0.112  53.444  1.00  0.00     0.126 A 
HETATM    3  N3  UNL     1      20.307   0.042  52.680  1.00  0.00    -0.279 N 
HETATM    4  N4  UNL     1      20.684   0.448  51.560  1.00  0.00    -0.174 NA
HETATM    5  C6  UNL     1      21.899   0.806  51.427  1.00  0.00     0.096 A 
HETATM    6  C7  UNL     1      22.216   1.283  50.096  1.00  0.00     0.176 C 
HETATM    7  C8  UNL     1      20.916   1.400  49.316  1.00  0.00     0.069 C 
HETATM    8  P1  UNL     1      19.560   1.868  50.491  1.00  0.00    -0.125 P 
HETATM    9  C9  UNL     1      18.486   0.467  51.054  1.00  0.00     0.053 C 
HETATM   10  C10 UNL     1      18.958  -0.194  52.356  1.00  0.00     0.154 C 
HETATM   11  H8  UNL     1      18.789   2.994  49.996  1.00  0.00     0.057 HD
ENDROOT
BRANCH   1  12
HETATM   12  C3  UNL     1      23.680   0.849  52.872  1.00  0.00    -0.012 A 
HETATM   13  C2  UNL     1      24.783   0.149  52.903  1.00  0.00     0.136 A 
HETATM   14  N2  UNL     1      25.818  -0.726  53.435  1.00  0.00    -0.255 NA
HETATM   15  C13 UNL     1      25.785   0.753  51.854  1.00  0.00     0.229 A 
HETATM   16  C12 UNL     1      25.753   1.286  53.330  1.00  0.00     0.106 A 
HETATM   17  C1  UNL     1      26.652   0.394  54.073  1.00  0.00     0.112 C 
HETATM   18  F1  UNL     1      26.801  -0.032  51.581  1.00  0.00    -0.245 F 
HETATM   19  C11 UNL     1      24.659   2.126  53.333  1.00  0.00     0.008 A 
BRANCH  17  20
HETATM   20  N1  UNL     1      27.630   1.135  54.862  1.00  0.00    -0.387 N 
HETATM   21  H1  UNL     1      28.534   0.668  54.856  1.00  0.00     0.157 HD
HETATM   22  H2  UNL     1      27.334   2.000  55.306  1.00  0.00     0.157 HD
ENDBRANCH  17  20
ENDBRANCH   1  12
BRANCH   6  23
HETATM   23  O1  UNL     1      22.754   2.576  50.059  1.00  0.00    -0.389 OA
HETATM   24  H5  UNL     1      23.305   2.701  50.847  1.00  0.00     0.210 HD
ENDBRANCH   6  23
TORSDOF 3
ENDMDL
MODEL 7
REMARK VINA RESULT:      -6.8      1.957      2.508
REMARK  3 active torsions:
REMARK  status: ('A' for Active; 'I' for Inactive)
REMARK    1  A    between atoms: N1_1  and  C1_2 
REMARK    2  A    between atoms: C3_5  and  C4_6 
REMARK    3  A    between atoms: C7_11  and  O1_12 
ROOT
HETATM    1  C4  UNL     1      23.085   2.377  52.280  1.00  0.00     0.019 A 
HETATM    2  C5  UNL     1      21.819   2.113  52.614  1.00  0.00     0.126 A 
HETATM    3  N3  UNL     1      21.076   2.897  51.860  1.00  0.00    -0.279 N 
HETATM    4  N4  UNL     1      21.891   3.539  51.163  1.00  0.00    -0.174 NA
HETATM    5  C6  UNL     1      23.134   3.314  51.329  1.00  0.00     0.096 A 
HETATM    6  C7  UNL     1      23.984   4.133  50.489  1.00  0.00     0.176 C 
HETATM    7  C8  UNL     1      23.110   5.172  49.806  1.00  0.00     0.069 C 
HETATM    8  P1  UNL     1      21.721   5.624  50.949  1.00  0.00    -0.125 P 
HETATM    9  C9  UNL     1      20.104   4.792  50.594  1.00  0.00     0.053 C 
HETATM   10  C10 UNL     1      19.895   3.483  51.365  1.00  0.00     0.154 C 
HETATM   11  H8  UNL     1      21.587   7.064  51.085  1.00  0.00     0.057 HD
ENDROOT
BRANCH   1  12
HETATM   12  C3  UNL     1      24.290   1.875  52.691  1.00  0.00    -0.012 A 
HETATM   13  C2  UNL     1      24.886   0.713  52.649  1.00  0.00     0.136 A 
HETATM   14  N2  UNL     1      25.227  -0.649  53.032  1.00  0.00    -0.255 NA
HETATM   15  C13 UNL     1      26.264   0.888  51.913  1.00  0.00     0.229 A 
HETATM   16  C12 UNL     1      26.154   1.087  53.466  1.00  0.00     0.106 A 
HETATM   17  C1  UNL     1      26.323  -0.257  54.032  1.00  0.00     0.112 C 
HETATM   18  F1  UNL     1      26.814  -0.246  51.548  1.00  0.00    -0.245 F 
HETATM   19  C11 UNL     1      25.625   2.356  53.579  1.00  0.00     0.008 A 
BRANCH  17  20
HETATM   20  N1  UNL     1      27.328  -0.283  55.090  1.00  0.00    -0.387 N 
HETATM   21  H1  UNL     1      28.260  -0.417  54.706  1.00  0.00     0.157 HD
HETATM   22  H2  UNL     1      27.018  -0.162  56.050  1.00  0.00     0.157 HD
ENDBRANCH  17  20
ENDBRANCH   1  12
BRANCH   6  23
HETATM   23  O1  UNL     1      24.930   4.891  51.191  1.00  0.00    -0.389 OA
HETATM   24  H5  UNL     1      25.703   4.332  51.365  1.00  0.00     0.210 HD
ENDBRANCH   6  23
TORSDOF 3
ENDMDL
MODEL 8
REMARK VINA RESULT:      -6.6      3.301      5.832
REMARK  3 active torsions:
REMARK  status: ('A' for Active; 'I' for Inactive)
REMARK    1  A    between atoms: N1_1  and  C1_2 
REMARK    2  A    between atoms: C3_5  and  C4_6 
REMARK    3  A    between atoms: C7_11  and  O1_12 
ROOT
HETATM    1  C4  UNL     1      24.167   2.622  52.241  1.00  0.00     0.019 A 
HETATM    2  C5  UNL     1      23.271   1.667  52.506  1.00  0.00     0.126 A 
HETATM    3  N3  UNL     1      23.950   0.676  53.048  1.00  0.00    -0.279 N 
HETATM    4  N4  UNL     1      25.134   1.074  53.075  1.00  0.00    -0.174 NA
HETATM    5  C6  UNL     1      25.390   2.234  52.612  1.00  0.00     0.096 A 
HETATM    6  C7  UNL     1      26.797   2.578  52.669  1.00  0.00     0.176 C 
HETATM    7  C8  UNL     1      27.569   1.336  53.085  1.00  0.00     0.069 C 
HETATM    8  P1  UNL     1      26.703  -0.156  52.406  1.00  0.00    -0.125 P 
HETATM    9  C9  UNL     1      25.625  -1.060  53.613  1.00  0.00     0.053 C 
HETATM   10  C10 UNL     1      24.162  -0.598  53.608  1.00  0.00     0.154 C 
HETATM   11  H8  UNL     1      27.624  -1.040  51.714  1.00  0.00     0.057 HD
ENDROOT
BRANCH   1  12
HETATM   12  C3  UNL     1      24.072   3.877  51.706  1.00  0.00    -0.012 A 
HETATM   13  C2  UNL     1      24.623   4.516  50.707  1.00  0.00     0.136 A 
HETATM   14  N2  UNL     1      25.624   5.274  49.972  1.00  0.00    -0.255 NA
HETATM   15  C13 UNL     1      23.482   5.036  49.759  1.00  0.00     0.229 A 
HETATM   16  C12 UNL     1      23.987   5.911  50.961  1.00  0.00     0.106 A 
HETATM   17  C1  UNL     1      25.136   6.656  50.430  1.00  0.00     0.112 C 
HETATM   18  F1  UNL     1      23.912   5.429  48.583  1.00  0.00    -0.245 F 
HETATM   19  C11 UNL     1      23.347   5.348  52.045  1.00  0.00     0.008 A 
BRANCH  17  20
HETATM   20  N1  UNL     1      25.035   8.086  50.702  1.00  0.00    -0.387 N 
HETATM   21  H1  UNL     1      24.081   8.415  50.579  1.00  0.00     0.157 HD
HETATM   22  H2  UNL     1      25.877   8.582  50.982  1.00  0.00     0.157 HD
ENDBRANCH  17  20
ENDBRANCH   1  12
BRANCH   6  23
HETATM   23  O1  UNL     1      27.355   2.928  51.433  1.00  0.00    -0.389 OA
HETATM   24  H5  UNL     1      27.919   3.708  51.561  1.00  0.00     0.210 HD
ENDBRANCH   6  23
TORSDOF 3
ENDMDL
MODEL 9
REMARK VINA RESULT:      -6.5      2.196      2.694
REMARK  3 active torsions:
REMARK  status: ('A' for Active; 'I' for Inactive)
REMARK    1  A    between atoms: N1_1  and  C1_2 
REMARK    2  A    between atoms: C3_5  and  C4_6 
REMARK    3  A    between atoms: C7_11  and  O1_12 
ROOT
HETATM    1  C4  UNL     1      23.303   2.498  50.907  1.00  0.00     0.019 A 
HETATM    2  C5  UNL     1      22.480   2.088  49.938  1.00  0.00     0.126 A 
HETATM    3  N3  UNL     1      22.027   3.183  49.362  1.00  0.00    -0.279 N 
HETATM    4  N4  UNL     1      22.574   4.122  49.981  1.00  0.00    -0.174 NA
HETATM    5  C6  UNL     1      23.364   3.833  50.938  1.00  0.00     0.096 A 
HETATM    6  C7  UNL     1      23.917   4.997  51.599  1.00  0.00     0.176 C 
HETATM    7  C8  UNL     1      23.203   6.227  51.061  1.00  0.00     0.069 C 
HETATM    8  P1  UNL     1      21.453   5.768  50.656  1.00  0.00    -0.125 P 
HETATM    9  C9  UNL     1      21.119   5.434  48.864  1.00  0.00     0.053 C 
HETATM   10  C10 UNL     1      21.266   3.959  48.468  1.00  0.00     0.154 C 
HETATM   11  H8  UNL     1      20.506   6.707  51.231  1.00  0.00     0.057 HD
ENDROOT
BRANCH   1  12
HETATM   12  C3  UNL     1      24.080   1.840  51.821  1.00  0.00    -0.012 A 
HETATM   13  C2  UNL     1      25.362   1.691  52.028  1.00  0.00     0.136 A 
HETATM   14  N2  UNL     1      26.706   1.156  51.869  1.00  0.00    -0.255 NA
HETATM   15  C13 UNL     1      25.690   2.176  53.487  1.00  0.00     0.229 A 
HETATM   16  C12 UNL     1      25.278   0.687  53.212  1.00  0.00     0.106 A 
HETATM   17  C1  UNL     1      26.532   0.005  52.869  1.00  0.00     0.112 C 
HETATM   18  F1  UNL     1      26.971   2.353  53.708  1.00  0.00    -0.245 F 
HETATM   19  C11 UNL     1      23.906   0.762  53.090  1.00  0.00     0.008 A 
BRANCH  17  20
HETATM   20  N1  UNL     1      26.721  -1.217  53.644  1.00  0.00    -0.387 N 
HETATM   21  H1  UNL     1      26.541  -1.054  54.633  1.00  0.00     0.157 HD
HETATM   22  H2  UNL     1      26.987  -2.064  53.150  1.00  0.00     0.157 HD
ENDBRANCH  17  20
ENDBRANCH   1  12
BRANCH   6  23
HETATM   23  O1  UNL     1      23.681   5.043  52.979  1.00  0.00    -0.389 OA
HETATM   24  H5  UNL     1      24.118   5.831  53.339  1.00  0.00     0.210 HD
ENDBRANCH   6  23
TORSDOF 3
ENDMDL
