MODEL 1
REMARK VINA RESULT:      -7.4      0.000      0.000
REMARK  8 active torsions:
REMARK  status: ('A' for Active; 'I' for Inactive)
REMARK    1  A    between atoms: C2_2  and  C3_3 
REMARK    2  A    between atoms: C3_3  and  N1_4 
REMARK    3  A    between atoms: N1_4  and  C4_5 
REMARK    4  A    between atoms: C4_5  and  N2_7 
REMARK    5  A    between atoms: N2_7  and  C6_8 
REMARK    6  A    between atoms: N2_7  and  C13_16 
REMARK    7  A    between atoms: C6_8  and  C7_9 
REMARK    8  A    between atoms: C18_22  and  O1_23 
ROOT
HETATM    1  N2  UNL     1      25.369   1.112  53.255  1.00  0.00    -0.345 N 
ENDROOT
BRANCH   1   2
HETATM    2  C4  UNL     1      26.506   1.135  54.156  1.00  0.00     0.318 C 
HETATM    3  C5  UNL     1      26.332   0.117  55.280  1.00  0.00     0.066 C 
BRANCH   2   4
HETATM    4  N1  UNL     1      27.753   0.817  53.482  1.00  0.00     0.109 N 
HETATM    5  H6  UNL     1      27.637   0.033  52.786  1.00  0.00     0.318 HD
BRANCH   4   6
HETATM    6  C3  UNL     1      28.637   0.268  54.521  1.00  0.00     0.298 C 
BRANCH   6   7
HETATM    7  C2  UNL     1      29.641  -0.572  53.779  1.00  0.00    -0.007 C 
HETATM    8  C1  UNL     1      29.325  -1.776  53.303  1.00  0.00     0.008 C 
ENDBRANCH   6   7
ENDBRANCH   4   6
ENDBRANCH   2   4
ENDBRANCH   1   2
BRANCH   1   9
HETATM    9  C6  UNL     1      24.830  -0.224  53.089  1.00  0.00     0.163 C 
BRANCH   9  10
HETATM   10  C7  UNL     1      23.368  -0.302  53.159  1.00  0.00    -0.040 A 
HETATM   11  C8  UNL     1      22.415   0.086  52.226  1.00  0.00     0.012 A 
HETATM   12  C9  UNL     1      21.074  -0.065  52.468  1.00  0.00     0.043 A 
HETATM   13  C10 UNL     1      20.585  -0.605  53.631  1.00  0.00     0.116 A 
HETATM   14  F1  UNL     1      19.273  -0.740  53.840  1.00  0.00    -0.206 F 
HETATM   15  C11 UNL     1      21.490  -0.997  54.569  1.00  0.00     0.043 A 
HETATM   16  C12 UNL     1      22.836  -0.848  54.334  1.00  0.00     0.012 A 
ENDBRANCH   9  10
ENDBRANCH   1   9
BRANCH   1  17
HETATM   17  C13 UNL     1      24.938   2.350  52.669  1.00  0.00     0.067 A 
HETATM   18  C14 UNL     1      23.945   3.206  53.095  1.00  0.00     0.032 A 
HETATM   19  C15 UNL     1      23.688   4.357  52.380  1.00  0.00     0.004 A 
HETATM   20  C16 UNL     1      24.397   4.687  51.240  1.00  0.00     0.022 A 
HETATM   21  C17 UNL     1      25.395   3.808  50.828  1.00  0.00     0.046 A 
HETATM   22 BR1  UNL     1      26.346   4.317  49.241  1.00  0.00    -0.048 Br
HETATM   23  C18 UNL     1      25.669   2.650  51.531  1.00  0.00     0.109 A 
BRANCH  23  24
HETATM   24  O1  UNL     1      26.690   1.878  50.995  1.00  0.00    -0.357 OA
HETATM   25  H20 UNL     1      27.434   1.475  51.511  1.00  0.00     0.217 HD
ENDBRANCH  23  24
ENDBRANCH   1  17
TORSDOF 8
ENDMDL
MODEL 2
REMARK VINA RESULT:      -7.3      2.245      4.518
REMARK  8 active torsions:
REMARK  status: ('A' for Active; 'I' for Inactive)
REMARK    1  A    between atoms: C2_2  and  C3_3 
REMARK    2  A    between atoms: C3_3  and  N1_4 
REMARK    3  A    between atoms: N1_4  and  C4_5 
REMARK    4  A    between atoms: C4_5  and  N2_7 
REMARK    5  A    between atoms: N2_7  and  C6_8 
REMARK    6  A    between atoms: N2_7  and  C13_16 
REMARK    7  A    between atoms: C6_8  and  C7_9 
REMARK    8  A    between atoms: C18_22  and  O1_23 
ROOT
HETATM    1  N2  UNL     1      24.808   1.752  52.259  1.00  0.00    -0.345 N 
ENDROOT
BRANCH   1   2
HETATM    2  C4  UNL     1      24.855   2.486  51.008  1.00  0.00     0.318 C 
HETATM    3  C5  UNL     1      23.480   2.522  50.345  1.00  0.00     0.066 C 
BRANCH   2   4
HETATM    4  N1  UNL     1      25.276   3.864  51.190  1.00  0.00     0.109 N 
HETATM    5  H6  UNL     1      24.523   4.451  51.638  1.00  0.00     0.318 HD
BRANCH   4   6
HETATM    6  C3  UNL     1      25.423   4.416  49.834  1.00  0.00     0.298 C 
BRANCH   6   7
HETATM    7  C2  UNL     1      26.808   4.018  49.397  1.00  0.00    -0.007 C 
HETATM    8  C1  UNL     1      27.562   4.828  48.654  1.00  0.00     0.008 C 
ENDBRANCH   6   7
ENDBRANCH   4   6
ENDBRANCH   2   4
ENDBRANCH   1   2
BRANCH   1   9
HETATM    9  C6  UNL     1      23.634   2.083  53.043  1.00  0.00     0.163 C 
BRANCH   9  10
HETATM   10  C7  UNL     1      22.776   0.938  53.364  1.00  0.00    -0.040 A 
HETATM   11  C8  UNL     1      23.100  -0.270  53.967  1.00  0.00     0.012 A 
HETATM   12  C9  UNL     1      22.154  -1.236  54.190  1.00  0.00     0.043 A 
HETATM   13  C10 UNL     1      20.837  -1.080  53.838  1.00  0.00     0.116 A 
HETATM   14  F1  UNL     1      19.935  -2.039  54.067  1.00  0.00    -0.206 F 
HETATM   15  C11 UNL     1      20.481   0.091  53.244  1.00  0.00     0.043 A 
HETATM   16  C12 UNL     1      21.425   1.065  53.017  1.00  0.00     0.012 A 
ENDBRANCH   9  10
ENDBRANCH   1   9
BRANCH   1  17
HETATM   17  C13 UNL     1      25.875   0.837  52.553  1.00  0.00     0.067 A 
HETATM   18  C14 UNL     1      25.991  -0.492  52.204  1.00  0.00     0.032 A 
HETATM   19  C15 UNL     1      27.110  -1.200  52.589  1.00  0.00     0.004 A 
HETATM   20  C16 UNL     1      28.130  -0.619  53.321  1.00  0.00     0.022 A 
HETATM   21  C17 UNL     1      27.992   0.723  53.662  1.00  0.00     0.046 A 
HETATM   22 BR1  UNL     1      29.437   1.475  54.676  1.00  0.00    -0.048 Br
HETATM   23  C18 UNL     1      26.878   1.450  53.285  1.00  0.00     0.109 A 
BRANCH  23  24
HETATM   24  O1  UNL     1      26.887   2.774  53.701  1.00  0.00    -0.357 OA
HETATM   25  H20 UNL     1      27.631   3.218  54.181  1.00  0.00     0.217 HD
ENDBRANCH  23  24
ENDBRANCH   1  17
TORSDOF 8
ENDMDL
MODEL 3
REMARK VINA RESULT:      -7.2      3.280      5.913
REMARK  8 active torsions:
REMARK  status: ('A' for Active; 'I' for Inactive)
REMARK    1  A    between atoms: C2_2  and  C3_3 
REMARK    2  A    between atoms: C3_3  and  N1_4 
REMARK    3  A    between atoms: N1_4  and  C4_5 
REMARK    4  A    between atoms: C4_5  and  N2_7 
REMARK    5  A    between atoms: N2_7  and  C6_8 
REMARK    6  A    between atoms: N2_7  and  C13_16 
REMARK    7  A    between atoms: C6_8  and  C7_9 
REMARK    8  A    between atoms: C18_22  and  O1_23 
ROOT
HETATM    1  N2  UNL     1      24.897   2.532  51.714  1.00  0.00    -0.345 N 
ENDROOT
BRANCH   1   2
HETATM    2  C4  UNL     1      23.752   1.749  51.288  1.00  0.00     0.318 C 
HETATM    3  C5  UNL     1      23.079   1.075  52.480  1.00  0.00     0.066 C 
BRANCH   2   4
HETATM    4  N1  UNL     1      22.741   2.560  50.631  1.00  0.00     0.109 N 
HETATM    5  H6  UNL     1      21.880   2.679  51.229  1.00  0.00     0.318 HD
BRANCH   4   6
HETATM    6  C3  UNL     1      22.288   1.770  49.476  1.00  0.00     0.298 C 
BRANCH   6   7
HETATM    7  C2  UNL     1      22.734   2.551  48.268  1.00  0.00    -0.007 C 
HETATM    8  C1  UNL     1      22.693   3.882  48.247  1.00  0.00     0.008 C 
ENDBRANCH   6   7
ENDBRANCH   4   6
ENDBRANCH   2   4
ENDBRANCH   1   2
BRANCH   1   9
HETATM    9  C6  UNL     1      25.265   2.258  53.090  1.00  0.00     0.163 C 
BRANCH   9  10
HETATM   10  C7  UNL     1      26.604   1.684  53.257  1.00  0.00    -0.040 A 
HETATM   11  C8  UNL     1      27.799   2.307  53.590  1.00  0.00     0.012 A 
HETATM   12  C9  UNL     1      28.968   1.600  53.703  1.00  0.00     0.043 A 
HETATM   13  C10 UNL     1      29.039   0.245  53.499  1.00  0.00     0.116 A 
HETATM   14  F1  UNL     1      30.192  -0.419  53.616  1.00  0.00    -0.206 F 
HETATM   15  C11 UNL     1      27.887  -0.401  53.171  1.00  0.00     0.043 A 
HETATM   16  C12 UNL     1      26.711   0.302  53.055  1.00  0.00     0.012 A 
ENDBRANCH   9  10
ENDBRANCH   1   9
BRANCH   1  17
HETATM   17  C13 UNL     1      25.495   3.434  50.771  1.00  0.00     0.067 A 
HETATM   18  C14 UNL     1      26.450   3.170  49.812  1.00  0.00     0.032 A 
HETATM   19  C15 UNL     1      26.894   4.190  48.997  1.00  0.00     0.004 A 
HETATM   20  C16 UNL     1      26.412   5.482  49.109  1.00  0.00     0.022 A 
HETATM   21  C17 UNL     1      25.448   5.725  50.083  1.00  0.00     0.046 A 
HETATM   22 BR1  UNL     1      24.816   7.533  50.192  1.00  0.00    -0.048 Br
HETATM   23  C18 UNL     1      24.990   4.716  50.909  1.00  0.00     0.109 A 
BRANCH  23  24
HETATM   24  O1  UNL     1      24.031   5.116  51.829  1.00  0.00    -0.357 OA
HETATM   25  H20 UNL     1      23.193   5.597  51.610  1.00  0.00     0.217 HD
ENDBRANCH  23  24
ENDBRANCH   1  17
TORSDOF 8
ENDMDL
MODEL 4
REMARK VINA RESULT:      -7.1      2.900      5.168
REMARK  8 active torsions:
REMARK  status: ('A' for Active; 'I' for Inactive)
REMARK    1  A    between atoms: C2_2  and  C3_3 
REMARK    2  A    between atoms: C3_3  and  N1_4 
REMARK    3  A    between atoms: N1_4  and  C4_5 
REMARK    4  A    between atoms: C4_5  and  N2_7 
REMARK    5  A    between atoms: N2_7  and  C6_8 
REMARK    6  A    between atoms: N2_7  and  C13_16 
REMARK    7  A    between atoms: C6_8  and  C7_9 
REMARK    8  A    between atoms: C18_22  and  O1_23 
ROOT
HETATM    1  N2  UNL     1      23.987   2.876  52.093  1.00  0.00    -0.345 N 
ENDROOT
BRANCH   1   2
HETATM    2  C4  UNL     1      22.656   2.371  51.812  1.00  0.00     0.318 C 
HETATM    3  C5  UNL     1      22.634   1.587  50.503  1.00  0.00     0.066 C 
BRANCH   2   4
HETATM    4  N1  UNL     1      22.172   1.478  52.851  1.00  0.00     0.109 N 
HETATM    5  H6  UNL     1      22.921   1.253  53.559  1.00  0.00     0.318 HD
BRANCH   4   6
HETATM    6  C3  UNL     1      21.896   0.199  52.179  1.00  0.00     0.298 C 
BRANCH   6   7
HETATM    7  C2  UNL     1      21.866  -0.825  53.281  1.00  0.00    -0.007 C 
HETATM    8  C1  UNL     1      22.744  -0.794  54.284  1.00  0.00     0.008 C 
ENDBRANCH   6   7
ENDBRANCH   4   6
ENDBRANCH   2   4
ENDBRANCH   1   2
BRANCH   1   9
HETATM    9  C6  UNL     1      24.518   2.355  53.338  1.00  0.00     0.163 C 
BRANCH   9  10
HETATM   10  C7  UNL     1      25.573   1.351  53.174  1.00  0.00    -0.040 A 
HETATM   11  C8  UNL     1      25.724   0.375  52.198  1.00  0.00     0.012 A 
HETATM   12  C9  UNL     1      26.790  -0.487  52.206  1.00  0.00     0.043 A 
HETATM   13  C10 UNL     1      27.771  -0.446  53.164  1.00  0.00     0.116 A 
HETATM   14  F1  UNL     1      28.799  -1.299  53.148  1.00  0.00    -0.206 F 
HETATM   15  C11 UNL     1      27.657   0.498  54.138  1.00  0.00     0.043 A 
HETATM   16  C12 UNL     1      26.591   1.365  54.138  1.00  0.00     0.012 A 
ENDBRANCH   9  10
ENDBRANCH   1   9
BRANCH   1  17
HETATM   17  C13 UNL     1      24.584   3.782  51.153  1.00  0.00     0.067 A 
HETATM   18  C14 UNL     1      25.533   3.520  50.187  1.00  0.00     0.032 A 
HETATM   19  C15 UNL     1      25.978   4.544  49.377  1.00  0.00     0.004 A 
HETATM   20  C16 UNL     1      25.503   5.837  49.501  1.00  0.00     0.022 A 
HETATM   21  C17 UNL     1      24.546   6.078  50.483  1.00  0.00     0.046 A 
HETATM   22 BR1  UNL     1      23.923   7.889  50.608  1.00  0.00    -0.048 Br
HETATM   23  C18 UNL     1      24.086   5.066  51.303  1.00  0.00     0.109 A 
BRANCH  23  24
HETATM   24  O1  UNL     1      23.135   5.463  52.232  1.00  0.00    -0.357 OA
HETATM   25  H20 UNL     1      22.531   4.855  52.730  1.00  0.00     0.217 HD
ENDBRANCH  23  24
ENDBRANCH   1  17
TORSDOF 8
ENDMDL
MODEL 5
REMARK VINA RESULT:      -6.8      3.641      5.593
REMARK  8 active torsions:
REMARK  status: ('A' for Active; 'I' for Inactive)
REMARK    1  A    between atoms: C2_2  and  C3_3 
REMARK    2  A    between atoms: C3_3  and  N1_4 
REMARK    3  A    between atoms: N1_4  and  C4_5 
REMARK    4  A    between atoms: C4_5  and  N2_7 
REMARK    5  A    between atoms: N2_7  and  C6_8 
REMARK    6  A    between atoms: N2_7  and  C13_16 
REMARK    7  A    between atoms: C6_8  and  C7_9 
REMARK    8  A    between atoms: C18_22  and  O1_23 
ROOT
HETATM    1  N2  UNL     1      23.701   3.353  51.309  1.00  0.00    -0.345 N 
ENDROOT
BRANCH   1   2
HETATM    2  C4  UNL     1      24.205   4.577  50.713  1.00  0.00     0.318 C 
HETATM    3  C5  UNL     1      23.782   5.795  51.529  1.00  0.00     0.066 C 
BRANCH   2   4
HETATM    4  N1  UNL     1      25.655   4.598  50.635  1.00  0.00     0.109 N 
HETATM    5  H6  UNL     1      26.031   5.579  50.542  1.00  0.00     0.318 HD
BRANCH   4   6
HETATM    6  C3  UNL     1      25.993   3.946  49.360  1.00  0.00     0.298 C 
BRANCH   6   7
HETATM    7  C2  UNL     1      27.222   4.662  48.867  1.00  0.00    -0.007 C 
HETATM    8  C1  UNL     1      27.198   5.961  48.569  1.00  0.00     0.008 C 
ENDBRANCH   6   7
ENDBRANCH   4   6
ENDBRANCH   2   4
ENDBRANCH   1   2
BRANCH   1   9
HETATM    9  C6  UNL     1      24.384   3.027  52.546  1.00  0.00     0.163 C 
BRANCH   9  10
HETATM   10  C7  UNL     1      25.074   1.733  52.535  1.00  0.00    -0.040 A 
HETATM   11  C8  UNL     1      26.254   1.364  51.904  1.00  0.00     0.012 A 
HETATM   12  C9  UNL     1      26.754   0.092  52.008  1.00  0.00     0.043 A 
HETATM   13  C10 UNL     1      26.133  -0.893  52.734  1.00  0.00     0.116 A 
HETATM   14  F1  UNL     1      26.643  -2.125  52.818  1.00  0.00    -0.206 F 
HETATM   15  C11 UNL     1      24.973  -0.568  53.367  1.00  0.00     0.043 A 
HETATM   16  C12 UNL     1      24.465   0.705  53.267  1.00  0.00     0.012 A 
ENDBRANCH   9  10
ENDBRANCH   1   9
BRANCH   1  17
HETATM   17  C13 UNL     1      22.644   2.652  50.637  1.00  0.00     0.067 A 
HETATM   18  C14 UNL     1      22.719   1.837  49.527  1.00  0.00     0.032 A 
HETATM   19  C15 UNL     1      21.572   1.252  49.035  1.00  0.00     0.004 A 
HETATM   20  C16 UNL     1      20.335   1.455  49.620  1.00  0.00     0.022 A 
HETATM   21  C17 UNL     1      20.282   2.281  50.739  1.00  0.00     0.046 A 
HETATM   22 BR1  UNL     1      18.542   2.527  51.509  1.00  0.00    -0.048 Br
HETATM   23  C18 UNL     1      21.421   2.877  51.248  1.00  0.00     0.109 A 
BRANCH  23  24
HETATM   24  O1  UNL     1      21.206   3.671  52.365  1.00  0.00    -0.357 OA
HETATM   25  H20 UNL     1      21.443   3.427  53.296  1.00  0.00     0.217 HD
ENDBRANCH  23  24
ENDBRANCH   1  17
TORSDOF 8
ENDMDL
MODEL 6
REMARK VINA RESULT:      -6.6      3.170      5.685
REMARK  8 active torsions:
REMARK  status: ('A' for Active; 'I' for Inactive)
REMARK    1  A    between atoms: C2_2  and  C3_3 
REMARK    2  A    between atoms: C3_3  and  N1_4 
REMARK    3  A    between atoms: N1_4  and  C4_5 
REMARK    4  A    between atoms: C4_5  and  N2_7 
REMARK    5  A    between atoms: N2_7  and  C6_8 
REMARK    6  A    between atoms: N2_7  and  C13_16 
REMARK    7  A    between atoms: C6_8  and  C7_9 
REMARK    8  A    between atoms: C18_22  and  O1_23 
ROOT
HETATM    1  N2  UNL     1      24.281   3.618  51.444  1.00  0.00    -0.345 N 
ENDROOT
BRANCH   1   2
HETATM    2  C4  UNL     1      22.915   3.343  51.042  1.00  0.00     0.318 C 
HETATM    3  C5  UNL     1      22.846   2.100  50.158  1.00  0.00     0.066 C 
BRANCH   2   4
HETATM    4  N1  UNL     1      22.040   3.107  52.177  1.00  0.00     0.109 N 
HETATM    5  H6  UNL     1      22.558   2.691  52.995  1.00  0.00     0.318 HD
BRANCH   4   6
HETATM    6  C3  UNL     1      21.108   2.053  51.748  1.00  0.00     0.298 C 
BRANCH   6   7
HETATM    7  C2  UNL     1      19.754   2.507  52.224  1.00  0.00    -0.007 C 
HETATM    8  C1  UNL     1      18.940   3.211  51.438  1.00  0.00     0.008 C 
ENDBRANCH   6   7
ENDBRANCH   4   6
ENDBRANCH   2   4
ENDBRANCH   1   2
BRANCH   1   9
HETATM    9  C6  UNL     1      24.594   3.047  52.741  1.00  0.00     0.163 C 
BRANCH   9  10
HETATM   10  C7  UNL     1      25.260   1.742  52.684  1.00  0.00    -0.040 A 
HETATM   11  C8  UNL     1      26.495   1.400  52.150  1.00  0.00     0.012 A 
HETATM   12  C9  UNL     1      26.960   0.111  52.190  1.00  0.00     0.043 A 
HETATM   13  C10 UNL     1      26.248  -0.918  52.752  1.00  0.00     0.116 A 
HETATM   14  F1  UNL     1      26.725  -2.166  52.776  1.00  0.00    -0.206 F 
HETATM   15  C11 UNL     1      25.031  -0.621  53.285  1.00  0.00     0.043 A 
HETATM   16  C12 UNL     1      24.558   0.669  53.250  1.00  0.00     0.012 A 
ENDBRANCH   9  10
ENDBRANCH   1   9
BRANCH   1  17
HETATM   17  C13 UNL     1      25.113   4.382  50.558  1.00  0.00     0.067 A 
HETATM   18  C14 UNL     1      26.019   3.929  49.622  1.00  0.00     0.032 A 
HETATM   19  C15 UNL     1      26.723   4.839  48.863  1.00  0.00     0.004 A 
HETATM   20  C16 UNL     1      26.553   6.204  49.009  1.00  0.00     0.022 A 
HETATM   21  C17 UNL     1      25.634   6.639  49.959  1.00  0.00     0.046 A 
HETATM   22 BR1  UNL     1      25.439   8.541  50.116  1.00  0.00    -0.048 Br
HETATM   23  C18 UNL     1      24.917   5.742  50.729  1.00  0.00     0.109 A 
BRANCH  23  24
HETATM   24  O1  UNL     1      24.041   6.329  51.631  1.00  0.00    -0.357 OA
HETATM   25  H20 UNL     1      23.052   6.293  51.575  1.00  0.00     0.217 HD
ENDBRANCH  23  24
ENDBRANCH   1  17
TORSDOF 8
ENDMDL
MODEL 7
REMARK VINA RESULT:      -6.2      3.425      5.780
REMARK  8 active torsions:
REMARK  status: ('A' for Active; 'I' for Inactive)
REMARK    1  A    between atoms: C2_2  and  C3_3 
REMARK    2  A    between atoms: C3_3  and  N1_4 
REMARK    3  A    between atoms: N1_4  and  C4_5 
REMARK    4  A    between atoms: C4_5  and  N2_7 
REMARK    5  A    between atoms: N2_7  and  C6_8 
REMARK    6  A    between atoms: N2_7  and  C13_16 
REMARK    7  A    between atoms: C6_8  and  C7_9 
REMARK    8  A    between atoms: C18_22  and  O1_23 
ROOT
HETATM    1  N2  UNL     1      23.814   3.864  50.802  1.00  0.00    -0.345 N 
ENDROOT
BRANCH   1   2
HETATM    2  C4  UNL     1      23.218   5.047  51.394  1.00  0.00     0.318 C 
HETATM    3  C5  UNL     1      22.395   4.684  52.627  1.00  0.00     0.066 C 
BRANCH   2   4
HETATM    4  N1  UNL     1      24.214   6.017  51.816  1.00  0.00     0.109 N 
HETATM    5  H6  UNL     1      24.035   6.365  52.796  1.00  0.00     0.318 HD
BRANCH   4   6
HETATM    6  C3  UNL     1      24.011   7.194  50.958  1.00  0.00     0.298 C 
BRANCH   6   7
HETATM    7  C2  UNL     1      25.384   7.557  50.458  1.00  0.00    -0.007 C 
HETATM    8  C1  UNL     1      26.028   6.792  49.578  1.00  0.00     0.008 C 
ENDBRANCH   6   7
ENDBRANCH   4   6
ENDBRANCH   2   4
ENDBRANCH   1   2
BRANCH   1   9
HETATM    9  C6  UNL     1      25.196   3.688  51.207  1.00  0.00     0.163 C 
BRANCH   9  10
HETATM   10  C7  UNL     1      25.503   2.362  51.754  1.00  0.00    -0.040 A 
HETATM   11  C8  UNL     1      26.414   1.412  51.314  1.00  0.00     0.012 A 
HETATM   12  C9  UNL     1      26.566   0.213  51.961  1.00  0.00     0.043 A 
HETATM   13  C10 UNL     1      25.840  -0.128  53.074  1.00  0.00     0.116 A 
HETATM   14  F1  UNL     1      26.009  -1.304  53.685  1.00  0.00    -0.206 F 
HETATM   15  C11 UNL     1      24.936   0.779  53.535  1.00  0.00     0.043 A 
HETATM   16  C12 UNL     1      24.777   1.983  52.892  1.00  0.00     0.012 A 
ENDBRANCH   9  10
ENDBRANCH   1   9
BRANCH   1  17
HETATM   17  C13 UNL     1      23.007   3.056  49.932  1.00  0.00     0.067 A 
HETATM   18  C14 UNL     1      22.397   1.848  50.198  1.00  0.00     0.032 A 
HETATM   19  C15 UNL     1      21.656   1.230  49.214  1.00  0.00     0.004 A 
HETATM   20  C16 UNL     1      21.501   1.783  47.955  1.00  0.00     0.022 A 
HETATM   21  C17 UNL     1      22.125   3.003  47.709  1.00  0.00     0.046 A 
HETATM   22 BR1  UNL     1      21.874   3.723  45.948  1.00  0.00    -0.048 Br
HETATM   23  C18 UNL     1      22.871   3.639  48.683  1.00  0.00     0.109 A 
BRANCH  23  24
HETATM   24  O1  UNL     1      23.430   4.845  48.285  1.00  0.00    -0.357 OA
HETATM   25  H20 UNL     1      24.355   4.965  47.952  1.00  0.00     0.217 HD
ENDBRANCH  23  24
ENDBRANCH   1  17
TORSDOF 8
ENDMDL
MODEL 8
REMARK VINA RESULT:      -6.2      3.837      5.905
REMARK  8 active torsions:
REMARK  status: ('A' for Active; 'I' for Inactive)
REMARK    1  A    between atoms: C2_2  and  C3_3 
REMARK    2  A    between atoms: C3_3  and  N1_4 
REMARK    3  A    between atoms: N1_4  and  C4_5 
REMARK    4  A    between atoms: C4_5  and  N2_7 
REMARK    5  A    between atoms: N2_7  and  C6_8 
REMARK    6  A    between atoms: N2_7  and  C13_16 
REMARK    7  A    between atoms: C6_8  and  C7_9 
REMARK    8  A    between atoms: C18_22  and  O1_23 
ROOT
HETATM    1  N2  UNL     1      22.890   2.208  52.167  1.00  0.00    -0.345 N 
ENDROOT
BRANCH   1   2
HETATM    2  C4  UNL     1      23.048   1.160  53.158  1.00  0.00     0.318 C 
HETATM    3  C5  UNL     1      22.421  -0.146  52.678  1.00  0.00     0.066 C 
BRANCH   2   4
HETATM    4  N1  UNL     1      24.444   0.881  53.450  1.00  0.00     0.109 N 
HETATM    5  H6  UNL     1      25.086   1.256  52.702  1.00  0.00     0.318 HD
BRANCH   4   6
HETATM    6  C3  UNL     1      24.582  -0.581  53.363  1.00  0.00     0.298 C 
BRANCH   6   7
HETATM    7  C2  UNL     1      26.058  -0.827  53.194  1.00  0.00    -0.007 C 
HETATM    8  C1  UNL     1      26.718  -0.384  52.125  1.00  0.00     0.008 C 
ENDBRANCH   6   7
ENDBRANCH   4   6
ENDBRANCH   2   4
ENDBRANCH   1   2
BRANCH   1   9
HETATM    9  C6  UNL     1      23.765   3.336  52.419  1.00  0.00     0.163 C 
BRANCH   9  10
HETATM   10  C7  UNL     1      24.727   3.610  51.347  1.00  0.00    -0.040 A 
HETATM   11  C8  UNL     1      25.724   2.798  50.822  1.00  0.00     0.012 A 
HETATM   12  C9  UNL     1      26.537   3.229  49.807  1.00  0.00     0.043 A 
HETATM   13  C10 UNL     1      26.426   4.476  49.244  1.00  0.00     0.116 A 
HETATM   14  F1  UNL     1      27.233   4.870  48.255  1.00  0.00    -0.206 F 
HETATM   15  C11 UNL     1      25.459   5.300  49.732  1.00  0.00     0.043 A 
HETATM   16  C12 UNL     1      24.639   4.875  50.751  1.00  0.00     0.012 A 
ENDBRANCH   9  10
ENDBRANCH   1   9
BRANCH   1  17
HETATM   17  C13 UNL     1      21.936   2.009  51.112  1.00  0.00     0.067 A 
HETATM   18  C14 UNL     1      22.127   1.433  49.874  1.00  0.00     0.032 A 
HETATM   19  C15 UNL     1      21.066   1.337  48.999  1.00  0.00     0.004 A 
HETATM   20  C16 UNL     1      19.804   1.805  49.320  1.00  0.00     0.022 A 
HETATM   21  C17 UNL     1      19.634   2.383  50.575  1.00  0.00     0.046 A 
HETATM   22 BR1  UNL     1      17.865   3.012  50.967  1.00  0.00    -0.048 Br
HETATM   23  C18 UNL     1      20.685   2.487  51.467  1.00  0.00     0.109 A 
BRANCH  23  24
HETATM   24  O1  UNL     1      20.358   3.087  52.675  1.00  0.00    -0.357 OA
HETATM   25  H20 UNL     1      21.006   3.345  53.380  1.00  0.00     0.217 HD
ENDBRANCH  23  24
ENDBRANCH   1  17
TORSDOF 8
ENDMDL
MODEL 9
REMARK VINA RESULT:      -6.2      4.239      6.783
REMARK  8 active torsions:
REMARK  status: ('A' for Active; 'I' for Inactive)
REMARK    1  A    between atoms: C2_2  and  C3_3 
REMARK    2  A    between atoms: C3_3  and  N1_4 
REMARK    3  A    between atoms: N1_4  and  C4_5 
REMARK    4  A    between atoms: C4_5  and  N2_7 
REMARK    5  A    between atoms: N2_7  and  C6_8 
REMARK    6  A    between atoms: N2_7  and  C13_16 
REMARK    7  A    between atoms: C6_8  and  C7_9 
REMARK    8  A    between atoms: C18_22  and  O1_23 
ROOT
HETATM    1  N2  UNL     1      23.408   2.633  50.849  1.00  0.00    -0.345 N 
ENDROOT
BRANCH   1   2
HETATM    2  C4  UNL     1      23.180   1.397  51.575  1.00  0.00     0.318 C 
HETATM    3  C5  UNL     1      24.430   0.975  52.342  1.00  0.00     0.066 C 
BRANCH   2   4
HETATM    4  N1  UNL     1      22.105   1.516  52.545  1.00  0.00     0.109 N 
HETATM    5  H6  UNL     1      22.470   1.699  53.518  1.00  0.00     0.318 HD
BRANCH   4   6
HETATM    6  C3  UNL     1      21.490   0.182  52.621  1.00  0.00     0.298 C 
BRANCH   6   7
HETATM    7  C2  UNL     1      21.188  -0.029  54.081  1.00  0.00    -0.007 C 
HETATM    8  C1  UNL     1      21.938  -0.830  54.838  1.00  0.00     0.008 C 
ENDBRANCH   6   7
ENDBRANCH   4   6
ENDBRANCH   2   4
ENDBRANCH   1   2
BRANCH   1   9
HETATM    9  C6  UNL     1      24.454   3.436  51.454  1.00  0.00     0.163 C 
BRANCH   9  10
HETATM   10  C7  UNL     1      25.378   4.049  50.495  1.00  0.00    -0.040 A 
HETATM   11  C8  UNL     1      26.464   3.494  49.833  1.00  0.00     0.012 A 
HETATM   12  C9  UNL     1      27.224   4.230  48.960  1.00  0.00     0.043 A 
HETATM   13  C10 UNL     1      26.967   5.549  48.683  1.00  0.00     0.116 A 
HETATM   14  F1  UNL     1      27.724   6.242  47.828  1.00  0.00    -0.206 F 
HETATM   15  C11 UNL     1      25.910   6.128  49.314  1.00  0.00     0.043 A 
HETATM   16  C12 UNL     1      25.144   5.397  50.191  1.00  0.00     0.012 A 
ENDBRANCH   9  10
ENDBRANCH   1   9
BRANCH   1  17
HETATM   17  C13 UNL     1      22.613   2.895  49.683  1.00  0.00     0.067 A 
HETATM   18  C14 UNL     1      22.803   2.449  48.392  1.00  0.00     0.032 A 
HETATM   19  C15 UNL     1      21.913   2.821  47.407  1.00  0.00     0.004 A 
HETATM   20  C16 UNL     1      20.825   3.633  47.670  1.00  0.00     0.022 A 
HETATM   21  C17 UNL     1      20.652   4.072  48.980  1.00  0.00     0.046 A 
HETATM   22 BR1  UNL     1      19.127   5.194  49.285  1.00  0.00    -0.048 Br
HETATM   23  C18 UNL     1      21.533   3.710  49.981  1.00  0.00     0.109 A 
BRANCH  23  24
HETATM   24  O1  UNL     1      21.227   4.226  51.232  1.00  0.00    -0.357 OA
HETATM   25  H20 UNL     1      20.503   4.876  51.422  1.00  0.00     0.217 HD
ENDBRANCH  23  24
ENDBRANCH   1  17
TORSDOF 8
ENDMDL
