MODEL 1
REMARK VINA RESULT:      -8.6      0.000      0.000
REMARK  1 active torsions:
REMARK  status: ('A' for Active; 'I' for Inactive)
REMARK       I    between atoms: C7_8  and  N2_9 
REMARK    1  A    between atoms: C10_13  and  C11_14 
ROOT
HETATM    1  C1  UNL     1      21.080   0.320  50.972  1.00  0.00     0.044 C 
HETATM    2  C2  UNL     1      20.989   1.283  52.144  1.00  0.00     0.143 C 
HETATM    3  C3  UNL     1      21.424   0.488  53.352  1.00  0.00     0.004 C 
HETATM    4  C4  UNL     1      22.615   0.180  53.825  1.00  0.00     0.001 C 
HETATM    5  C5  UNL     1      23.870   0.602  53.196  1.00  0.00     0.029 C 
HETATM    6  C6  UNL     1      23.976   1.452  52.193  1.00  0.00     0.061 C 
HETATM    7  N1  UNL     1      25.361   1.632  51.834  1.00  0.00    -0.316 N 
HETATM    8  C7  UNL     1      26.647   2.242  51.586  1.00  0.00     0.252 C 
HETATM    9  N2  UNL     1      27.676   1.921  52.512  1.00  0.00    -0.359 N 
HETATM   10  N3  UNL     1      26.716   2.965  50.627  1.00  0.00    -0.384 NA
HETATM   11  C8  UNL     1      26.884   3.756  49.618  1.00  0.00     0.183 C 
HETATM   12  C9  UNL     1      26.357   4.839  48.996  1.00  0.00     0.024 C 
HETATM   13  C10 UNL     1      25.117   5.345  49.694  1.00  0.00     0.139 C 
HETATM   14  C17 UNL     1      24.398   4.225  50.186  1.00  0.00     0.234 C 
HETATM   15  O1  UNL     1      24.432   3.165  49.534  1.00  0.00    -0.272 OA
HETATM   16  N4  UNL     1      23.579   3.554  51.089  1.00  0.00    -0.324 N 
HETATM   17  C18 UNL     1      23.235   4.609  52.003  1.00  0.00     0.155 C 
HETATM   18  C19 UNL     1      22.982   2.231  51.398  1.00  0.00     0.277 C 
HETATM   19  O2  UNL     1      21.755   2.373  51.928  1.00  0.00    -0.352 OA
HETATM   20  H8  UNL     1      25.612   0.649  51.559  1.00  0.00     0.170 HD
HETATM   21  H9  UNL     1      28.518   1.317  52.489  1.00  0.00     0.160 HD
HETATM   22  H10 UNL     1      28.419   1.693  53.188  1.00  0.00     0.160 HD
ENDROOT
BRANCH  13  23
HETATM   23  C11 UNL     1      24.452   6.428  49.001  1.00  0.00     0.002 A 
HETATM   24  C12 UNL     1      24.963   7.680  49.353  1.00  0.00     0.043 A 
HETATM   25 CL1  UNL     1      26.243   8.098  50.469  1.00  0.00    -0.084 Cl
HETATM   26  C13 UNL     1      24.421   8.831  48.765  1.00  0.00     0.024 A 
HETATM   27  C14 UNL     1      23.396   8.792  47.847  1.00  0.00     0.003 A 
HETATM   28  C15 UNL     1      22.895   7.533  47.507  1.00  0.00     0.024 A 
HETATM   29  C16 UNL     1      23.416   6.424  48.071  1.00  0.00     0.043 A 
HETATM   30 CL2  UNL     1      22.814   4.820  47.689  1.00  0.00    -0.084 Cl
ENDBRANCH  13  23
TORSDOF 1
ENDMDL
MODEL 2
REMARK VINA RESULT:      -8.5      2.884      7.326
REMARK  1 active torsions:
REMARK  status: ('A' for Active; 'I' for Inactive)
REMARK       I    between atoms: C7_8  and  N2_9 
REMARK    1  A    between atoms: C10_13  and  C11_14 
ROOT
HETATM    1  C1  UNL     1      25.573   6.541  50.076  1.00  0.00     0.044 C 
HETATM    2  C2  UNL     1      24.522   6.980  51.080  1.00  0.00     0.143 C 
HETATM    3  C3  UNL     1      23.785   8.121  50.420  1.00  0.00     0.004 C 
HETATM    4  C4  UNL     1      22.809   8.147  49.535  1.00  0.00     0.001 C 
HETATM    5  C5  UNL     1      22.192   6.943  48.972  1.00  0.00     0.029 C 
HETATM    6  C6  UNL     1      22.415   5.708  49.379  1.00  0.00     0.061 C 
HETATM    7  N1  UNL     1      21.636   4.777  48.599  1.00  0.00    -0.316 N 
HETATM    8  C7  UNL     1      20.687   3.753  48.231  1.00  0.00     0.252 C 
HETATM    9  N2  UNL     1      19.541   4.197  47.517  1.00  0.00    -0.359 N 
HETATM   10  N3  UNL     1      20.956   2.631  48.570  1.00  0.00    -0.384 NA
HETATM   11  C8  UNL     1      21.163   1.396  48.892  1.00  0.00     0.183 C 
HETATM   12  C9  UNL     1      21.481   0.591  49.935  1.00  0.00     0.024 C 
HETATM   13  C10 UNL     1      21.679   1.372  51.213  1.00  0.00     0.139 C 
HETATM   14  C17 UNL     1      22.295   2.607  50.885  1.00  0.00     0.234 C 
HETATM   15  O1  UNL     1      23.099   2.636  49.934  1.00  0.00    -0.272 OA
HETATM   16  N4  UNL     1      22.545   3.968  51.037  1.00  0.00    -0.324 N 
HETATM   17  C18 UNL     1      21.789   4.267  52.223  1.00  0.00     0.155 C 
HETATM   18  C19 UNL     1      23.274   5.117  50.446  1.00  0.00     0.277 C 
HETATM   19  O2  UNL     1      23.712   5.950  51.406  1.00  0.00    -0.352 OA
HETATM   20  H8  UNL     1      22.027   4.963  47.641  1.00  0.00     0.170 HD
HETATM   21  H9  UNL     1      19.227   4.140  46.530  1.00  0.00     0.160 HD
HETATM   22  H10 UNL     1      18.707   4.520  47.005  1.00  0.00     0.160 HD
ENDROOT
BRANCH  13  23
HETATM   23  C11 UNL     1      22.134   0.570  52.329  1.00  0.00     0.002 A 
HETATM   24  C12 UNL     1      21.079  -0.035  53.016  1.00  0.00     0.043 A 
HETATM   25 CL1  UNL     1      19.356   0.041  52.723  1.00  0.00    -0.084 Cl
HETATM   26  C13 UNL     1      21.358  -0.846  54.125  1.00  0.00     0.024 A 
HETATM   27  C14 UNL     1      22.637  -1.080  54.579  1.00  0.00     0.003 A 
HETATM   28  C15 UNL     1      23.681  -0.466  53.882  1.00  0.00     0.024 A 
HETATM   29  C16 UNL     1      23.413   0.314  52.815  1.00  0.00     0.043 A 
HETATM   30 CL2  UNL     1      24.687   1.119  51.913  1.00  0.00    -0.084 Cl
ENDBRANCH  13  23
TORSDOF 1
ENDMDL
MODEL 3
REMARK VINA RESULT:      -8.4      3.710      6.306
REMARK  1 active torsions:
REMARK  status: ('A' for Active; 'I' for Inactive)
REMARK       I    between atoms: C7_8  and  N2_9 
REMARK    1  A    between atoms: C10_13  and  C11_14 
ROOT
HETATM    1  C1  UNL     1      17.409   0.812  51.624  1.00  0.00     0.044 C 
HETATM    2  C2  UNL     1      18.012   0.614  50.244  1.00  0.00     0.143 C 
HETATM    3  C3  UNL     1      17.248   1.547  49.334  1.00  0.00     0.004 C 
HETATM    4  C4  UNL     1      17.365   2.837  49.092  1.00  0.00     0.001 C 
HETATM    5  C5  UNL     1      18.369   3.694  49.730  1.00  0.00     0.029 C 
HETATM    6  C6  UNL     1      19.361   3.273  50.490  1.00  0.00     0.061 C 
HETATM    7  N1  UNL     1      20.151   4.392  50.945  1.00  0.00    -0.316 N 
HETATM    8  C7  UNL     1      21.263   5.284  51.174  1.00  0.00     0.252 C 
HETATM    9  N2  UNL     1      21.217   6.524  50.481  1.00  0.00    -0.359 N 
HETATM   10  N3  UNL     1      22.119   4.887  51.919  1.00  0.00    -0.384 NA
HETATM   11  C8  UNL     1      23.086   4.544  52.707  1.00  0.00     0.183 C 
HETATM   12  C9  UNL     1      23.959   3.541  52.971  1.00  0.00     0.024 C 
HETATM   13  C10 UNL     1      23.779   2.372  52.032  1.00  0.00     0.139 C 
HETATM   14  C17 UNL     1      22.393   2.231  51.763  1.00  0.00     0.234 C 
HETATM   15  O1  UNL     1      21.581   2.518  52.661  1.00  0.00    -0.272 OA
HETATM   16  N4  UNL     1      21.291   1.917  50.973  1.00  0.00    -0.324 N 
HETATM   17  C18 UNL     1      21.924   1.403  49.789  1.00  0.00     0.155 C 
HETATM   18  C19 UNL     1      19.807   1.924  50.944  1.00  0.00     0.277 C 
HETATM   19  O2  UNL     1      19.338   0.866  50.261  1.00  0.00    -0.352 OA
HETATM   20  H8  UNL     1      19.424   4.925  51.488  1.00  0.00     0.170 HD
HETATM   21  H9  UNL     1      21.021   7.506  50.752  1.00  0.00     0.160 HD
HETATM   22  H10 UNL     1      21.186   7.420  49.974  1.00  0.00     0.160 HD
ENDROOT
BRANCH  13  23
HETATM   23  C11 UNL     1      24.610   1.229  52.348  1.00  0.00     0.002 A 
HETATM   24  C12 UNL     1      25.870   1.304  51.748  1.00  0.00     0.043 A 
HETATM   25 CL1  UNL     1      26.549   2.538  50.711  1.00  0.00    -0.084 Cl
HETATM   26  C13 UNL     1      26.792   0.270  51.959  1.00  0.00     0.024 A 
HETATM   27  C14 UNL     1      26.517  -0.832  52.737  1.00  0.00     0.003 A 
HETATM   28  C15 UNL     1      25.252  -0.892  53.329  1.00  0.00     0.024 A 
HETATM   29  C16 UNL     1      24.365   0.103  53.127  1.00  0.00     0.043 A 
HETATM   30 CL2  UNL     1      22.758   0.069  53.836  1.00  0.00    -0.084 Cl
ENDBRANCH  13  23
TORSDOF 1
ENDMDL
MODEL 4
REMARK VINA RESULT:      -8.4      2.952      6.470
REMARK  1 active torsions:
REMARK  status: ('A' for Active; 'I' for Inactive)
REMARK       I    between atoms: C7_8  and  N2_9 
REMARK    1  A    between atoms: C10_13  and  C11_14 
ROOT
HETATM    1  C1  UNL     1      20.404   3.242  47.186  1.00  0.00     0.044 C 
HETATM    2  C2  UNL     1      21.819   3.252  46.635  1.00  0.00     0.143 C 
HETATM    3  C3  UNL     1      21.945   4.552  45.877  1.00  0.00     0.004 C 
HETATM    4  C4  UNL     1      22.194   5.785  46.272  1.00  0.00     0.001 C 
HETATM    5  C5  UNL     1      22.422   6.157  47.671  1.00  0.00     0.029 C 
HETATM    6  C6  UNL     1      22.560   5.313  48.674  1.00  0.00     0.061 C 
HETATM    7  N1  UNL     1      22.771   6.032  49.907  1.00  0.00    -0.316 N 
HETATM    8  C7  UNL     1      23.369   6.514  51.130  1.00  0.00     0.252 C 
HETATM    9  N2  UNL     1      23.832   7.857  51.107  1.00  0.00    -0.359 N 
HETATM   10  N3  UNL     1      23.423   5.730  52.040  1.00  0.00    -0.384 NA
HETATM   11  C8  UNL     1      23.523   4.957  53.072  1.00  0.00     0.183 C 
HETATM   12  C9  UNL     1      23.941   3.729  53.465  1.00  0.00     0.024 C 
HETATM   13  C10 UNL     1      24.501   2.927  52.314  1.00  0.00     0.139 C 
HETATM   14  C17 UNL     1      23.739   3.226  51.155  1.00  0.00     0.234 C 
HETATM   15  O1  UNL     1      22.527   3.475  51.289  1.00  0.00    -0.272 OA
HETATM   16  N4  UNL     1      23.550   3.424  49.790  1.00  0.00    -0.324 N 
HETATM   17  C18 UNL     1      24.846   3.083  49.269  1.00  0.00     0.155 C 
HETATM   18  C19 UNL     1      22.546   3.824  48.773  1.00  0.00     0.277 C 
HETATM   19  O2  UNL     1      22.722   3.136  47.632  1.00  0.00    -0.352 OA
HETATM   20  H8  UNL     1      21.874   6.579  49.960  1.00  0.00     0.170 HD
HETATM   21  H9  UNL     1      23.496   8.753  51.507  1.00  0.00     0.160 HD
HETATM   22  H10 UNL     1      24.173   8.829  51.088  1.00  0.00     0.160 HD
ENDROOT
BRANCH  13  23
HETATM   23  C11 UNL     1      24.852   1.566  52.660  1.00  0.00     0.002 A 
HETATM   24  C12 UNL     1      26.220   1.317  52.524  1.00  0.00     0.043 A 
HETATM   25 CL1  UNL     1      27.511   2.382  52.015  1.00  0.00    -0.084 Cl
HETATM   26  C13 UNL     1      26.718   0.041  52.823  1.00  0.00     0.024 A 
HETATM   27  C14 UNL     1      25.917  -0.995  53.248  1.00  0.00     0.003 A 
HETATM   28  C15 UNL     1      24.551  -0.730  53.377  1.00  0.00     0.024 A 
HETATM   29  C16 UNL     1      24.071   0.497  53.091  1.00  0.00     0.043 A 
HETATM   30 CL2  UNL     1      22.362   0.878  53.223  1.00  0.00    -0.084 Cl
ENDBRANCH  13  23
TORSDOF 1
ENDMDL
MODEL 5
REMARK VINA RESULT:      -8.2      1.922      4.100
REMARK  1 active torsions:
REMARK  status: ('A' for Active; 'I' for Inactive)
REMARK       I    between atoms: C7_8  and  N2_9 
REMARK    1  A    between atoms: C10_13  and  C11_14 
ROOT
HETATM    1  C1  UNL     1      27.270   2.289  53.504  1.00  0.00     0.044 C 
HETATM    2  C2  UNL     1      27.160   1.547  52.183  1.00  0.00     0.143 C 
HETATM    3  C3  UNL     1      26.778   0.132  52.548  1.00  0.00     0.004 C 
HETATM    4  C4  UNL     1      25.619  -0.422  52.843  1.00  0.00     0.001 C 
HETATM    5  C5  UNL     1      24.352   0.315  52.872  1.00  0.00     0.029 C 
HETATM    6  C6  UNL     1      24.181   1.558  52.465  1.00  0.00     0.061 C 
HETATM    7  N1  UNL     1      22.805   1.956  52.639  1.00  0.00    -0.316 N 
HETATM    8  C7  UNL     1      21.461   2.406  52.363  1.00  0.00     0.252 C 
HETATM    9  N2  UNL     1      20.440   1.425  52.483  1.00  0.00    -0.359 N 
HETATM   10  N3  UNL     1      21.341   3.562  52.052  1.00  0.00    -0.384 NA
HETATM   11  C8  UNL     1      21.117   4.789  51.711  1.00  0.00     0.183 C 
HETATM   12  C9  UNL     1      21.517   5.763  50.857  1.00  0.00     0.024 C 
HETATM   13  C10 UNL     1      22.633   5.298  49.952  1.00  0.00     0.139 C 
HETATM   14  C17 UNL     1      23.476   4.434  50.697  1.00  0.00     0.234 C 
HETATM   15  O1  UNL     1      23.630   4.657  51.912  1.00  0.00    -0.272 OA
HETATM   16  N4  UNL     1      24.332   3.350  50.866  1.00  0.00    -0.324 N 
HETATM   17  C18 UNL     1      24.473   2.882  49.513  1.00  0.00     0.155 C 
HETATM   18  C19 UNL     1      25.095   2.583  51.882  1.00  0.00     0.277 C 
HETATM   19  O2  UNL     1      26.258   2.143  51.374  1.00  0.00    -0.352 OA
HETATM   20  H8  UNL     1      22.712   1.855  53.682  1.00  0.00     0.170 HD
HETATM   21  H9  UNL     1      19.695   1.227  53.176  1.00  0.00     0.160 HD
HETATM   22  H10 UNL     1      19.701   0.712  52.564  1.00  0.00     0.160 HD
ENDROOT
BRANCH  13  23
HETATM   23  C11 UNL     1      23.173   6.338  49.101  1.00  0.00     0.002 A 
HETATM   24  C12 UNL     1      23.039   6.040  47.743  1.00  0.00     0.043 A 
HETATM   25 CL1  UNL     1      22.336   4.641  46.964  1.00  0.00    -0.084 Cl
HETATM   26  C13 UNL     1      23.515   6.951  46.791  1.00  0.00     0.024 A 
HETATM   27  C14 UNL     1      24.119   8.142  47.129  1.00  0.00     0.003 A 
HETATM   28  C15 UNL     1      24.247   8.424  48.492  1.00  0.00     0.024 A 
HETATM   29  C16 UNL     1      23.788   7.548  49.409  1.00  0.00     0.043 A 
HETATM   30 CL2  UNL     1      23.937   7.848  51.133  1.00  0.00    -0.084 Cl
ENDBRANCH  13  23
TORSDOF 1
ENDMDL
MODEL 6
REMARK VINA RESULT:      -8.2      6.289      8.863
REMARK  1 active torsions:
REMARK  status: ('A' for Active; 'I' for Inactive)
REMARK       I    between atoms: C7_8  and  N2_9 
REMARK    1  A    between atoms: C10_13  and  C11_14 
ROOT
HETATM    1  C1  UNL     1      26.101   5.801  49.425  1.00  0.00     0.044 C 
HETATM    2  C2  UNL     1      25.869   6.680  48.208  1.00  0.00     0.143 C 
HETATM    3  C3  UNL     1      25.149   7.902  48.726  1.00  0.00     0.004 C 
HETATM    4  C4  UNL     1      25.582   8.999  49.314  1.00  0.00     0.001 C 
HETATM    5  C5  UNL     1      26.995   9.262  49.600  1.00  0.00     0.029 C 
HETATM    6  C6  UNL     1      28.009   8.531  49.181  1.00  0.00     0.061 C 
HETATM    7  N1  UNL     1      29.254   9.086  49.651  1.00  0.00    -0.316 N 
HETATM    8  C7  UNL     1      30.575   9.670  49.675  1.00  0.00     0.252 C 
HETATM    9  N2  UNL     1      30.646  11.030  50.083  1.00  0.00    -0.359 N 
HETATM   10  N3  UNL     1      31.480   8.952  49.341  1.00  0.00    -0.384 NA
HETATM   11  C8  UNL     1      32.514   8.254  48.998  1.00  0.00     0.183 C 
HETATM   12  C9  UNL     1      32.994   7.442  48.025  1.00  0.00     0.024 C 
HETATM   13  C10 UNL     1      31.996   7.247  46.908  1.00  0.00     0.139 C 
HETATM   14  C17 UNL     1      30.698   7.199  47.478  1.00  0.00     0.234 C 
HETATM   15  O1  UNL     1      30.564   6.698  48.610  1.00  0.00    -0.272 OA
HETATM   16  N4  UNL     1      29.324   7.418  47.498  1.00  0.00    -0.324 N 
HETATM   17  C18 UNL     1      29.097   7.939  46.177  1.00  0.00     0.155 C 
HETATM   18  C19 UNL     1      28.111   7.298  48.346  1.00  0.00     0.277 C 
HETATM   19  O2  UNL     1      27.039   6.976  47.602  1.00  0.00    -0.352 OA
HETATM   20  H8  UNL     1      29.109   9.017  50.691  1.00  0.00     0.170 HD
HETATM   21  H9  UNL     1      30.959  11.520  50.941  1.00  0.00     0.160 HD
HETATM   22  H10 UNL     1      30.696  12.017  50.372  1.00  0.00     0.160 HD
ENDROOT
BRANCH  13  23
HETATM   23  C11 UNL     1      32.417   6.295  45.901  1.00  0.00     0.002 A 
HETATM   24  C12 UNL     1      32.463   6.857  44.623  1.00  0.00     0.043 A 
HETATM   25 CL1  UNL     1      32.097   8.484  44.096  1.00  0.00    -0.084 Cl
HETATM   26  C13 UNL     1      32.854   6.060  43.538  1.00  0.00     0.024 A 
HETATM   27  C14 UNL     1      33.199   4.733  43.668  1.00  0.00     0.003 A 
HETATM   28  C15 UNL     1      33.146   4.187  44.953  1.00  0.00     0.024 A 
HETATM   29  C16 UNL     1      32.771   4.953  45.998  1.00  0.00     0.043 A 
HETATM   30 CL2  UNL     1      32.674   4.311  47.630  1.00  0.00    -0.084 Cl
ENDBRANCH  13  23
TORSDOF 1
ENDMDL
MODEL 7
REMARK VINA RESULT:      -8.1      2.643      7.145
REMARK  1 active torsions:
REMARK  status: ('A' for Active; 'I' for Inactive)
REMARK       I    between atoms: C7_8  and  N2_9 
REMARK    1  A    between atoms: C10_13  and  C11_14 
ROOT
HETATM    1  C1  UNL     1      26.205   6.879  49.028  1.00  0.00     0.044 C 
HETATM    2  C2  UNL     1      25.597   7.340  50.341  1.00  0.00     0.143 C 
HETATM    3  C3  UNL     1      24.701   8.502  49.983  1.00  0.00     0.004 C 
HETATM    4  C4  UNL     1      23.473   8.556  49.507  1.00  0.00     0.001 C 
HETATM    5  C5  UNL     1      22.665   7.370  49.210  1.00  0.00     0.029 C 
HETATM    6  C6  UNL     1      22.988   6.128  49.517  1.00  0.00     0.061 C 
HETATM    7  N1  UNL     1      21.958   5.220  49.074  1.00  0.00    -0.316 N 
HETATM    8  C7  UNL     1      20.915   4.222  49.076  1.00  0.00     0.252 C 
HETATM    9  N2  UNL     1      19.600   4.697  48.819  1.00  0.00    -0.359 N 
HETATM   10  N3  UNL     1      21.260   3.092  49.302  1.00  0.00    -0.384 NA
HETATM   11  C8  UNL     1      21.538   1.851  49.534  1.00  0.00     0.183 C 
HETATM   12  C9  UNL     1      22.190   1.034  50.398  1.00  0.00     0.024 C 
HETATM   13  C10 UNL     1      22.852   1.805  51.515  1.00  0.00     0.139 C 
HETATM   14  C17 UNL     1      23.340   3.025  50.981  1.00  0.00     0.234 C 
HETATM   15  O1  UNL     1      23.749   3.038  49.805  1.00  0.00    -0.272 OA
HETATM   16  N4  UNL     1      23.662   4.379  51.026  1.00  0.00    -0.324 N 
HETATM   17  C18 UNL     1      23.390   4.692  52.403  1.00  0.00     0.155 C 
HETATM   18  C19 UNL     1      24.158   5.512  50.207  1.00  0.00     0.277 C 
HETATM   19  O2  UNL     1      24.932   6.329  50.941  1.00  0.00    -0.352 OA
HETATM   20  H8  UNL     1      21.983   5.400  48.038  1.00  0.00     0.170 HD
HETATM   21  H9  UNL     1      18.951   4.652  48.011  1.00  0.00     0.160 HD
HETATM   22  H10 UNL     1      18.647   5.044  48.639  1.00  0.00     0.160 HD
ENDROOT
BRANCH  13  23
HETATM   23  C11 UNL     1      23.658   0.987  52.397  1.00  0.00     0.002 A 
HETATM   24  C12 UNL     1      22.890   0.318  53.354  1.00  0.00     0.043 A 
HETATM   25 CL1  UNL     1      21.161   0.334  53.618  1.00  0.00    -0.084 Cl
HETATM   26  C13 UNL     1      23.526  -0.515  54.284  1.00  0.00     0.024 A 
HETATM   27  C14 UNL     1      24.889  -0.711  54.305  1.00  0.00     0.003 A 
HETATM   28  C15 UNL     1      25.643  -0.034  53.343  1.00  0.00     0.024 A 
HETATM   29  C16 UNL     1      25.032   0.768  52.447  1.00  0.00     0.043 A 
HETATM   30 CL2  UNL     1      25.934   1.652  51.227  1.00  0.00    -0.084 Cl
ENDBRANCH  13  23
TORSDOF 1
ENDMDL
MODEL 8
REMARK VINA RESULT:      -7.8      3.103      6.631
REMARK  1 active torsions:
REMARK  status: ('A' for Active; 'I' for Inactive)
REMARK       I    between atoms: C7_8  and  N2_9 
REMARK    1  A    between atoms: C10_13  and  C11_14 
ROOT
HETATM    1  C1  UNL     1      18.902   4.520  47.106  1.00  0.00     0.044 C 
HETATM    2  C2  UNL     1      19.916   3.580  46.477  1.00  0.00     0.143 C 
HETATM    3  C3  UNL     1      20.558   4.369  45.362  1.00  0.00     0.004 C 
HETATM    4  C4  UNL     1      21.529   5.261  45.356  1.00  0.00     0.001 C 
HETATM    5  C5  UNL     1      22.240   5.693  46.562  1.00  0.00     0.029 C 
HETATM    6  C6  UNL     1      22.117   5.151  47.758  1.00  0.00     0.061 C 
HETATM    7  N1  UNL     1      22.967   5.830  48.705  1.00  0.00    -0.316 N 
HETATM    8  C7  UNL     1      23.995   6.093  49.684  1.00  0.00     0.252 C 
HETATM    9  N2  UNL     1      25.101   6.862  49.233  1.00  0.00    -0.359 N 
HETATM   10  N3  UNL     1      23.817   5.630  50.780  1.00  0.00    -0.384 NA
HETATM   11  C8  UNL     1      23.709   5.172  51.984  1.00  0.00     0.183 C 
HETATM   12  C9  UNL     1      23.457   4.043  52.692  1.00  0.00     0.024 C 
HETATM   13  C10 UNL     1      23.198   2.858  51.792  1.00  0.00     0.139 C 
HETATM   14  C17 UNL     1      22.485   3.314  50.654  1.00  0.00     0.234 C 
HETATM   15  O1  UNL     1      21.681   4.254  50.794  1.00  0.00    -0.272 OA
HETATM   16  N4  UNL     1      22.127   3.310  49.309  1.00  0.00    -0.324 N 
HETATM   17  C18 UNL     1      22.858   2.172  48.821  1.00  0.00     0.155 C 
HETATM   18  C19 UNL     1      21.308   4.017  48.293  1.00  0.00     0.277 C 
HETATM   19  O2  UNL     1      20.806   3.151  47.398  1.00  0.00    -0.352 OA
HETATM   20  H8  UNL     1      22.562   6.800  48.657  1.00  0.00     0.170 HD
HETATM   21  H9  UNL     1      25.418   7.840  49.373  1.00  0.00     0.160 HD
HETATM   22  H10 UNL     1      25.906   7.414  48.903  1.00  0.00     0.160 HD
ENDROOT
BRANCH  13  23
HETATM   23  C11 UNL     1      22.810   1.656  52.500  1.00  0.00     0.002 A 
HETATM   24  C12 UNL     1      23.866   0.750  52.634  1.00  0.00     0.043 A 
HETATM   25 CL1  UNL     1      25.523   0.868  52.087  1.00  0.00    -0.084 Cl
HETATM   26  C13 UNL     1      23.647  -0.464  53.298  1.00  0.00     0.024 A 
HETATM   27  C14 UNL     1      22.428  -0.818  53.830  1.00  0.00     0.003 A 
HETATM   28  C15 UNL     1      21.381   0.097  53.686  1.00  0.00     0.024 A 
HETATM   29  C16 UNL     1      21.591   1.267  53.049  1.00  0.00     0.043 A 
HETATM   30 CL2  UNL     1      20.308   2.445  52.828  1.00  0.00    -0.084 Cl
ENDBRANCH  13  23
TORSDOF 1
ENDMDL
MODEL 9
REMARK VINA RESULT:      -7.5      8.936     12.129
REMARK  1 active torsions:
REMARK  status: ('A' for Active; 'I' for Inactive)
REMARK       I    between atoms: C7_8  and  N2_9 
REMARK    1  A    between atoms: C10_13  and  C11_14 
ROOT
HETATM    1  C1  UNL     1      30.889  10.009  42.718  1.00  0.00     0.044 C 
HETATM    2  C2  UNL     1      32.313  10.431  43.032  1.00  0.00     0.143 C 
HETATM    3  C3  UNL     1      32.271  11.936  43.146  1.00  0.00     0.004 C 
HETATM    4  C4  UNL     1      31.920  12.738  44.132  1.00  0.00     0.001 C 
HETATM    5  C5  UNL     1      31.461  12.261  45.440  1.00  0.00     0.029 C 
HETATM    6  C6  UNL     1      31.485  11.007  45.848  1.00  0.00     0.061 C 
HETATM    7  N1  UNL     1      30.957  10.908  47.187  1.00  0.00    -0.316 N 
HETATM    8  C7  UNL     1      30.847  10.648  48.604  1.00  0.00     0.252 C 
HETATM    9  N2  UNL     1      30.801  11.793  49.444  1.00  0.00    -0.359 N 
HETATM   10  N3  UNL     1      30.813   9.491  48.931  1.00  0.00    -0.384 NA
HETATM   11  C8  UNL     1      30.769   8.277  49.374  1.00  0.00     0.183 C 
HETATM   12  C9  UNL     1      31.395   7.077  49.299  1.00  0.00     0.024 C 
HETATM   13  C10 UNL     1      32.584   7.116  48.369  1.00  0.00     0.139 C 
HETATM   14  C17 UNL     1      32.266   7.968  47.280  1.00  0.00     0.234 C 
HETATM   15  O1  UNL     1      31.086   8.011  46.884  1.00  0.00    -0.272 OA
HETATM   16  N4  UNL     1      32.553   8.894  46.282  1.00  0.00    -0.324 N 
HETATM   17  C18 UNL     1      33.982   9.003  46.394  1.00  0.00     0.155 C 
HETATM   18  C19 UNL     1      31.938   9.731  45.222  1.00  0.00     0.277 C 
HETATM   19  O2  UNL     1      32.753   9.831  44.158  1.00  0.00    -0.352 OA
HETATM   20  H8  UNL     1      29.980  11.263  47.030  1.00  0.00     0.170 HD
HETATM   21  H9  UNL     1      30.058  12.275  49.983  1.00  0.00     0.160 HD
HETATM   22  H10 UNL     1      30.775  12.624  50.053  1.00  0.00     0.160 HD
ENDROOT
BRANCH  13  23
HETATM   23  C11 UNL     1      33.214   5.828  48.165  1.00  0.00     0.002 A 
HETATM   24  C12 UNL     1      32.295   4.830  47.833  1.00  0.00     0.043 A 
HETATM   25 CL1  UNL     1      30.559   4.922  47.638  1.00  0.00    -0.084 Cl
HETATM   26  C13 UNL     1      32.752   3.525  47.604  1.00  0.00     0.024 A 
HETATM   27  C14 UNL     1      34.079   3.170  47.692  1.00  0.00     0.003 A 
HETATM   28  C15 UNL     1      34.986   4.180  48.027  1.00  0.00     0.024 A 
HETATM   29  C16 UNL     1      34.547   5.436  48.246  1.00  0.00     0.043 A 
HETATM   30 CL2  UNL     1      35.643   6.737  48.683  1.00  0.00    -0.084 Cl
ENDBRANCH  13  23
TORSDOF 1
ENDMDL
