MODEL 1
REMARK VINA RESULT:      -8.5      0.000      0.000
REMARK  4 active torsions:
REMARK  status: ('A' for Active; 'I' for Inactive)
REMARK    1  A    between atoms: C1_2  and  C2_3 
REMARK    2  A    between atoms: C2_3  and  C3_4 
REMARK    3  A    between atoms: C3_4  and  C4_5 
REMARK       I    between atoms: C4_5  and  N1_7 
REMARK    4  A    between atoms: N1_7  and  C5_8 
ROOT
HETATM    1  C5  UNL     1      24.487  -0.245  53.698  1.00  0.00     0.061 A 
HETATM    2  C6  UNL     1      24.192  -1.205  54.634  1.00  0.00     0.032 A 
HETATM    3  C7  UNL     1      22.902  -1.298  55.075  1.00  0.00     0.003 A 
HETATM    4  C8  UNL     1      21.942  -0.440  54.578  1.00  0.00     0.012 A 
HETATM    5  C9  UNL     1      22.187   0.545  53.633  1.00  0.00    -0.001 A 
HETATM    6  C10 UNL     1      23.521   0.608  53.207  1.00  0.00     0.064 A 
HETATM    7  N2  UNL     1      24.149   1.489  52.249  1.00  0.00    -0.385 N 
HETATM    8  C11 UNL     1      23.797   2.304  51.069  1.00  0.00     0.162 C 
HETATM    9  C12 UNL     1      22.782   1.576  50.328  1.00  0.00     0.290 C 
HETATM   10  N3  UNL     1      22.306   2.008  49.077  1.00  0.00     0.099 N 
HETATM   11  C13 UNL     1      21.004   1.342  48.863  1.00  0.00     0.311 C 
HETATM   12  C14 UNL     1      20.515   1.043  50.228  1.00  0.00    -0.004 C 
HETATM   13  C15 UNL     1      19.434   0.345  50.626  1.00  0.00     0.011 C 
HETATM   14  C16 UNL     1      19.057  -0.035  52.012  1.00  0.00    -0.001 C 
HETATM   15  C17 UNL     1      19.763   0.374  53.090  1.00  0.00     0.005 C 
HETATM   16  C18 UNL     1      20.903   1.242  53.377  1.00  0.00     0.166 C 
HETATM   17  N4  UNL     1      21.171   2.202  52.309  1.00  0.00    -0.277 NA
HETATM   18  C19 UNL     1      21.495   1.695  51.132  1.00  0.00     0.072 C 
HETATM   19  H10 UNL     1      25.180   1.549  52.490  1.00  0.00     0.159 HD
HETATM   20  H14 UNL     1      22.245   3.027  49.040  1.00  0.00     0.317 HD
ENDROOT
BRANCH   1  21
HETATM   21  N1  UNL     1      25.828  -0.087  53.186  1.00  0.00    -0.325 N 
HETATM   22  C4  UNL     1      26.839   0.386  54.062  1.00  0.00     0.222 C 
HETATM   23  O2  UNL     1      26.402   0.611  55.212  1.00  0.00    -0.273 OA
HETATM   24  H6  UNL     1      26.051  -0.321  52.173  1.00  0.00     0.169 HD
BRANCH  22  25
HETATM   25  C3  UNL     1      28.203   0.526  53.473  1.00  0.00     0.110 C 
BRANCH  25  26
HETATM   26  C2  UNL     1      29.214  -0.387  54.115  1.00  0.00     0.078 C 
BRANCH  26  27
HETATM   27  C1  UNL     1      29.346  -1.667  53.367  1.00  0.00     0.231 C 
HETATM   28  O1  UNL     1      28.783  -2.737  53.293  1.00  0.00    -0.307 OA
ENDBRANCH  26  27
ENDBRANCH  25  26
ENDBRANCH  22  25
ENDBRANCH   1  21
TORSDOF 4
ENDMDL
MODEL 2
REMARK VINA RESULT:      -8.3      2.111      3.190
REMARK  4 active torsions:
REMARK  status: ('A' for Active; 'I' for Inactive)
REMARK    1  A    between atoms: C1_2  and  C2_3 
REMARK    2  A    between atoms: C2_3  and  C3_4 
REMARK    3  A    between atoms: C3_4  and  C4_5 
REMARK       I    between atoms: C4_5  and  N1_7 
REMARK    4  A    between atoms: N1_7  and  C5_8 
ROOT
HETATM    1  C5  UNL     1      24.974  -0.446  53.783  1.00  0.00     0.061 A 
HETATM    2  C6  UNL     1      23.930  -1.333  53.876  1.00  0.00     0.032 A 
HETATM    3  C7  UNL     1      22.679  -0.888  53.551  1.00  0.00     0.003 A 
HETATM    4  C8  UNL     1      22.498   0.418  53.145  1.00  0.00     0.012 A 
HETATM    5  C9  UNL     1      23.517   1.352  53.034  1.00  0.00    -0.001 A 
HETATM    6  C10 UNL     1      24.784   0.857  53.376  1.00  0.00     0.064 A 
HETATM    7  N2  UNL     1      26.068   1.520  53.386  1.00  0.00    -0.385 N 
HETATM    8  C11 UNL     1      26.753   2.657  52.740  1.00  0.00     0.162 C 
HETATM    9  C12 UNL     1      26.291   2.715  51.365  1.00  0.00     0.290 C 
HETATM   10  N3  UNL     1      26.835   3.607  50.423  1.00  0.00     0.099 N 
HETATM   11  C13 UNL     1      25.845   3.731  49.333  1.00  0.00     0.311 C 
HETATM   12  C14 UNL     1      24.551   3.393  49.969  1.00  0.00    -0.004 C 
HETATM   13  C15 UNL     1      23.331   3.238  49.420  1.00  0.00     0.011 C 
HETATM   14  C16 UNL     1      22.087   2.772  50.086  1.00  0.00    -0.001 C 
HETATM   15  C17 UNL     1      22.031   2.516  51.412  1.00  0.00     0.005 C 
HETATM   16  C18 UNL     1      22.905   2.623  52.578  1.00  0.00     0.166 C 
HETATM   17  N4  UNL     1      24.014   3.554  52.375  1.00  0.00    -0.277 NA
HETATM   18  C19 UNL     1      24.866   3.250  51.412  1.00  0.00     0.072 C 
HETATM   19  H10 UNL     1      26.690   1.011  54.078  1.00  0.00     0.159 HD
HETATM   20  H14 UNL     1      27.066   4.502  50.858  1.00  0.00     0.317 HD
ENDROOT
BRANCH   1  21
HETATM   21  N1  UNL     1      26.324  -0.845  54.110  1.00  0.00    -0.325 N 
HETATM   22  C4  UNL     1      27.203  -1.198  53.054  1.00  0.00     0.222 C 
HETATM   23  O2  UNL     1      26.657  -1.109  51.933  1.00  0.00    -0.273 OA
HETATM   24  H6  UNL     1      26.649  -0.874  55.122  1.00  0.00     0.169 HD
BRANCH  22  25
HETATM   25  C3  UNL     1      28.582  -1.600  53.457  1.00  0.00     0.110 C 
BRANCH  25  26
HETATM   26  C2  UNL     1      29.601  -0.515  53.222  1.00  0.00     0.078 C 
BRANCH  26  27
HETATM   27  C1  UNL     1      29.461   0.589  54.209  1.00  0.00     0.231 C 
HETATM   28  O1  UNL     1      28.667   0.967  55.042  1.00  0.00    -0.307 OA
ENDBRANCH  26  27
ENDBRANCH  25  26
ENDBRANCH  22  25
ENDBRANCH   1  21
TORSDOF 4
ENDMDL
MODEL 3
REMARK VINA RESULT:      -8.2      1.246      1.536
REMARK  4 active torsions:
REMARK  status: ('A' for Active; 'I' for Inactive)
REMARK    1  A    between atoms: C1_2  and  C2_3 
REMARK    2  A    between atoms: C2_3  and  C3_4 
REMARK    3  A    between atoms: C3_4  and  C4_5 
REMARK       I    between atoms: C4_5  and  N1_7 
REMARK    4  A    between atoms: N1_7  and  C5_8 
ROOT
HETATM    1  C5  UNL     1      24.629   0.373  53.845  1.00  0.00     0.061 A 
HETATM    2  C6  UNL     1      24.140  -0.785  54.399  1.00  0.00     0.032 A 
HETATM    3  C7  UNL     1      22.806  -1.049  54.263  1.00  0.00     0.003 A 
HETATM    4  C8  UNL     1      21.995  -0.162  53.585  1.00  0.00     0.012 A 
HETATM    5  C9  UNL     1      22.438   1.019  53.008  1.00  0.00    -0.001 A 
HETATM    6  C10 UNL     1      23.811   1.253  53.170  1.00  0.00     0.064 A 
HETATM    7  N2  UNL     1      24.624   2.358  52.715  1.00  0.00    -0.385 N 
HETATM    8  C11 UNL     1      24.633   3.389  51.659  1.00  0.00     0.162 C 
HETATM    9  C12 UNL     1      24.088   2.783  50.458  1.00  0.00     0.290 C 
HETATM   10  N3  UNL     1      24.066   3.449  49.220  1.00  0.00     0.099 N 
HETATM   11  C13 UNL     1      23.050   2.769  48.389  1.00  0.00     0.311 C 
HETATM   12  C14 UNL     1      22.127   2.150  49.368  1.00  0.00    -0.004 C 
HETATM   13  C15 UNL     1      21.086   1.319  49.169  1.00  0.00     0.011 C 
HETATM   14  C16 UNL     1      20.270   0.623  50.197  1.00  0.00    -0.001 C 
HETATM   15  C17 UNL     1      20.451   0.827  51.522  1.00  0.00     0.005 C 
HETATM   16  C18 UNL     1      21.262   1.677  52.390  1.00  0.00     0.166 C 
HETATM   17  N4  UNL     1      21.776   2.862  51.707  1.00  0.00    -0.277 NA
HETATM   18  C19 UNL     1      22.590   2.646  50.688  1.00  0.00     0.072 C 
HETATM   19  H10 UNL     1      25.467   2.425  53.355  1.00  0.00     0.159 HD
HETATM   20  H14 UNL     1      23.880   4.446  49.344  1.00  0.00     0.317 HD
ENDROOT
BRANCH   1  21
HETATM   21  N1  UNL     1      26.027   0.718  53.949  1.00  0.00    -0.325 N 
HETATM   22  C4  UNL     1      26.922   0.237  52.958  1.00  0.00     0.222 C 
HETATM   23  O2  UNL     1      26.342  -0.453  52.091  1.00  0.00    -0.273 OA
HETATM   24  H6  UNL     1      26.378   1.319  54.753  1.00  0.00     0.169 HD
BRANCH  22  25
HETATM   25  C3  UNL     1      28.352   0.628  53.121  1.00  0.00     0.110 C 
BRANCH  25  26
HETATM   26  C2  UNL     1      29.110  -0.294  54.039  1.00  0.00     0.078 C 
BRANCH  26  27
HETATM   27  C1  UNL     1      29.409  -1.595  53.381  1.00  0.00     0.231 C 
HETATM   28  O1  UNL     1      29.028  -2.744  53.428  1.00  0.00    -0.307 OA
ENDBRANCH  26  27
ENDBRANCH  25  26
ENDBRANCH  22  25
ENDBRANCH   1  21
TORSDOF 4
ENDMDL
MODEL 4
REMARK VINA RESULT:      -7.9      3.370      6.182
REMARK  4 active torsions:
REMARK  status: ('A' for Active; 'I' for Inactive)
REMARK    1  A    between atoms: C1_2  and  C2_3 
REMARK    2  A    between atoms: C2_3  and  C3_4 
REMARK    3  A    between atoms: C3_4  and  C4_5 
REMARK       I    between atoms: C4_5  and  N1_7 
REMARK    4  A    between atoms: N1_7  and  C5_8 
ROOT
HETATM    1  C5  UNL     1      23.816   3.962  51.848  1.00  0.00     0.061 A 
HETATM    2  C6  UNL     1      22.478   4.087  52.131  1.00  0.00     0.032 A 
HETATM    3  C7  UNL     1      21.789   2.962  52.487  1.00  0.00     0.003 A 
HETATM    4  C8  UNL     1      22.441   1.748  52.553  1.00  0.00     0.012 A 
HETATM    5  C9  UNL     1      23.789   1.568  52.278  1.00  0.00    -0.001 A 
HETATM    6  C10 UNL     1      24.460   2.745  51.917  1.00  0.00     0.064 A 
HETATM    7  N2  UNL     1      25.845   2.953  51.564  1.00  0.00    -0.385 N 
HETATM    8  C11 UNL     1      27.169   2.339  51.791  1.00  0.00     0.162 C 
HETATM    9  C12 UNL     1      27.181   1.828  53.150  1.00  0.00     0.290 C 
HETATM   10  N3  UNL     1      28.337   1.288  53.742  1.00  0.00     0.099 N 
HETATM   11  C13 UNL     1      27.885   0.460  54.880  1.00  0.00     0.311 C 
HETATM   12  C14 UNL     1      26.498   0.078  54.531  1.00  0.00    -0.004 C 
HETATM   13  C15 UNL     1      25.572  -0.578  55.256  1.00  0.00     0.011 C 
HETATM   14  C16 UNL     1      24.149  -0.824  54.906  1.00  0.00    -0.001 C 
HETATM   15  C17 UNL     1      23.626  -0.459  53.713  1.00  0.00     0.005 C 
HETATM   16  C18 UNL     1      24.088   0.127  52.457  1.00  0.00     0.166 C 
HETATM   17  N4  UNL     1      25.529  -0.013  52.259  1.00  0.00    -0.277 NA
HETATM   18  C19 UNL     1      26.304   0.584  53.149  1.00  0.00     0.072 C 
HETATM   19  H10 UNL     1      25.899   3.820  50.956  1.00  0.00     0.159 HD
HETATM   20  H14 UNL     1      28.887   0.763  53.060  1.00  0.00     0.317 HD
ENDROOT
BRANCH   1  21
HETATM   21  N1  UNL     1      24.608   5.107  51.465  1.00  0.00    -0.325 N 
HETATM   22  C4  UNL     1      24.688   5.450  50.090  1.00  0.00     0.222 C 
HETATM   23  O2  UNL     1      24.025   4.672  49.369  1.00  0.00    -0.273 OA
HETATM   24  H6  UNL     1      25.122   5.680  52.199  1.00  0.00     0.169 HD
BRANCH  22  25
HETATM   25  C3  UNL     1      25.521   6.643  49.760  1.00  0.00     0.110 C 
BRANCH  25  26
HETATM   26  C2  UNL     1      26.417   6.419  48.570  1.00  0.00     0.078 C 
BRANCH  26  27
HETATM   27  C1  UNL     1      27.235   5.186  48.726  1.00  0.00     0.231 C 
HETATM   28  O1  UNL     1      28.348   4.794  48.452  1.00  0.00    -0.307 OA
ENDBRANCH  26  27
ENDBRANCH  25  26
ENDBRANCH  22  25
ENDBRANCH   1  21
TORSDOF 4
ENDMDL
MODEL 5
REMARK VINA RESULT:      -7.7      1.791      3.844
REMARK  4 active torsions:
REMARK  status: ('A' for Active; 'I' for Inactive)
REMARK    1  A    between atoms: C1_2  and  C2_3 
REMARK    2  A    between atoms: C2_3  and  C3_4 
REMARK    3  A    between atoms: C3_4  and  C4_5 
REMARK       I    between atoms: C4_5  and  N1_7 
REMARK    4  A    between atoms: N1_7  and  C5_8 
ROOT
HETATM    1  C5  UNL     1      24.753   3.010  51.561  1.00  0.00     0.061 A 
HETATM    2  C6  UNL     1      24.666   4.128  50.768  1.00  0.00     0.032 A 
HETATM    3  C7  UNL     1      23.683   4.167  49.819  1.00  0.00     0.003 A 
HETATM    4  C8  UNL     1      22.818   3.101  49.682  1.00  0.00     0.012 A 
HETATM    5  C9  UNL     1      22.863   1.951  50.455  1.00  0.00    -0.001 A 
HETATM    6  C10 UNL     1      23.884   1.950  51.416  1.00  0.00     0.064 A 
HETATM    7  N2  UNL     1      24.241   0.944  52.390  1.00  0.00    -0.385 N 
HETATM    8  C11 UNL     1      23.625  -0.174  53.131  1.00  0.00     0.162 C 
HETATM    9  C12 UNL     1      22.263   0.216  53.450  1.00  0.00     0.290 C 
HETATM   10  N3  UNL     1      21.424  -0.567  54.263  1.00  0.00     0.099 N 
HETATM   11  C13 UNL     1      20.038  -0.140  53.979  1.00  0.00     0.311 C 
HETATM   12  C14 UNL     1      20.097   0.424  52.612  1.00  0.00    -0.004 C 
HETATM   13  C15 UNL     1      19.150   1.060  51.896  1.00  0.00     0.011 C 
HETATM   14  C16 UNL     1      19.301   1.721  50.574  1.00  0.00    -0.001 C 
HETATM   15  C17 UNL     1      20.458   1.682  49.875  1.00  0.00     0.005 C 
HETATM   16  C18 UNL     1      21.775   1.060  49.987  1.00  0.00     0.166 C 
HETATM   17  N4  UNL     1      21.785  -0.094  50.883  1.00  0.00    -0.277 NA
HETATM   18  C19 UNL     1      21.479   0.142  52.147  1.00  0.00     0.072 C 
HETATM   19  H10 UNL     1      25.266   1.073  52.629  1.00  0.00     0.159 HD
HETATM   20  H14 UNL     1      21.578  -1.563  54.096  1.00  0.00     0.317 HD
ENDROOT
BRANCH   1  21
HETATM   21  N1  UNL     1      25.766   2.898  52.584  1.00  0.00    -0.325 N 
HETATM   22  C4  UNL     1      27.021   2.332  52.240  1.00  0.00     0.222 C 
HETATM   23  O2  UNL     1      27.074   1.993  51.038  1.00  0.00    -0.273 OA
HETATM   24  H6  UNL     1      25.573   3.233  53.575  1.00  0.00     0.169 HD
BRANCH  22  25
HETATM   25  C3  UNL     1      28.024   2.244  53.342  1.00  0.00     0.110 C 
BRANCH  25  26
HETATM   26  C2  UNL     1      28.479   0.834  53.608  1.00  0.00     0.078 C 
BRANCH  26  27
HETATM   27  C1  UNL     1      27.725   0.219  54.734  1.00  0.00     0.231 C 
HETATM   28  O1  UNL     1      26.714  -0.425  54.904  1.00  0.00    -0.307 OA
ENDBRANCH  26  27
ENDBRANCH  25  26
ENDBRANCH  22  25
ENDBRANCH   1  21
TORSDOF 4
ENDMDL
MODEL 6
REMARK VINA RESULT:      -7.6      3.209      5.498
REMARK  4 active torsions:
REMARK  status: ('A' for Active; 'I' for Inactive)
REMARK    1  A    between atoms: C1_2  and  C2_3 
REMARK    2  A    between atoms: C2_3  and  C3_4 
REMARK    3  A    between atoms: C3_4  and  C4_5 
REMARK       I    between atoms: C4_5  and  N1_7 
REMARK    4  A    between atoms: N1_7  and  C5_8 
ROOT
HETATM    1  C5  UNL     1      22.847   3.819  51.950  1.00  0.00     0.061 A 
HETATM    2  C6  UNL     1      21.598   4.365  52.122  1.00  0.00     0.032 A 
HETATM    3  C7  UNL     1      20.551   3.515  52.342  1.00  0.00     0.003 A 
HETATM    4  C8  UNL     1      20.767   2.153  52.386  1.00  0.00     0.012 A 
HETATM    5  C9  UNL     1      22.006   1.552  52.220  1.00  0.00    -0.001 A 
HETATM    6  C10 UNL     1      23.054   2.457  51.996  1.00  0.00     0.064 A 
HETATM    7  N2  UNL     1      24.461   2.212  51.781  1.00  0.00    -0.385 N 
HETATM    8  C11 UNL     1      25.486   1.193  52.082  1.00  0.00     0.162 C 
HETATM    9  C12 UNL     1      25.192   0.662  53.401  1.00  0.00     0.290 C 
HETATM   10  N3  UNL     1      26.044  -0.245  54.057  1.00  0.00     0.099 N 
HETATM   11  C13 UNL     1      25.234  -0.917  55.095  1.00  0.00     0.311 C 
HETATM   12  C14 UNL     1      23.842  -0.813  54.601  1.00  0.00    -0.004 C 
HETATM   13  C15 UNL     1      22.684  -1.155  55.198  1.00  0.00     0.011 C 
HETATM   14  C16 UNL     1      21.303  -0.911  54.709  1.00  0.00    -0.001 C 
HETATM   15  C17 UNL     1      21.052  -0.356  53.501  1.00  0.00     0.005 C 
HETATM   16  C18 UNL     1      21.805   0.087  52.331  1.00  0.00     0.166 C 
HETATM   17  N4  UNL     1      23.138  -0.509  52.252  1.00  0.00    -0.277 NA
HETATM   18  C19 UNL     1      23.966  -0.227  53.243  1.00  0.00     0.072 C 
HETATM   19  H10 UNL     1      24.854   3.033  51.237  1.00  0.00     0.159 HD
HETATM   20  H14 UNL     1      26.464  -0.898  53.393  1.00  0.00     0.317 HD
ENDROOT
BRANCH   1  21
HETATM   21  N1  UNL     1      24.001   4.654  51.713  1.00  0.00    -0.325 N 
HETATM   22  C4  UNL     1      24.314   5.018  50.378  1.00  0.00     0.222 C 
HETATM   23  O2  UNL     1      23.504   4.539  49.554  1.00  0.00    -0.273 OA
HETATM   24  H6  UNL     1      24.603   4.988  52.524  1.00  0.00     0.169 HD
BRANCH  22  25
HETATM   25  C3  UNL     1      25.517   5.882  50.199  1.00  0.00     0.110 C 
BRANCH  25  26
HETATM   26  C2  UNL     1      26.128   5.758  48.828  1.00  0.00     0.078 C 
BRANCH  26  27
HETATM   27  C1  UNL     1      27.245   4.775  48.815  1.00  0.00     0.231 C 
HETATM   28  O1  UNL     1      28.402   4.721  48.461  1.00  0.00    -0.307 OA
ENDBRANCH  26  27
ENDBRANCH  25  26
ENDBRANCH  22  25
ENDBRANCH   1  21
TORSDOF 4
ENDMDL
MODEL 7
REMARK VINA RESULT:      -7.5      4.983      6.909
REMARK  4 active torsions:
REMARK  status: ('A' for Active; 'I' for Inactive)
REMARK    1  A    between atoms: C1_2  and  C2_3 
REMARK    2  A    between atoms: C2_3  and  C3_4 
REMARK    3  A    between atoms: C3_4  and  C4_5 
REMARK       I    between atoms: C4_5  and  N1_7 
REMARK    4  A    between atoms: N1_7  and  C5_8 
ROOT
HETATM    1  C5  UNL     1      25.085   6.874  50.351  1.00  0.00     0.061 A 
HETATM    2  C6  UNL     1      24.115   7.780  50.704  1.00  0.00     0.032 A 
HETATM    3  C7  UNL     1      22.835   7.325  50.853  1.00  0.00     0.003 A 
HETATM    4  C8  UNL     1      22.552   5.990  50.648  1.00  0.00     0.012 A 
HETATM    5  C9  UNL     1      23.493   5.036  50.291  1.00  0.00    -0.001 A 
HETATM    6  C10 UNL     1      24.793   5.542  50.148  1.00  0.00     0.064 A 
HETATM    7  N2  UNL     1      26.018   4.865  49.792  1.00  0.00    -0.385 N 
HETATM    8  C11 UNL     1      26.614   3.515  49.840  1.00  0.00     0.162 C 
HETATM    9  C12 UNL     1      26.160   2.886  51.067  1.00  0.00     0.290 C 
HETATM   10  N3  UNL     1      26.637   1.634  51.494  1.00  0.00     0.099 N 
HETATM   11  C13 UNL     1      25.649   1.108  52.459  1.00  0.00     0.311 C 
HETATM   12  C14 UNL     1      24.382   1.781  52.094  1.00  0.00    -0.004 C 
HETATM   13  C15 UNL     1      23.184   1.761  52.708  1.00  0.00     0.011 C 
HETATM   14  C16 UNL     1      21.976   2.559  52.370  1.00  0.00    -0.001 C 
HETATM   15  C17 UNL     1      21.930   3.379  51.296  1.00  0.00     0.005 C 
HETATM   16  C18 UNL     1      22.783   3.740  50.166  1.00  0.00     0.166 C 
HETATM   17  N4  UNL     1      23.814   2.742  49.889  1.00  0.00    -0.277 NA
HETATM   18  C19 UNL     1      24.697   2.527  50.850  1.00  0.00     0.072 C 
HETATM   19  H10 UNL     1      26.674   5.583  49.369  1.00  0.00     0.159 HD
HETATM   20  H14 UNL     1      26.792   1.010  50.700  1.00  0.00     0.317 HD
ENDROOT
BRANCH   1  21
HETATM   21  N1  UNL     1      26.460   7.282  50.175  1.00  0.00    -0.325 N 
HETATM   22  C4  UNL     1      26.877   7.733  48.896  1.00  0.00     0.222 C 
HETATM   23  O2  UNL     1      25.947   7.713  48.060  1.00  0.00    -0.273 OA
HETATM   24  H6  UNL     1      27.143   7.244  50.989  1.00  0.00     0.169 HD
BRANCH  22  25
HETATM   25  C3  UNL     1      28.307   8.140  48.780  1.00  0.00     0.110 C 
BRANCH  25  26
HETATM   26  C2  UNL     1      29.051   7.370  47.720  1.00  0.00     0.078 C 
BRANCH  26  27
HETATM   27  C1  UNL     1      29.441   6.017  48.200  1.00  0.00     0.231 C 
HETATM   28  O1  UNL     1      28.952   4.913  48.298  1.00  0.00    -0.307 OA
ENDBRANCH  26  27
ENDBRANCH  25  26
ENDBRANCH  22  25
ENDBRANCH   1  21
TORSDOF 4
ENDMDL
MODEL 8
REMARK VINA RESULT:      -7.4      3.128      7.110
REMARK  4 active torsions:
REMARK  status: ('A' for Active; 'I' for Inactive)
REMARK    1  A    between atoms: C1_2  and  C2_3 
REMARK    2  A    between atoms: C2_3  and  C3_4 
REMARK    3  A    between atoms: C3_4  and  C4_5 
REMARK       I    between atoms: C4_5  and  N1_7 
REMARK    4  A    between atoms: N1_7  and  C5_8 
ROOT
HETATM    1  C5  UNL     1      21.271   1.406  49.546  1.00  0.00     0.061 A 
HETATM    2  C6  UNL     1      21.579   1.819  48.273  1.00  0.00     0.032 A 
HETATM    3  C7  UNL     1      22.696   2.588  48.100  1.00  0.00     0.003 A 
HETATM    4  C8  UNL     1      23.474   2.925  49.189  1.00  0.00     0.012 A 
HETATM    5  C9  UNL     1      23.208   2.534  50.492  1.00  0.00    -0.001 A 
HETATM    6  C10 UNL     1      22.055   1.748  50.628  1.00  0.00     0.064 A 
HETATM    7  N2  UNL     1      21.464   1.162  51.809  1.00  0.00    -0.385 N 
HETATM    8  C11 UNL     1      21.856   0.712  53.159  1.00  0.00     0.162 C 
HETATM    9  C12 UNL     1      23.182   0.129  53.052  1.00  0.00     0.290 C 
HETATM   10  N3  UNL     1      23.812  -0.515  54.132  1.00  0.00     0.099 N 
HETATM   11  C13 UNL     1      25.258  -0.541  53.827  1.00  0.00     0.311 C 
HETATM   12  C14 UNL     1      25.460   0.598  52.903  1.00  0.00    -0.004 C 
HETATM   13  C15 UNL     1      26.559   0.974  52.222  1.00  0.00     0.011 C 
HETATM   14  C16 UNL     1      26.674   2.053  51.206  1.00  0.00    -0.001 C 
HETATM   15  C17 UNL     1      25.640   2.869  50.899  1.00  0.00     0.005 C 
HETATM   16  C18 UNL     1      24.272   3.106  51.352  1.00  0.00     0.166 C 
HETATM   17  N4  UNL     1      24.020   2.595  52.698  1.00  0.00    -0.277 NA
HETATM   18  C19 UNL     1      24.148   1.290  52.863  1.00  0.00     0.072 C 
HETATM   19  H10 UNL     1      20.430   1.023  51.620  1.00  0.00     0.159 HD
HETATM   20  H14 UNL     1      23.597  -0.046  55.014  1.00  0.00     0.317 HD
ENDROOT
BRANCH   1  21
HETATM   21  N1  UNL     1      20.107   0.592  49.806  1.00  0.00    -0.325 N 
HETATM   22  C4  UNL     1      18.874   1.238  50.086  1.00  0.00     0.222 C 
HETATM   23  O2  UNL     1      18.977   2.484  50.067  1.00  0.00    -0.273 OA
HETATM   24  H6  UNL     1      20.174  -0.469  49.787  1.00  0.00     0.169 HD
BRANCH  22  25
HETATM   25  C3  UNL     1      17.710   0.342  50.344  1.00  0.00     0.110 C 
BRANCH  25  26
HETATM   26  C2  UNL     1      17.379   0.220  51.809  1.00  0.00     0.078 C 
BRANCH  26  27
HETATM   27  C1  UNL     1      18.133  -0.892  52.449  1.00  0.00     0.231 C 
HETATM   28  O1  UNL     1      18.773  -1.092  53.457  1.00  0.00    -0.307 OA
ENDBRANCH  26  27
ENDBRANCH  25  26
ENDBRANCH  22  25
ENDBRANCH   1  21
TORSDOF 4
ENDMDL
MODEL 9
REMARK VINA RESULT:      -7.4      2.963      5.735
REMARK  4 active torsions:
REMARK  status: ('A' for Active; 'I' for Inactive)
REMARK    1  A    between atoms: C1_2  and  C2_3 
REMARK    2  A    between atoms: C2_3  and  C3_4 
REMARK    3  A    between atoms: C3_4  and  C4_5 
REMARK       I    between atoms: C4_5  and  N1_7 
REMARK    4  A    between atoms: N1_7  and  C5_8 
ROOT
HETATM    1  C5  UNL     1      24.735   1.567  52.619  1.00  0.00     0.061 A 
HETATM    2  C6  UNL     1      26.076   1.382  52.853  1.00  0.00     0.032 A 
HETATM    3  C7  UNL     1      26.964   1.956  51.987  1.00  0.00     0.003 A 
HETATM    4  C8  UNL     1      26.502   2.696  50.918  1.00  0.00     0.012 A 
HETATM    5  C9  UNL     1      25.161   2.912  50.637  1.00  0.00    -0.001 A 
HETATM    6  C10 UNL     1      24.283   2.307  51.548  1.00  0.00     0.064 A 
HETATM    7  N2  UNL     1      22.838   2.309  51.585  1.00  0.00    -0.385 N 
HETATM    8  C11 UNL     1      21.701   3.131  51.127  1.00  0.00     0.162 C 
HETATM    9  C12 UNL     1      22.099   4.522  51.245  1.00  0.00     0.290 C 
HETATM   10  N3  UNL     1      21.207   5.585  51.010  1.00  0.00     0.099 N 
HETATM   11  C13 UNL     1      22.032   6.783  50.748  1.00  0.00     0.311 C 
HETATM   12  C14 UNL     1      23.319   6.243  50.253  1.00  0.00    -0.004 C 
HETATM   13  C15 UNL     1      24.472   6.879  49.969  1.00  0.00     0.011 C 
HETATM   14  C16 UNL     1      25.777   6.273  49.597  1.00  0.00    -0.001 C 
HETATM   15  C17 UNL     1      25.929   4.942  49.418  1.00  0.00     0.005 C 
HETATM   16  C18 UNL     1      25.094   3.743  49.411  1.00  0.00     0.166 C 
HETATM   17  N4  UNL     1      23.678   4.037  49.200  1.00  0.00    -0.277 NA
HETATM   18  C19 UNL     1      23.090   4.783  50.120  1.00  0.00     0.072 C 
HETATM   19  H10 UNL     1      22.526   1.441  52.109  1.00  0.00     0.159 HD
HETATM   20  H14 UNL     1      20.568   5.363  50.244  1.00  0.00     0.317 HD
ENDROOT
BRANCH   1  21
HETATM   21  N1  UNL     1      23.739   0.990  53.491  1.00  0.00    -0.325 N 
HETATM   22  C4  UNL     1      23.745  -0.414  53.695  1.00  0.00     0.222 C 
HETATM   23  O2  UNL     1      24.660  -0.982  53.059  1.00  0.00    -0.273 OA
HETATM   24  H6  UNL     1      23.015   1.606  53.968  1.00  0.00     0.169 HD
BRANCH  22  25
HETATM   25  C3  UNL     1      22.691  -0.948  54.606  1.00  0.00     0.110 C 
BRANCH  25  26
HETATM   26  C2  UNL     1      21.392  -1.227  53.898  1.00  0.00     0.078 C 
BRANCH  26  27
HETATM   27  C1  UNL     1      20.507  -0.031  53.889  1.00  0.00     0.231 C 
HETATM   28  O1  UNL     1      20.551   1.128  53.539  1.00  0.00    -0.307 OA
ENDBRANCH  26  27
ENDBRANCH  25  26
ENDBRANCH  22  25
ENDBRANCH   1  21
TORSDOF 4
ENDMDL
