MODEL 1
REMARK VINA RESULT:     -10.3      0.000      0.000
REMARK  3 active torsions:
REMARK  status: ('A' for Active; 'I' for Inactive)
REMARK    1  A    between atoms: C2_2  and  C3_3 
REMARK    2  A    between atoms: C3_3  and  C4_4 
REMARK    3  A    between atoms: C16_19  and  C17_20 
ROOT
HETATM    1  C4  UNL     1      24.817   5.024  49.012  1.00  0.00    -0.061 C 
HETATM    2  C5  UNL     1      24.076   5.796  48.305  1.00  0.00    -0.019 C 
HETATM    3  C6  UNL     1      22.887   5.016  48.111  1.00  0.00     0.034 C 
HETATM    4  C7  UNL     1      21.583   5.555  48.367  1.00  0.00     0.065 C 
HETATM    5  C8  UNL     1      20.500   4.491  48.313  1.00  0.00     0.066 A 
HETATM    6  N1  UNL     1      19.496   4.321  47.394  1.00  0.00    -0.177 NA
HETATM    7  N2  UNL     1      18.781   3.250  47.681  1.00  0.00    -0.284 N 
HETATM    8  C9  UNL     1      17.653   2.829  46.876  1.00  0.00     0.179 C 
HETATM    9  C10 UNL     1      19.289   2.685  48.789  1.00  0.00     0.124 A 
HETATM   10  C11 UNL     1      20.364   3.445  49.203  1.00  0.00     0.025 A 
HETATM   11  C12 UNL     1      21.147   3.187  50.372  1.00  0.00     0.168 C 
HETATM   12  N3  UNL     1      21.435   1.771  50.639  1.00  0.00    -0.366 N 
HETATM   13  C13 UNL     1      22.605   1.463  51.458  1.00  0.00     0.040 A 
HETATM   14  C14 UNL     1      22.716   0.295  52.227  1.00  0.00     0.031 A 
HETATM   15  C15 UNL     1      23.895   0.053  52.940  1.00  0.00     0.012 A 
HETATM   16  C16 UNL     1      24.989   0.926  52.930  1.00  0.00    -0.029 A 
HETATM   17  C22 UNL     1      24.972   2.098  52.207  1.00  0.00     0.024 A 
HETATM   18  C23 UNL     1      23.782   2.269  51.533  1.00  0.00    -0.001 A 
HETATM   19  C24 UNL     1      23.550   3.428  50.637  1.00  0.00    -0.019 C 
HETATM   20  C25 UNL     1      24.631   3.942  49.998  1.00  0.00     0.017 C 
HETATM   21  C26 UNL     1      22.193   4.061  50.791  1.00  0.00     0.161 C 
HETATM   22  N4  UNL     1      21.761   3.861  52.236  1.00  0.00    -0.347 N 
HETATM   23  C27 UNL     1      20.492   3.663  51.679  1.00  0.00     0.254 C 
HETATM   24  O2  UNL     1      19.410   3.872  52.251  1.00  0.00    -0.270 OA
HETATM   25  H17 UNL     1      20.930   0.912  50.337  1.00  0.00     0.161 HD
HETATM   26  H32 UNL     1      22.304   3.894  53.122  1.00  0.00     0.163 HD
ENDROOT
BRANCH  16  27
HETATM   27  C17 UNL     1      26.212   0.617  53.703  1.00  0.00     0.154 C 
HETATM   28  C18 UNL     1      27.106  -0.322  52.933  1.00  0.00     0.037 C 
HETATM   29  C19 UNL     1      28.384  -0.427  53.777  1.00  0.00     0.005 C 
HETATM   30  C20 UNL     1      29.057   0.917  53.536  1.00  0.00     0.026 C 
HETATM   31  C21 UNL     1      28.073   2.019  53.709  1.00  0.00     0.168 C 
HETATM   32  O1  UNL     1      26.850   1.726  54.189  1.00  0.00    -0.381 OA
ENDBRANCH  16  27
BRANCH   1  33
HETATM   33  C3  UNL     1      26.178   5.634  49.303  1.00  0.00     0.038 C 
BRANCH  33  34
HETATM   34  C2  UNL     1      27.220   4.636  48.901  1.00  0.00     0.000 C 
HETATM   35  C1  UNL     1      28.406   5.409  48.364  1.00  0.00     0.005 C 
ENDBRANCH  33  34
ENDBRANCH   1  33
TORSDOF 3
ENDMDL
MODEL 2
REMARK VINA RESULT:     -10.0      3.122      8.075
REMARK  3 active torsions:
REMARK  status: ('A' for Active; 'I' for Inactive)
REMARK    1  A    between atoms: C2_2  and  C3_3 
REMARK    2  A    between atoms: C3_3  and  C4_4 
REMARK    3  A    between atoms: C16_19  and  C17_20 
ROOT
HETATM    1  C4  UNL     1      21.843   0.651  52.272  1.00  0.00    -0.061 C 
HETATM    2  C5  UNL     1      22.025  -0.275  53.140  1.00  0.00    -0.019 C 
HETATM    3  C6  UNL     1      23.396  -0.647  52.935  1.00  0.00     0.034 C 
HETATM    4  C7  UNL     1      24.323  -0.738  54.025  1.00  0.00     0.065 C 
HETATM    5  C8  UNL     1      25.754  -0.922  53.550  1.00  0.00     0.066 A 
HETATM    6  N1  UNL     1      26.573  -2.017  53.664  1.00  0.00    -0.177 NA
HETATM    7  N2  UNL     1      27.736  -1.787  53.087  1.00  0.00    -0.284 N 
HETATM    8  C9  UNL     1      28.797  -2.774  53.055  1.00  0.00     0.179 C 
HETATM    9  C10 UNL     1      27.721  -0.544  52.580  1.00  0.00     0.124 A 
HETATM   10  C11 UNL     1      26.491   0.018  52.858  1.00  0.00     0.025 A 
HETATM   11  C12 UNL     1      26.102   1.350  52.512  1.00  0.00     0.168 C 
HETATM   12  N3  UNL     1      26.548   1.815  51.192  1.00  0.00    -0.366 N 
HETATM   13  C13 UNL     1      25.792   2.897  50.566  1.00  0.00     0.040 A 
HETATM   14  C14 UNL     1      26.352   3.785  49.636  1.00  0.00     0.031 A 
HETATM   15  C15 UNL     1      25.541   4.761  49.045  1.00  0.00     0.012 A 
HETATM   16  C16 UNL     1      24.179   4.903  49.335  1.00  0.00    -0.029 A 
HETATM   17  C22 UNL     1      23.543   4.080  50.236  1.00  0.00     0.024 A 
HETATM   18  C23 UNL     1      24.401   3.148  50.777  1.00  0.00    -0.001 A 
HETATM   19  C24 UNL     1      23.932   2.110  51.728  1.00  0.00    -0.019 C 
HETATM   20  C25 UNL     1      22.654   1.676  51.588  1.00  0.00     0.017 C 
HETATM   21  C26 UNL     1      24.846   1.898  52.906  1.00  0.00     0.161 C 
HETATM   22  N4  UNL     1      25.532   3.225  53.192  1.00  0.00    -0.347 N 
HETATM   23  C27 UNL     1      26.648   2.426  53.464  1.00  0.00     0.254 C 
HETATM   24  O2  UNL     1      27.581   2.724  54.228  1.00  0.00    -0.270 OA
HETATM   25  H17 UNL     1      27.343   1.497  50.598  1.00  0.00     0.161 HD
HETATM   26  H32 UNL     1      25.175   4.202  53.152  1.00  0.00     0.163 HD
ENDROOT
BRANCH  16  27
HETATM   27  C17 UNL     1      23.371   5.953  48.677  1.00  0.00     0.154 C 
HETATM   28  C18 UNL     1      24.256   6.901  47.906  1.00  0.00     0.037 C 
HETATM   29  C19 UNL     1      23.283   7.827  47.163  1.00  0.00     0.005 C 
HETATM   30  C20 UNL     1      22.745   6.930  46.057  1.00  0.00     0.026 C 
HETATM   31  C21 UNL     1      22.326   5.619  46.621  1.00  0.00     0.168 C 
HETATM   32  O1  UNL     1      22.314   5.463  47.958  1.00  0.00    -0.381 OA
ENDBRANCH  16  27
BRANCH   1  33
HETATM   33  C3  UNL     1      20.415   1.171  52.271  1.00  0.00     0.038 C 
BRANCH  33  34
HETATM   34  C2  UNL     1      19.706   0.555  51.105  1.00  0.00     0.000 C 
HETATM   35  C1  UNL     1      18.520  -0.214  51.648  1.00  0.00     0.005 C 
ENDBRANCH  33  34
ENDBRANCH   1  33
TORSDOF 3
ENDMDL
MODEL 3
REMARK VINA RESULT:     -10.0      2.983      7.512
REMARK  3 active torsions:
REMARK  status: ('A' for Active; 'I' for Inactive)
REMARK    1  A    between atoms: C2_2  and  C3_3 
REMARK    2  A    between atoms: C3_3  and  C4_4 
REMARK    3  A    between atoms: C16_19  and  C17_20 
ROOT
HETATM    1  C4  UNL     1      23.598  -0.343  53.307  1.00  0.00    -0.061 C 
HETATM    2  C5  UNL     1      24.770   0.067  53.631  1.00  0.00    -0.019 C 
HETATM    3  C6  UNL     1      25.144   0.893  52.519  1.00  0.00     0.034 C 
HETATM    4  C7  UNL     1      25.653   2.220  52.704  1.00  0.00     0.065 C 
HETATM    5  C8  UNL     1      25.765   2.982  51.395  1.00  0.00     0.066 A 
HETATM    6  N1  UNL     1      26.888   3.386  50.719  1.00  0.00    -0.177 NA
HETATM    7  N2  UNL     1      26.559   3.993  49.595  1.00  0.00    -0.284 N 
HETATM    8  C9  UNL     1      27.548   4.524  48.679  1.00  0.00     0.179 C 
HETATM    9  C10 UNL     1      25.220   4.007  49.496  1.00  0.00     0.124 A 
HETATM   10  C11 UNL     1      24.700   3.382  50.611  1.00  0.00     0.025 A 
HETATM   11  C12 UNL     1      23.306   3.230  50.890  1.00  0.00     0.168 C 
HETATM   12  N3  UNL     1      22.462   2.911  49.731  1.00  0.00    -0.366 N 
HETATM   13  C13 UNL     1      21.185   2.248  49.989  1.00  0.00     0.040 A 
HETATM   14  C14 UNL     1      20.079   2.358  49.132  1.00  0.00     0.031 A 
HETATM   15  C15 UNL     1      18.911   1.646  49.427  1.00  0.00     0.012 A 
HETATM   16  C16 UNL     1      18.781   0.816  50.547  1.00  0.00    -0.029 A 
HETATM   17  C22 UNL     1      19.811   0.649  51.444  1.00  0.00     0.024 A 
HETATM   18  C23 UNL     1      20.926   1.378  51.091  1.00  0.00    -0.001 A 
HETATM   19  C24 UNL     1      22.185   1.311  51.873  1.00  0.00    -0.019 C 
HETATM   20  C25 UNL     1      22.462   0.140  52.500  1.00  0.00     0.017 C 
HETATM   21  C26 UNL     1      22.836   2.649  52.105  1.00  0.00     0.161 C 
HETATM   22  N4  UNL     1      21.727   3.689  52.156  1.00  0.00    -0.347 N 
HETATM   23  C27 UNL     1      22.644   4.491  51.468  1.00  0.00     0.254 C 
HETATM   24  O2  UNL     1      22.680   5.733  51.492  1.00  0.00    -0.270 OA
HETATM   25  H17 UNL     1      22.618   3.082  48.716  1.00  0.00     0.161 HD
HETATM   26  H32 UNL     1      20.771   3.649  52.564  1.00  0.00     0.163 HD
ENDROOT
BRANCH  16  27
HETATM   27  C17 UNL     1      17.521   0.086  50.806  1.00  0.00     0.154 C 
HETATM   28  C18 UNL     1      17.624  -0.718  52.078  1.00  0.00     0.037 C 
HETATM   29  C19 UNL     1      16.215  -1.287  52.297  1.00  0.00     0.005 C 
HETATM   30  C20 UNL     1      15.429  -0.068  52.759  1.00  0.00     0.026 C 
HETATM   31  C21 UNL     1      15.695   1.084  51.855  1.00  0.00     0.168 C 
HETATM   32  O1  UNL     1      16.404   0.875  50.731  1.00  0.00    -0.381 OA
ENDBRANCH  16  27
BRANCH   1  33
HETATM   33  C3  UNL     1      23.013  -1.295  54.336  1.00  0.00     0.038 C 
BRANCH  33  34
HETATM   34  C2  UNL     1      21.686  -0.747  54.762  1.00  0.00     0.000 C 
HETATM   35  C1  UNL     1      20.625  -1.736  54.329  1.00  0.00     0.005 C 
ENDBRANCH  33  34
ENDBRANCH   1  33
TORSDOF 3
ENDMDL
MODEL 4
REMARK VINA RESULT:      -9.9      5.021      7.984
REMARK  3 active torsions:
REMARK  status: ('A' for Active; 'I' for Inactive)
REMARK    1  A    between atoms: C2_2  and  C3_3 
REMARK    2  A    between atoms: C3_3  and  C4_4 
REMARK    3  A    between atoms: C16_19  and  C17_20 
ROOT
HETATM    1  C4  UNL     1      30.909   5.912  47.370  1.00  0.00    -0.061 C 
HETATM    2  C5  UNL     1      31.647   6.891  46.992  1.00  0.00    -0.019 C 
HETATM    3  C6  UNL     1      30.696   7.833  46.474  1.00  0.00     0.034 C 
HETATM    4  C7  UNL     1      30.702   9.209  46.877  1.00  0.00     0.065 C 
HETATM    5  C8  UNL     1      29.478   9.959  46.382  1.00  0.00     0.066 A 
HETATM    6  N1  UNL     1      29.391  10.950  45.437  1.00  0.00    -0.177 NA
HETATM    7  N2  UNL     1      28.136  11.318  45.266  1.00  0.00    -0.284 N 
HETATM    8  C9  UNL     1      27.749  12.350  44.325  1.00  0.00     0.179 C 
HETATM    9  C10 UNL     1      27.363  10.587  46.085  1.00  0.00     0.124 A 
HETATM   10  C11 UNL     1      28.181   9.730  46.794  1.00  0.00     0.025 A 
HETATM   11  C12 UNL     1      27.734   8.814  47.797  1.00  0.00     0.168 C 
HETATM   12  N3  UNL     1      26.467   8.129  47.506  1.00  0.00    -0.366 N 
HETATM   13  C13 UNL     1      26.218   6.856  48.179  1.00  0.00     0.040 A 
HETATM   14  C14 UNL     1      24.929   6.366  48.440  1.00  0.00     0.031 A 
HETATM   15  C15 UNL     1      24.782   5.112  49.042  1.00  0.00     0.012 A 
HETATM   16  C16 UNL     1      25.865   4.303  49.404  1.00  0.00    -0.029 A 
HETATM   17  C22 UNL     1      27.166   4.700  49.190  1.00  0.00     0.024 A 
HETATM   18  C23 UNL     1      27.234   5.942  48.597  1.00  0.00    -0.001 A 
HETATM   19  C24 UNL     1      28.529   6.556  48.211  1.00  0.00    -0.019 C 
HETATM   20  C25 UNL     1      29.530   5.713  47.855  1.00  0.00     0.017 C 
HETATM   21  C26 UNL     1      28.642   8.017  48.555  1.00  0.00     0.161 C 
HETATM   22  N4  UNL     1      27.796   8.258  49.795  1.00  0.00    -0.347 N 
HETATM   23  C27 UNL     1      27.472   9.465  49.165  1.00  0.00     0.254 C 
HETATM   24  O2  UNL     1      27.132  10.512  49.739  1.00  0.00    -0.270 OA
HETATM   25  H17 UNL     1      25.681   8.402  46.880  1.00  0.00     0.161 HD
HETATM   26  H32 UNL     1      27.643   7.674  50.642  1.00  0.00     0.163 HD
ENDROOT
BRANCH  16  27
HETATM   27  C17 UNL     1      25.647   2.983  50.037  1.00  0.00     0.154 C 
HETATM   28  C18 UNL     1      26.716   2.702  51.063  1.00  0.00     0.037 C 
HETATM   29  C19 UNL     1      26.279   1.393  51.735  1.00  0.00     0.005 C 
HETATM   30  C20 UNL     1      25.113   1.837  52.608  1.00  0.00     0.026 C 
HETATM   31  C21 UNL     1      24.177   2.682  51.818  1.00  0.00     0.168 C 
HETATM   32  O1  UNL     1      24.370   2.797  50.492  1.00  0.00    -0.381 OA
ENDBRANCH  16  27
BRANCH   1  33
HETATM   33  C3  UNL     1      31.723   4.751  47.916  1.00  0.00     0.038 C 
BRANCH  33  34
HETATM   34  C2  UNL     1      32.539   4.196  46.790  1.00  0.00     0.000 C 
HETATM   35  C1  UNL     1      32.063   2.780  46.540  1.00  0.00     0.005 C 
ENDBRANCH  33  34
ENDBRANCH   1  33
TORSDOF 3
ENDMDL
MODEL 5
REMARK VINA RESULT:      -9.7      3.197      4.963
REMARK  3 active torsions:
REMARK  status: ('A' for Active; 'I' for Inactive)
REMARK    1  A    between atoms: C2_2  and  C3_3 
REMARK    2  A    between atoms: C3_3  and  C4_4 
REMARK    3  A    between atoms: C16_19  and  C17_20 
ROOT
HETATM    1  C4  UNL     1      29.025   6.222  47.865  1.00  0.00    -0.061 C 
HETATM    2  C5  UNL     1      29.046   7.368  47.289  1.00  0.00    -0.019 C 
HETATM    3  C6  UNL     1      27.688   7.538  46.854  1.00  0.00     0.034 C 
HETATM    4  C7  UNL     1      26.953   8.738  47.131  1.00  0.00     0.065 C 
HETATM    5  C8  UNL     1      25.482   8.605  46.781  1.00  0.00     0.066 A 
HETATM    6  N1  UNL     1      24.768   9.217  45.781  1.00  0.00    -0.177 NA
HETATM    7  N2  UNL     1      23.515   8.806  45.787  1.00  0.00    -0.284 N 
HETATM    8  C9  UNL     1      22.533   9.289  44.838  1.00  0.00     0.179 C 
HETATM    9  C10 UNL     1      23.365   7.916  46.782  1.00  0.00     0.124 A 
HETATM   10  C11 UNL     1      24.581   7.775  47.419  1.00  0.00     0.025 A 
HETATM   11  C12 UNL     1      24.818   6.941  48.556  1.00  0.00     0.168 C 
HETATM   12  N3  UNL     1      24.139   5.639  48.537  1.00  0.00    -0.366 N 
HETATM   13  C13 UNL     1      24.711   4.567  49.349  1.00  0.00     0.040 A 
HETATM   14  C14 UNL     1      23.951   3.504  49.859  1.00  0.00     0.031 A 
HETATM   15  C15 UNL     1      24.590   2.490  50.582  1.00  0.00     0.012 A 
HETATM   16  C16 UNL     1      25.967   2.477  50.830  1.00  0.00    -0.029 A 
HETATM   17  C22 UNL     1      26.793   3.479  50.372  1.00  0.00     0.024 A 
HETATM   18  C23 UNL     1      26.097   4.440  49.671  1.00  0.00    -0.001 A 
HETATM   19  C24 UNL     1      26.780   5.588  49.027  1.00  0.00    -0.019 C 
HETATM   20  C25 UNL     1      28.047   5.385  48.585  1.00  0.00     0.017 C 
HETATM   21  C26 UNL     1      26.080   6.907  49.220  1.00  0.00     0.161 C 
HETATM   22  N4  UNL     1      25.358   6.845  50.557  1.00  0.00    -0.347 N 
HETATM   23  C27 UNL     1      24.356   7.556  49.887  1.00  0.00     0.254 C 
HETATM   24  O2  UNL     1      23.538   8.325  50.418  1.00  0.00    -0.270 OA
HETATM   25  H17 UNL     1      23.284   5.332  48.027  1.00  0.00     0.161 HD
HETATM   26  H32 UNL     1      25.637   6.420  51.465  1.00  0.00     0.163 HD
ENDROOT
BRANCH  16  27
HETATM   27  C17 UNL     1      26.587   1.377  51.601  1.00  0.00     0.154 C 
HETATM   28  C18 UNL     1      27.495   1.925  52.673  1.00  0.00     0.037 C 
HETATM   29  C19 UNL     1      27.938   0.694  53.478  1.00  0.00     0.005 C 
HETATM   30  C20 UNL     1      26.687   0.345  54.272  1.00  0.00     0.026 C 
HETATM   31  C21 UNL     1      25.500   0.329  53.375  1.00  0.00     0.168 C 
HETATM   32  O1  UNL     1      25.689   0.446  52.048  1.00  0.00    -0.381 OA
ENDBRANCH  16  27
BRANCH   1  33
HETATM   33  C3  UNL     1      30.395   5.802  48.368  1.00  0.00     0.038 C 
BRANCH  33  34
HETATM   34  C2  UNL     1      30.914   4.741  47.447  1.00  0.00     0.000 C 
HETATM   35  C1  UNL     1      32.297   5.165  47.000  1.00  0.00     0.005 C 
ENDBRANCH  33  34
ENDBRANCH   1  33
TORSDOF 3
ENDMDL
MODEL 6
REMARK VINA RESULT:      -9.3      2.525      4.739
REMARK  3 active torsions:
REMARK  status: ('A' for Active; 'I' for Inactive)
REMARK    1  A    between atoms: C2_2  and  C3_3 
REMARK    2  A    between atoms: C3_3  and  C4_4 
REMARK    3  A    between atoms: C16_19  and  C17_20 
ROOT
HETATM    1  C4  UNL     1      25.967   2.967  50.600  1.00  0.00    -0.061 C 
HETATM    2  C5  UNL     1      26.679   3.832  49.975  1.00  0.00    -0.019 C 
HETATM    3  C6  UNL     1      25.726   4.477  49.116  1.00  0.00     0.034 C 
HETATM    4  C7  UNL     1      25.619   5.905  49.049  1.00  0.00     0.065 C 
HETATM    5  C8  UNL     1      24.404   6.355  48.257  1.00  0.00     0.066 A 
HETATM    6  N1  UNL     1      24.346   6.982  47.038  1.00  0.00    -0.177 NA
HETATM    7  N2  UNL     1      23.093   7.171  46.674  1.00  0.00    -0.284 N 
HETATM    8  C9  UNL     1      22.734   7.813  45.425  1.00  0.00     0.179 C 
HETATM    9  C10 UNL     1      22.292   6.679  47.633  1.00  0.00     0.124 A 
HETATM   10  C11 UNL     1      23.090   6.164  48.635  1.00  0.00     0.025 A 
HETATM   11  C12 UNL     1      22.607   5.582  49.849  1.00  0.00     0.168 C 
HETATM   12  N3  UNL     1      21.412   4.739  49.713  1.00  0.00    -0.366 N 
HETATM   13  C13 UNL     1      21.177   3.731  50.745  1.00  0.00     0.040 A 
HETATM   14  C14 UNL     1      19.899   3.247  51.064  1.00  0.00     0.031 A 
HETATM   15  C15 UNL     1      19.769   2.242  52.030  1.00  0.00     0.012 A 
HETATM   16  C16 UNL     1      20.860   1.684  52.707  1.00  0.00    -0.029 A 
HETATM   17  C22 UNL     1      22.150   2.098  52.462  1.00  0.00     0.024 A 
HETATM   18  C23 UNL     1      22.200   3.086  51.503  1.00  0.00    -0.001 A 
HETATM   19  C24 UNL     1      23.488   3.648  51.026  1.00  0.00    -0.019 C 
HETATM   20  C25 UNL     1      24.563   2.821  51.030  1.00  0.00     0.017 C 
HETATM   21  C26 UNL     1      23.487   5.147  50.883  1.00  0.00     0.161 C 
HETATM   22  N4  UNL     1      22.522   5.702  51.918  1.00  0.00    -0.347 N 
HETATM   23  C27 UNL     1      22.188   6.612  50.910  1.00  0.00     0.254 C 
HETATM   24  O2  UNL     1      21.740   7.757  51.089  1.00  0.00    -0.270 OA
HETATM   25  H17 UNL     1      20.672   4.732  48.981  1.00  0.00     0.161 HD
HETATM   26  H32 UNL     1      22.327   5.408  52.897  1.00  0.00     0.163 HD
ENDROOT
BRANCH  16  27
HETATM   27  C17 UNL     1      20.661   0.622  53.718  1.00  0.00     0.154 C 
HETATM   28  C18 UNL     1      20.106  -0.625  53.077  1.00  0.00     0.037 C 
HETATM   29  C19 UNL     1      20.099  -1.672  54.200  1.00  0.00     0.005 C 
HETATM   30  C20 UNL     1      21.574  -2.021  54.343  1.00  0.00     0.026 C 
HETATM   31  C21 UNL     1      22.389  -0.778  54.413  1.00  0.00     0.168 C 
HETATM   32  O1  UNL     1      21.756   0.406  54.510  1.00  0.00    -0.381 OA
ENDBRANCH  16  27
BRANCH   1  33
HETATM   33  C3  UNL     1      26.792   2.113  51.547  1.00  0.00     0.038 C 
BRANCH  33  34
HETATM   34  C2  UNL     1      25.950   0.945  51.958  1.00  0.00     0.000 C 
HETATM   35  C1  UNL     1      26.884  -0.127  52.479  1.00  0.00     0.005 C 
ENDBRANCH  33  34
ENDBRANCH   1  33
TORSDOF 3
ENDMDL
MODEL 7
REMARK VINA RESULT:      -9.3      2.429      5.515
REMARK  3 active torsions:
REMARK  status: ('A' for Active; 'I' for Inactive)
REMARK    1  A    between atoms: C2_2  and  C3_3 
REMARK    2  A    between atoms: C3_3  and  C4_4 
REMARK    3  A    between atoms: C16_19  and  C17_20 
ROOT
HETATM    1  C4  UNL     1      24.507   1.376  52.457  1.00  0.00    -0.061 C 
HETATM    2  C5  UNL     1      23.672   0.443  52.734  1.00  0.00    -0.019 C 
HETATM    3  C6  UNL     1      22.401   1.055  52.465  1.00  0.00     0.034 C 
HETATM    4  C7  UNL     1      21.413   0.412  51.651  1.00  0.00     0.065 C 
HETATM    5  C8  UNL     1      20.252   1.333  51.319  1.00  0.00     0.066 A 
HETATM    6  N1  UNL     1      18.948   1.273  51.742  1.00  0.00    -0.177 NA
HETATM    7  N2  UNL     1      18.256   2.285  51.256  1.00  0.00    -0.284 N 
HETATM    8  C9  UNL     1      16.848   2.474  51.541  1.00  0.00     0.179 C 
HETATM    9  C10 UNL     1      19.075   3.038  50.504  1.00  0.00     0.124 A 
HETATM   10  C11 UNL     1      20.329   2.461  50.527  1.00  0.00     0.025 A 
HETATM   11  C12 UNL     1      21.469   2.949  49.814  1.00  0.00     0.168 C 
HETATM   12  N3  UNL     1      21.619   4.410  49.789  1.00  0.00    -0.366 N 
HETATM   13  C13 UNL     1      22.958   4.948  49.559  1.00  0.00     0.040 A 
HETATM   14  C14 UNL     1      23.190   6.209  48.989  1.00  0.00     0.031 A 
HETATM   15  C15 UNL     1      24.505   6.668  48.854  1.00  0.00     0.012 A 
HETATM   16  C16 UNL     1      25.621   5.928  49.262  1.00  0.00    -0.029 A 
HETATM   17  C22 UNL     1      25.492   4.680  49.828  1.00  0.00     0.024 A 
HETATM   18  C23 UNL     1      24.173   4.294  49.929  1.00  0.00    -0.001 A 
HETATM   19  C24 UNL     1      23.779   3.012  50.564  1.00  0.00    -0.019 C 
HETATM   20  C25 UNL     1      24.573   2.546  51.560  1.00  0.00     0.017 C 
HETATM   21  C26 UNL     1      22.715   2.257  49.812  1.00  0.00     0.161 C 
HETATM   22  N4  UNL     1      22.880   2.588  48.337  1.00  0.00    -0.347 N 
HETATM   23  C27 UNL     1      21.481   2.572  48.324  1.00  0.00     0.254 C 
HETATM   24  O2  UNL     1      20.770   2.317  47.338  1.00  0.00    -0.270 OA
HETATM   25  H17 UNL     1      20.909   5.163  49.910  1.00  0.00     0.161 HD
HETATM   26  H32 UNL     1      23.734   2.728  47.760  1.00  0.00     0.163 HD
ENDROOT
BRANCH  16  27
HETATM   27  C17 UNL     1      26.989   6.466  49.094  1.00  0.00     0.154 C 
HETATM   28  C18 UNL     1      27.868   5.473  48.376  1.00  0.00     0.037 C 
HETATM   29  C19 UNL     1      29.189   6.218  48.140  1.00  0.00     0.005 C 
HETATM   30  C20 UNL     1      28.832   7.188  47.022  1.00  0.00     0.026 C 
HETATM   31  C21 UNL     1      27.562   7.894  47.345  1.00  0.00     0.168 C 
HETATM   32  O1  UNL     1      27.021   7.728  48.565  1.00  0.00    -0.381 OA
ENDBRANCH  16  27
BRANCH   1  33
HETATM   33  C3  UNL     1      25.945   0.963  52.721  1.00  0.00     0.038 C 
BRANCH  33  34
HETATM   34  C2  UNL     1      26.546   1.973  53.650  1.00  0.00     0.000 C 
HETATM   35  C1  UNL     1      27.981   2.191  53.216  1.00  0.00     0.005 C 
ENDBRANCH  33  34
ENDBRANCH   1  33
TORSDOF 3
ENDMDL
MODEL 8
REMARK VINA RESULT:      -9.2      3.984      7.077
REMARK  3 active torsions:
REMARK  status: ('A' for Active; 'I' for Inactive)
REMARK    1  A    between atoms: C2_2  and  C3_3 
REMARK    2  A    between atoms: C3_3  and  C4_4 
REMARK    3  A    between atoms: C16_19  and  C17_20 
ROOT
HETATM    1  C4  UNL     1      22.530   0.610  52.067  1.00  0.00    -0.061 C 
HETATM    2  C5  UNL     1      23.405   1.468  51.685  1.00  0.00    -0.019 C 
HETATM    3  C6  UNL     1      22.912   1.885  50.403  1.00  0.00     0.034 C 
HETATM    4  C7  UNL     1      22.776   3.271  50.063  1.00  0.00     0.065 C 
HETATM    5  C8  UNL     1      22.029   3.472  48.756  1.00  0.00     0.066 A 
HETATM    6  N1  UNL     1      22.497   3.931  47.550  1.00  0.00    -0.177 NA
HETATM    7  N2  UNL     1      21.536   3.925  46.648  1.00  0.00    -0.284 N 
HETATM    8  C9  UNL     1      21.748   4.359  45.282  1.00  0.00     0.179 C 
HETATM    9  C10 UNL     1      20.414   3.465  47.225  1.00  0.00     0.124 A 
HETATM   10  C11 UNL     1      20.697   3.177  48.545  1.00  0.00     0.025 A 
HETATM   11  C12 UNL     1      19.748   2.698  49.501  1.00  0.00     0.168 C 
HETATM   12  N3  UNL     1      18.786   1.710  48.995  1.00  0.00    -0.366 N 
HETATM   13  C13 UNL     1      18.159   0.818  49.969  1.00  0.00     0.040 A 
HETATM   14  C14 UNL     1      16.901   0.231  49.771  1.00  0.00     0.031 A 
HETATM   15  C15 UNL     1      16.398  -0.654  50.732  1.00  0.00     0.012 A 
HETATM   16  C16 UNL     1      17.092  -0.991  51.899  1.00  0.00    -0.029 A 
HETATM   17  C22 UNL     1      18.332  -0.463  52.181  1.00  0.00     0.024 A 
HETATM   18  C23 UNL     1      18.761   0.397  51.194  1.00  0.00    -0.001 A 
HETATM   19  C24 UNL     1      20.096   1.043  51.245  1.00  0.00    -0.019 C 
HETATM   20  C25 UNL     1      21.093   0.355  51.856  1.00  0.00     0.017 C 
HETATM   21  C26 UNL     1      20.087   2.502  50.872  1.00  0.00     0.161 C 
HETATM   22  N4  UNL     1      18.732   3.064  51.273  1.00  0.00    -0.347 N 
HETATM   23  C27 UNL     1      18.844   3.796  50.086  1.00  0.00     0.254 C 
HETATM   24  O2  UNL     1      18.308   4.893  49.860  1.00  0.00    -0.270 OA
HETATM   25  H17 UNL     1      18.457   1.525  48.025  1.00  0.00     0.161 HD
HETATM   26  H32 UNL     1      18.131   2.874  52.101  1.00  0.00     0.163 HD
ENDROOT
BRANCH  16  27
HETATM   27  C17 UNL     1      16.511  -1.935  52.880  1.00  0.00     0.154 C 
HETATM   28  C18 UNL     1      15.525  -2.858  52.209  1.00  0.00     0.037 C 
HETATM   29  C19 UNL     1      15.127  -3.864  53.299  1.00  0.00     0.005 C 
HETATM   30  C20 UNL     1      16.363  -4.748  53.407  1.00  0.00     0.026 C 
HETATM   31  C21 UNL     1      17.586  -3.905  53.504  1.00  0.00     0.168 C 
HETATM   32  O1  UNL     1      17.446  -2.575  53.647  1.00  0.00    -0.381 OA
ENDBRANCH  16  27
BRANCH   1  33
HETATM   33  C3  UNL     1      22.880  -0.016  53.406  1.00  0.00     0.038 C 
BRANCH  33  34
HETATM   34  C2  UNL     1      21.669  -0.746  53.898  1.00  0.00     0.000 C 
HETATM   35  C1  UNL     1      22.102  -1.614  55.062  1.00  0.00     0.005 C 
ENDBRANCH  33  34
ENDBRANCH   1  33
TORSDOF 3
ENDMDL
MODEL 9
REMARK VINA RESULT:      -9.2      2.392      3.305
REMARK  3 active torsions:
REMARK  status: ('A' for Active; 'I' for Inactive)
REMARK    1  A    between atoms: C2_2  and  C3_3 
REMARK    2  A    between atoms: C3_3  and  C4_4 
REMARK    3  A    between atoms: C16_19  and  C17_20 
ROOT
HETATM    1  C4  UNL     1      27.355   6.451  48.129  1.00  0.00    -0.061 C 
HETATM    2  C5  UNL     1      26.935   7.533  47.584  1.00  0.00    -0.019 C 
HETATM    3  C6  UNL     1      25.539   7.272  47.375  1.00  0.00     0.034 C 
HETATM    4  C7  UNL     1      24.529   8.199  47.792  1.00  0.00     0.065 C 
HETATM    5  C8  UNL     1      23.131   7.616  47.677  1.00  0.00     0.066 A 
HETATM    6  N1  UNL     1      22.116   7.956  46.818  1.00  0.00    -0.177 NA
HETATM    7  N2  UNL     1      21.065   7.185  47.014  1.00  0.00    -0.284 N 
HETATM    8  C9  UNL     1      19.845   7.321  46.244  1.00  0.00     0.179 C 
HETATM    9  C10 UNL     1      21.351   6.318  47.999  1.00  0.00     0.124 A 
HETATM   10  C11 UNL     1      22.638   6.569  48.431  1.00  0.00     0.025 A 
HETATM   11  C12 UNL     1      23.294   5.878  49.497  1.00  0.00     0.168 C 
HETATM   12  N3  UNL     1      23.048   4.431  49.556  1.00  0.00    -0.366 N 
HETATM   13  C13 UNL     1      24.040   3.605  50.242  1.00  0.00     0.040 A 
HETATM   14  C14 UNL     1      23.729   2.375  50.841  1.00  0.00     0.031 A 
HETATM   15  C15 UNL     1      24.752   1.623  51.431  1.00  0.00     0.012 A 
HETATM   16  C16 UNL     1      26.089   2.035  51.456  1.00  0.00    -0.029 A 
HETATM   17  C22 UNL     1      26.488   3.228  50.895  1.00  0.00     0.024 A 
HETATM   18  C23 UNL     1      25.431   3.913  50.337  1.00  0.00    -0.001 A 
HETATM   19  C24 UNL     1      25.623   5.197  49.618  1.00  0.00    -0.019 C 
HETATM   20  C25 UNL     1      26.805   5.376  48.976  1.00  0.00     0.017 C 
HETATM   21  C26 UNL     1      24.595   6.246  49.951  1.00  0.00     0.161 C 
HETATM   22  N4  UNL     1      24.147   6.003  51.384  1.00  0.00    -0.347 N 
HETATM   23  C27 UNL     1      22.884   6.359  50.898  1.00  0.00     0.254 C 
HETATM   24  O2  UNL     1      21.965   6.857  51.569  1.00  0.00    -0.270 OA
HETATM   25  H17 UNL     1      22.258   3.865  49.181  1.00  0.00     0.161 HD
HETATM   26  H32 UNL     1      24.682   5.707  52.226  1.00  0.00     0.163 HD
ENDROOT
BRANCH  16  27
HETATM   27  C17 UNL     1      27.129   1.196  52.093  1.00  0.00     0.154 C 
HETATM   28  C18 UNL     1      27.935   2.005  53.079  1.00  0.00     0.037 C 
HETATM   29  C19 UNL     1      28.854   0.983  53.763  1.00  0.00     0.005 C 
HETATM   30  C20 UNL     1      27.898   0.232  54.679  1.00  0.00     0.026 C 
HETATM   31  C21 UNL     1      26.678  -0.169  53.927  1.00  0.00     0.168 C 
HETATM   32  O1  UNL     1      26.650   0.016  52.594  1.00  0.00    -0.381 OA
ENDBRANCH  16  27
BRANCH   1  33
HETATM   33  C3  UNL     1      28.850   6.480  48.399  1.00  0.00     0.038 C 
BRANCH  33  34
HETATM   34  C2  UNL     1      29.339   7.865  48.103  1.00  0.00     0.000 C 
HETATM   35  C1  UNL     1      30.565   8.106  48.958  1.00  0.00     0.005 C 
ENDBRANCH  33  34
ENDBRANCH   1  33
TORSDOF 3
ENDMDL
