MODEL 1
REMARK VINA RESULT:      -8.1      0.000      0.000
REMARK  4 active torsions:
REMARK  status: ('A' for Active; 'I' for Inactive)
REMARK    1  A    between atoms: C7_8  and  N1_9 
REMARK       I    between atoms: N1_9  and  C8_10 
REMARK    2  A    between atoms: C8_10  and  C9_12 
REMARK    3  A    between atoms: C13_16  and  N2_17 
REMARK    4  A    between atoms: N2_17  and  N3_18 
ROOT
HETATM    1  C9  UNL     1      24.121   3.781  51.062  1.00  0.00     0.071 C 
HETATM    2  C10 UNL     1      25.063   3.433  50.193  1.00  0.00     0.002 C 
HETATM    3  C11 UNL     1      25.688   4.154  49.093  1.00  0.00     0.058 C 
HETATM    4  C12 UNL     1      26.220   5.481  49.367  1.00  0.00     0.010 C 
HETATM    5  C13 UNL     1      25.831   6.540  50.086  1.00  0.00     0.074 C 
HETATM    6  C14 UNL     1      24.593   6.600  50.876  1.00  0.00     0.117 C 
HETATM    7  N4  UNL     1      24.281   7.637  51.563  1.00  0.00    -0.291 NA
HETATM    8  S1  UNL     1      23.311   5.392  51.085  1.00  0.00    -0.064 SA
HETATM    9  H15 UNL     1      24.875   8.507  51.614  1.00  0.00     0.187 HD
ENDROOT
BRANCH   1  10
HETATM   10  C8  UNL     1      23.670   2.842  52.087  1.00  0.00     0.262 C 
HETATM   11  N1  UNL     1      23.001   1.614  51.771  1.00  0.00    -0.321 N 
HETATM   12  H7  UNL     1      22.854   1.428  50.753  1.00  0.00     0.169 HD
HETATM   13  O1  UNL     1      23.893   3.154  53.272  1.00  0.00    -0.267 OA
BRANCH  11  14
HETATM   14  C7  UNL     1      22.613   0.785  52.855  1.00  0.00     0.062 A 
HETATM   15  C2  UNL     1      21.315   0.858  53.344  1.00  0.00    -0.034 A 
HETATM   16  C1  UNL     1      20.375   1.799  52.717  1.00  0.00     0.050 C 
HETATM   17  C3  UNL     1      21.026   0.014  54.402  1.00  0.00     0.009 A 
HETATM   18  C4  UNL     1      21.977  -0.839  54.926  1.00  0.00     0.002 A 
HETATM   19  C5  UNL     1      23.252  -0.881  54.415  1.00  0.00     0.026 A 
HETATM   20  C6  UNL     1      23.575  -0.047  53.352  1.00  0.00     0.061 A 
HETATM   21 CL1  UNL     1      25.205  -0.148  52.750  1.00  0.00    -0.082 Cl
ENDBRANCH  11  14
ENDBRANCH   1  10
BRANCH   5  22
HETATM   22  N2  UNL     1      26.583   7.746  50.170  1.00  0.00    -0.321 N 
HETATM   23  H12 UNL     1      26.785   8.133  49.216  1.00  0.00     0.180 HD
BRANCH  22  24
HETATM   24  N3  UNL     1      27.261   8.801  50.742  1.00  0.00    -0.249 NA
HETATM   25  H13 UNL     1      26.662   9.402  51.354  1.00  0.00     0.143 HD
HETATM   26  H14 UNL     1      27.873   9.347  50.099  1.00  0.00     0.143 HD
ENDBRANCH  22  24
ENDBRANCH   5  22
TORSDOF 4
ENDMDL
MODEL 2
REMARK VINA RESULT:      -8.1      1.213      1.929
REMARK  4 active torsions:
REMARK  status: ('A' for Active; 'I' for Inactive)
REMARK    1  A    between atoms: C7_8  and  N1_9 
REMARK       I    between atoms: N1_9  and  C8_10 
REMARK    2  A    between atoms: C8_10  and  C9_12 
REMARK    3  A    between atoms: C13_16  and  N2_17 
REMARK    4  A    between atoms: N2_17  and  N3_18 
ROOT
HETATM    1  C9  UNL     1      24.214   3.823  51.104  1.00  0.00     0.071 C 
HETATM    2  C10 UNL     1      25.198   3.522  50.264  1.00  0.00     0.002 C 
HETATM    3  C11 UNL     1      25.814   4.268  49.176  1.00  0.00     0.058 C 
HETATM    4  C12 UNL     1      26.265   5.625  49.455  1.00  0.00     0.010 C 
HETATM    5  C13 UNL     1      25.799   6.665  50.154  1.00  0.00     0.074 C 
HETATM    6  C14 UNL     1      24.537   6.663  50.908  1.00  0.00     0.117 C 
HETATM    7  N4  UNL     1      24.149   7.685  51.578  1.00  0.00    -0.291 NA
HETATM    8  S1  UNL     1      23.318   5.388  51.091  1.00  0.00    -0.064 SA
HETATM    9  H15 UNL     1      24.694   8.587  51.638  1.00  0.00     0.187 HD
ENDROOT
BRANCH   1  10
HETATM   10  C8  UNL     1      23.786   2.868  52.122  1.00  0.00     0.262 C 
HETATM   11  N1  UNL     1      23.237   1.584  51.798  1.00  0.00    -0.321 N 
HETATM   12  H7  UNL     1      23.160   1.370  50.778  1.00  0.00     0.169 HD
HETATM   13  O1  UNL     1      23.919   3.217  53.311  1.00  0.00    -0.267 OA
BRANCH  11  14
HETATM   14  C7  UNL     1      22.859   0.744  52.877  1.00  0.00     0.062 A 
HETATM   15  C2  UNL     1      23.782  -0.145  53.412  1.00  0.00    -0.034 A 
HETATM   16  C1  UNL     1      25.135  -0.189  52.839  1.00  0.00     0.050 C 
HETATM   17  C3  UNL     1      23.325  -0.923  54.461  1.00  0.00     0.009 A 
HETATM   18  C4  UNL     1      22.033  -0.810  54.934  1.00  0.00     0.002 A 
HETATM   19  C5  UNL     1      21.148   0.082  54.377  1.00  0.00     0.026 A 
HETATM   20  C6  UNL     1      21.574   0.878  53.323  1.00  0.00     0.061 A 
HETATM   21 CL1  UNL     1      20.407   1.988  52.662  1.00  0.00    -0.082 Cl
ENDBRANCH  11  14
ENDBRANCH   1  10
BRANCH   5  22
HETATM   22  N2  UNL     1      26.481   7.911  50.249  1.00  0.00    -0.321 N 
HETATM   23  H12 UNL     1      26.694   8.300  49.299  1.00  0.00     0.180 HD
BRANCH  22  24
HETATM   24  N3  UNL     1      27.081   9.006  50.832  1.00  0.00    -0.249 NA
HETATM   25  H13 UNL     1      26.695   9.243  51.775  1.00  0.00     0.143 HD
HETATM   26  H14 UNL     1      27.202   9.837  50.214  1.00  0.00     0.143 HD
ENDBRANCH  22  24
ENDBRANCH   5  22
TORSDOF 4
ENDMDL
MODEL 3
REMARK VINA RESULT:      -8.0      2.056      2.593
REMARK  4 active torsions:
REMARK  status: ('A' for Active; 'I' for Inactive)
REMARK    1  A    between atoms: C7_8  and  N1_9 
REMARK       I    between atoms: N1_9  and  C8_10 
REMARK    2  A    between atoms: C8_10  and  C9_12 
REMARK    3  A    between atoms: C13_16  and  N2_17 
REMARK    4  A    between atoms: N2_17  and  N3_18 
ROOT
HETATM    1  C9  UNL     1      25.868   4.144  50.238  1.00  0.00     0.071 C 
HETATM    2  C10 UNL     1      26.823   4.366  49.342  1.00  0.00     0.002 C 
HETATM    3  C11 UNL     1      27.054   5.465  48.415  1.00  0.00     0.058 C 
HETATM    4  C12 UNL     1      27.034   6.819  48.950  1.00  0.00     0.010 C 
HETATM    5  C13 UNL     1      26.298   7.484  49.848  1.00  0.00     0.074 C 
HETATM    6  C14 UNL     1      25.180   6.900  50.604  1.00  0.00     0.117 C 
HETATM    7  N4  UNL     1      24.522   7.581  51.468  1.00  0.00    -0.291 NA
HETATM    8  S1  UNL     1      24.492   5.267  50.547  1.00  0.00    -0.064 SA
HETATM    9  H15 UNL     1      24.727   8.591  51.699  1.00  0.00     0.187 HD
ENDROOT
BRANCH   1  10
HETATM   10  C8  UNL     1      25.879   2.932  51.053  1.00  0.00     0.262 C 
HETATM   11  N1  UNL     1      25.350   2.890  52.385  1.00  0.00    -0.321 N 
HETATM   12  H7  UNL     1      24.952   3.788  52.741  1.00  0.00     0.169 HD
HETATM   13  O1  UNL     1      26.376   1.912  50.537  1.00  0.00    -0.267 OA
BRANCH  11  14
HETATM   14  C7  UNL     1      25.418   1.652  53.075  1.00  0.00     0.062 A 
HETATM   15  C2  UNL     1      24.306   0.821  53.107  1.00  0.00    -0.034 A 
HETATM   16  C1  UNL     1      23.081   1.253  52.419  1.00  0.00     0.050 C 
HETATM   17  C3  UNL     1      24.465  -0.364  53.803  1.00  0.00     0.009 A 
HETATM   18  C4  UNL     1      25.657  -0.685  54.420  1.00  0.00     0.002 A 
HETATM   19  C5  UNL     1      26.736   0.165  54.366  1.00  0.00     0.026 A 
HETATM   20  C6  UNL     1      26.611   1.363  53.675  1.00  0.00     0.061 A 
HETATM   21 CL1  UNL     1      28.012   2.394  53.643  1.00  0.00    -0.082 Cl
ENDBRANCH  11  14
ENDBRANCH   1  10
BRANCH   5  22
HETATM   22  N2  UNL     1      26.517   8.851  50.179  1.00  0.00    -0.321 N 
HETATM   23  H12 UNL     1      26.097   9.487  49.459  1.00  0.00     0.180 HD
BRANCH  22  24
HETATM   24  N3  UNL     1      26.959   9.947  50.889  1.00  0.00    -0.249 NA
HETATM   25  H13 UNL     1      27.224  10.758  50.286  1.00  0.00     0.143 HD
HETATM   26  H14 UNL     1      27.653   9.747  51.641  1.00  0.00     0.143 HD
ENDBRANCH  22  24
ENDBRANCH   5  22
TORSDOF 4
ENDMDL
MODEL 4
REMARK VINA RESULT:      -8.0      3.802      6.353
REMARK  4 active torsions:
REMARK  status: ('A' for Active; 'I' for Inactive)
REMARK    1  A    between atoms: C7_8  and  N1_9 
REMARK       I    between atoms: N1_9  and  C8_10 
REMARK    2  A    between atoms: C8_10  and  C9_12 
REMARK    3  A    between atoms: C13_16  and  N2_17 
REMARK    4  A    between atoms: N2_17  and  N3_18 
ROOT
HETATM    1  C9  UNL     1      23.903   0.590  53.052  1.00  0.00     0.071 C 
HETATM    2  C10 UNL     1      22.882  -0.202  53.361  1.00  0.00     0.002 C 
HETATM    3  C11 UNL     1      21.448  -0.073  53.144  1.00  0.00     0.058 C 
HETATM    4  C12 UNL     1      20.991   0.240  51.798  1.00  0.00     0.010 C 
HETATM    5  C13 UNL     1      21.402   1.042  50.808  1.00  0.00     0.074 C 
HETATM    6  C14 UNL     1      22.585   1.912  50.879  1.00  0.00     0.117 C 
HETATM    7  N4  UNL     1      22.943   2.646  49.890  1.00  0.00    -0.291 NA
HETATM    8  S1  UNL     1      23.734   2.173  52.205  1.00  0.00    -0.064 SA
HETATM    9  H15 UNL     1      22.427   2.681  48.970  1.00  0.00     0.187 HD
ENDROOT
BRANCH   1  10
HETATM   10  C8  UNL     1      25.270   0.209  53.394  1.00  0.00     0.262 C 
HETATM   11  N1  UNL     1      26.371   0.379  52.490  1.00  0.00    -0.321 N 
HETATM   12  H7  UNL     1      26.132   0.796  51.562  1.00  0.00     0.169 HD
HETATM   13  O1  UNL     1      25.452  -0.279  54.526  1.00  0.00    -0.267 OA
BRANCH  11  14
HETATM   14  C7  UNL     1      27.653  -0.029  52.939  1.00  0.00     0.062 A 
HETATM   15  C2  UNL     1      28.539   0.916  53.439  1.00  0.00    -0.034 A 
HETATM   16  C1  UNL     1      28.118   2.324  53.487  1.00  0.00     0.050 C 
HETATM   17  C3  UNL     1      29.765   0.427  53.853  1.00  0.00     0.009 A 
HETATM   18  C4  UNL     1      30.073  -0.916  53.768  1.00  0.00     0.002 A 
HETATM   19  C5  UNL     1      29.168  -1.822  53.268  1.00  0.00     0.026 A 
HETATM   20  C6  UNL     1      27.928  -1.364  52.843  1.00  0.00     0.061 A 
HETATM   21 CL1  UNL     1      26.827  -2.559  52.220  1.00  0.00    -0.082 Cl
ENDBRANCH  11  14
ENDBRANCH   1  10
BRANCH   5  22
HETATM   22  N2  UNL     1      20.731   1.145  49.557  1.00  0.00    -0.321 N 
HETATM   23  H12 UNL     1      20.624   0.204  49.106  1.00  0.00     0.180 HD
BRANCH  22  24
HETATM   24  N3  UNL     1      20.089   1.731  48.488  1.00  0.00    -0.249 NA
HETATM   25  H13 UNL     1      19.046   1.668  48.539  1.00  0.00     0.143 HD
HETATM   26  H14 UNL     1      20.472   1.496  47.547  1.00  0.00     0.143 HD
ENDBRANCH  22  24
ENDBRANCH   5  22
TORSDOF 4
ENDMDL
MODEL 5
REMARK VINA RESULT:      -7.6      3.951      5.092
REMARK  4 active torsions:
REMARK  status: ('A' for Active; 'I' for Inactive)
REMARK    1  A    between atoms: C7_8  and  N1_9 
REMARK       I    between atoms: N1_9  and  C8_10 
REMARK    2  A    between atoms: C8_10  and  C9_12 
REMARK    3  A    between atoms: C13_16  and  N2_17 
REMARK    4  A    between atoms: N2_17  and  N3_18 
ROOT
HETATM    1  C9  UNL     1      25.385   0.138  52.672  1.00  0.00     0.071 C 
HETATM    2  C10 UNL     1      25.948  -0.912  53.260  1.00  0.00     0.002 C 
HETATM    3  C11 UNL     1      27.333  -1.350  53.354  1.00  0.00     0.058 C 
HETATM    4  C12 UNL     1      28.323  -0.380  53.802  1.00  0.00     0.010 C 
HETATM    5  C13 UNL     1      28.553   0.921  53.592  1.00  0.00     0.074 C 
HETATM    6  C14 UNL     1      27.729   1.784  52.732  1.00  0.00     0.117 C 
HETATM    7  N4  UNL     1      27.986   3.031  52.584  1.00  0.00    -0.291 NA
HETATM    8  S1  UNL     1      26.299   1.395  51.757  1.00  0.00    -0.064 SA
HETATM    9  H15 UNL     1      28.791   3.524  53.057  1.00  0.00     0.187 HD
ENDROOT
BRANCH   1  10
HETATM   10  C8  UNL     1      23.940   0.341  52.735  1.00  0.00     0.262 C 
HETATM   11  N1  UNL     1      23.000  -0.633  52.260  1.00  0.00    -0.321 N 
HETATM   12  H7  UNL     1      23.416  -1.505  51.862  1.00  0.00     0.169 HD
HETATM   13  O1  UNL     1      23.545   1.414  53.228  1.00  0.00    -0.267 OA
BRANCH  11  14
HETATM   14  C7  UNL     1      21.622  -0.319  52.377  1.00  0.00     0.062 A 
HETATM   15  C2  UNL     1      20.907  -0.764  53.482  1.00  0.00    -0.034 A 
HETATM   16  C1  UNL     1      21.608  -1.553  54.506  1.00  0.00     0.050 C 
HETATM   17  C3  UNL     1      19.570  -0.411  53.511  1.00  0.00     0.009 A 
HETATM   18  C4  UNL     1      18.998   0.335  52.500  1.00  0.00     0.002 A 
HETATM   19  C5  UNL     1      19.738   0.756  51.422  1.00  0.00     0.026 A 
HETATM   20  C6  UNL     1      21.084   0.420  51.361  1.00  0.00     0.061 A 
HETATM   21 CL1  UNL     1      21.967   0.983  49.972  1.00  0.00    -0.082 Cl
ENDBRANCH  11  14
ENDBRANCH   1  10
BRANCH   5  22
HETATM   22  N2  UNL     1      29.636   1.628  54.185  1.00  0.00    -0.321 N 
HETATM   23  H12 UNL     1      30.553   1.337  53.768  1.00  0.00     0.180 HD
BRANCH  22  24
HETATM   24  N3  UNL     1      30.294   2.511  55.015  1.00  0.00    -0.249 NA
HETATM   25  H13 UNL     1      30.797   2.048  55.806  1.00  0.00     0.143 HD
HETATM   26  H14 UNL     1      29.747   3.349  55.307  1.00  0.00     0.143 HD
ENDBRANCH  22  24
ENDBRANCH   5  22
TORSDOF 4
ENDMDL
MODEL 6
REMARK VINA RESULT:      -7.5      2.997      4.351
REMARK  4 active torsions:
REMARK  status: ('A' for Active; 'I' for Inactive)
REMARK    1  A    between atoms: C7_8  and  N1_9 
REMARK       I    between atoms: N1_9  and  C8_10 
REMARK    2  A    between atoms: C8_10  and  C9_12 
REMARK    3  A    between atoms: C13_16  and  N2_17 
REMARK    4  A    between atoms: N2_17  and  N3_18 
ROOT
HETATM    1  C9  UNL     1      26.173   6.486  49.261  1.00  0.00     0.071 C 
HETATM    2  C10 UNL     1      26.982   6.221  48.241  1.00  0.00     0.002 C 
HETATM    3  C11 UNL     1      27.835   7.074  47.426  1.00  0.00     0.058 C 
HETATM    4  C12 UNL     1      28.752   7.972  48.114  1.00  0.00     0.010 C 
HETATM    5  C13 UNL     1      28.698   8.748  49.202  1.00  0.00     0.074 C 
HETATM    6  C14 UNL     1      27.520   8.881  50.071  1.00  0.00     0.117 C 
HETATM    7  N4  UNL     1      27.532   9.626  51.115  1.00  0.00    -0.291 NA
HETATM    8  S1  UNL     1      25.916   8.135  49.944  1.00  0.00    -0.064 SA
HETATM    9  H15 UNL     1      28.370  10.189  51.423  1.00  0.00     0.187 HD
ENDROOT
BRANCH   1  10
HETATM   10  C8  UNL     1      25.418   5.418  49.910  1.00  0.00     0.262 C 
HETATM   11  N1  UNL     1      25.515   4.045  49.505  1.00  0.00    -0.321 N 
HETATM   12  H7  UNL     1      26.164   3.854  48.709  1.00  0.00     0.169 HD
HETATM   13  O1  UNL     1      24.671   5.749  50.850  1.00  0.00    -0.267 OA
BRANCH  11  14
HETATM   14  C7  UNL     1      24.731   3.099  50.215  1.00  0.00     0.062 A 
HETATM   15  C2  UNL     1      25.305   2.369  51.248  1.00  0.00    -0.034 A 
HETATM   16  C1  UNL     1      26.719   2.601  51.577  1.00  0.00     0.050 C 
HETATM   17  C3  UNL     1      24.466   1.471  51.883  1.00  0.00     0.009 A 
HETATM   18  C4  UNL     1      23.147   1.321  51.503  1.00  0.00     0.002 A 
HETATM   19  C5  UNL     1      22.616   2.063  50.474  1.00  0.00     0.026 A 
HETATM   20  C6  UNL     1      23.431   2.974  49.816  1.00  0.00     0.061 A 
HETATM   21 CL1  UNL     1      22.699   3.882  48.524  1.00  0.00    -0.082 Cl
ENDBRANCH  11  14
ENDBRANCH   1  10
BRANCH   5  22
HETATM   22  N2  UNL     1      29.790   9.544  49.649  1.00  0.00    -0.321 N 
HETATM   23  H12 UNL     1      30.154  10.155  48.879  1.00  0.00     0.180 HD
BRANCH  22  24
HETATM   24  N3  UNL     1      30.739  10.059  50.506  1.00  0.00    -0.249 NA
HETATM   25  H13 UNL     1      30.553  11.047  50.793  1.00  0.00     0.143 HD
HETATM   26  H14 UNL     1      31.731   9.886  50.237  1.00  0.00     0.143 HD
ENDBRANCH  22  24
ENDBRANCH   5  22
TORSDOF 4
ENDMDL
MODEL 7
REMARK VINA RESULT:      -7.5      3.703      5.319
REMARK  4 active torsions:
REMARK  status: ('A' for Active; 'I' for Inactive)
REMARK    1  A    between atoms: C7_8  and  N1_9 
REMARK       I    between atoms: N1_9  and  C8_10 
REMARK    2  A    between atoms: C8_10  and  C9_12 
REMARK    3  A    between atoms: C13_16  and  N2_17 
REMARK    4  A    between atoms: N2_17  and  N3_18 
ROOT
HETATM    1  C9  UNL     1      24.700   0.845  52.337  1.00  0.00     0.071 C 
HETATM    2  C10 UNL     1      24.742  -0.080  53.290  1.00  0.00     0.002 C 
HETATM    3  C11 UNL     1      25.849  -0.812  53.888  1.00  0.00     0.058 C 
HETATM    4  C12 UNL     1      26.985  -0.044  54.376  1.00  0.00     0.010 C 
HETATM    5  C13 UNL     1      27.675   1.022  53.953  1.00  0.00     0.074 C 
HETATM    6  C14 UNL     1      27.388   1.760  52.714  1.00  0.00     0.117 C 
HETATM    7  N4  UNL     1      28.072   2.788  52.368  1.00  0.00    -0.291 NA
HETATM    8  S1  UNL     1      26.152   1.475  51.474  1.00  0.00    -0.064 SA
HETATM    9  H15 UNL     1      28.875   3.175  52.933  1.00  0.00     0.187 HD
ENDROOT
BRANCH   1  10
HETATM   10  C8  UNL     1      23.427   1.426  51.920  1.00  0.00     0.262 C 
HETATM   11  N1  UNL     1      22.466   1.940  52.853  1.00  0.00    -0.321 N 
HETATM   12  H7  UNL     1      22.735   1.871  53.861  1.00  0.00     0.169 HD
HETATM   13  O1  UNL     1      23.200   1.462  50.695  1.00  0.00    -0.267 OA
BRANCH  11  14
HETATM   14  C7  UNL     1      21.266   2.480  52.324  1.00  0.00     0.062 A 
HETATM   15  C2  UNL     1      21.211   3.824  51.979  1.00  0.00    -0.034 A 
HETATM   16  C1  UNL     1      22.409   4.654  52.175  1.00  0.00     0.050 C 
HETATM   17  C3  UNL     1      20.001   4.262  51.471  1.00  0.00     0.009 A 
HETATM   18  C4  UNL     1      18.928   3.407  51.323  1.00  0.00     0.002 A 
HETATM   19  C5  UNL     1      19.021   2.082  51.675  1.00  0.00     0.026 A 
HETATM   20  C6  UNL     1      20.222   1.609  52.188  1.00  0.00     0.061 A 
HETATM   21 CL1  UNL     1      20.277  -0.077  52.615  1.00  0.00    -0.082 Cl
ENDBRANCH  11  14
ENDBRANCH   1  10
BRANCH   5  22
HETATM   22  N2  UNL     1      28.779   1.570  54.664  1.00  0.00    -0.321 N 
HETATM   23  H12 UNL     1      28.933   1.067  55.571  1.00  0.00     0.180 HD
BRANCH  22  24
HETATM   24  N3  UNL     1      29.848   2.395  54.939  1.00  0.00    -0.249 NA
HETATM   25  H13 UNL     1      30.593   2.377  54.205  1.00  0.00     0.143 HD
HETATM   26  H14 UNL     1      30.224   2.339  55.910  1.00  0.00     0.143 HD
ENDBRANCH  22  24
ENDBRANCH   5  22
TORSDOF 4
ENDMDL
MODEL 8
REMARK VINA RESULT:      -7.5      3.759      5.360
REMARK  4 active torsions:
REMARK  status: ('A' for Active; 'I' for Inactive)
REMARK    1  A    between atoms: C7_8  and  N1_9 
REMARK       I    between atoms: N1_9  and  C8_10 
REMARK    2  A    between atoms: C8_10  and  C9_12 
REMARK    3  A    between atoms: C13_16  and  N2_17 
REMARK    4  A    between atoms: N2_17  and  N3_18 
ROOT
HETATM    1  C9  UNL     1      24.790   0.958  52.304  1.00  0.00     0.071 C 
HETATM    2  C10 UNL     1      24.799   0.004  53.228  1.00  0.00     0.002 C 
HETATM    3  C11 UNL     1      25.882  -0.760  53.829  1.00  0.00     0.058 C 
HETATM    4  C12 UNL     1      27.017  -0.022  54.366  1.00  0.00     0.010 C 
HETATM    5  C13 UNL     1      27.729   1.046  53.991  1.00  0.00     0.074 C 
HETATM    6  C14 UNL     1      27.480   1.825  52.769  1.00  0.00     0.117 C 
HETATM    7  N4  UNL     1      28.184   2.854  52.470  1.00  0.00    -0.291 NA
HETATM    8  S1  UNL     1      26.269   1.594  51.494  1.00  0.00    -0.064 SA
HETATM    9  H15 UNL     1      28.979   3.214  53.065  1.00  0.00     0.187 HD
ENDROOT
BRANCH   1  10
HETATM   10  C8  UNL     1      23.534   1.568  51.876  1.00  0.00     0.262 C 
HETATM   11  N1  UNL     1      22.695   2.318  52.765  1.00  0.00    -0.321 N 
HETATM   12  H7  UNL     1      23.039   2.402  53.748  1.00  0.00     0.169 HD
HETATM   13  O1  UNL     1      23.211   1.411  50.683  1.00  0.00    -0.267 OA
BRANCH  11  14
HETATM   14  C7  UNL     1      21.499   2.862  52.229  1.00  0.00     0.062 A 
HETATM   15  C2  UNL     1      20.309   2.155  52.347  1.00  0.00    -0.034 A 
HETATM   16  C1  UNL     1      20.326   0.853  53.030  1.00  0.00     0.050 C 
HETATM   17  C3  UNL     1      19.195   2.763  51.796  1.00  0.00     0.009 A 
HETATM   18  C4  UNL     1      19.277   3.991  51.173  1.00  0.00     0.002 A 
HETATM   19  C5  UNL     1      20.474   4.661  51.076  1.00  0.00     0.026 A 
HETATM   20  C6  UNL     1      21.611   4.079  51.619  1.00  0.00     0.061 A 
HETATM   21 CL1  UNL     1      23.095   4.976  51.464  1.00  0.00    -0.082 Cl
ENDBRANCH  11  14
ENDBRANCH   1  10
BRANCH   5  22
HETATM   22  N2  UNL     1      28.824   1.558  54.743  1.00  0.00    -0.321 N 
HETATM   23  H12 UNL     1      28.930   1.047  55.653  1.00  0.00     0.180 HD
BRANCH  22  24
HETATM   24  N3  UNL     1      29.907   2.350  55.060  1.00  0.00    -0.249 NA
HETATM   25  H13 UNL     1      30.316   2.849  54.237  1.00  0.00     0.143 HD
HETATM   26  H14 UNL     1      30.624   1.909  55.675  1.00  0.00     0.143 HD
ENDBRANCH  22  24
ENDBRANCH   5  22
TORSDOF 4
ENDMDL
MODEL 9
REMARK VINA RESULT:      -7.2      8.116     10.646
REMARK  4 active torsions:
REMARK  status: ('A' for Active; 'I' for Inactive)
REMARK    1  A    between atoms: C7_8  and  N1_9 
REMARK       I    between atoms: N1_9  and  C8_10 
REMARK    2  A    between atoms: C8_10  and  C9_12 
REMARK    3  A    between atoms: C13_16  and  N2_17 
REMARK    4  A    between atoms: N2_17  and  N3_18 
ROOT
HETATM    1  C9  UNL     1      32.624   6.494  47.638  1.00  0.00     0.071 C 
HETATM    2  C10 UNL     1      32.790   5.200  47.886  1.00  0.00     0.002 C 
HETATM    3  C11 UNL     1      33.978   4.358  47.916  1.00  0.00     0.058 C 
HETATM    4  C12 UNL     1      35.109   4.810  48.713  1.00  0.00     0.010 C 
HETATM    5  C13 UNL     1      35.706   5.983  48.952  1.00  0.00     0.074 C 
HETATM    6  C14 UNL     1      35.283   7.265  48.371  1.00  0.00     0.117 C 
HETATM    7  N4  UNL     1      35.883   8.364  48.652  1.00  0.00    -0.291 NA
HETATM    8  S1  UNL     1      33.967   7.628  47.238  1.00  0.00    -0.064 SA
HETATM    9  H15 UNL     1      36.708   8.430  49.307  1.00  0.00     0.187 HD
ENDROOT
BRANCH   1  10
HETATM   10  C8  UNL     1      31.293   7.094  47.676  1.00  0.00     0.262 C 
HETATM   11  N1  UNL     1      30.500   7.145  48.870  1.00  0.00    -0.321 N 
HETATM   12  H7  UNL     1      30.936   6.722  49.720  1.00  0.00     0.169 HD
HETATM   13  O1  UNL     1      30.861   7.572  46.610  1.00  0.00    -0.267 OA
BRANCH  11  14
HETATM   14  C7  UNL     1      29.222   7.755  48.780  1.00  0.00     0.062 A 
HETATM   15  C2  UNL     1      28.108   6.976  48.495  1.00  0.00    -0.034 A 
HETATM   16  C1  UNL     1      28.289   5.531  48.294  1.00  0.00     0.050 C 
HETATM   17  C3  UNL     1      26.905   7.656  48.426  1.00  0.00     0.009 A 
HETATM   18  C4  UNL     1      26.833   9.019  48.630  1.00  0.00     0.002 A 
HETATM   19  C5  UNL     1      27.959   9.756  48.910  1.00  0.00     0.026 A 
HETATM   20  C6  UNL     1      29.183   9.105  48.987  1.00  0.00     0.061 A 
HETATM   21 CL1  UNL     1      30.571  10.093  49.344  1.00  0.00    -0.082 Cl
ENDBRANCH  11  14
ENDBRANCH   1  10
BRANCH   5  22
HETATM   22  N2  UNL     1      36.835   6.125  49.807  1.00  0.00    -0.321 N 
HETATM   23  H12 UNL     1      37.557   6.754  49.380  1.00  0.00     0.180 HD
BRANCH  22  24
HETATM   24  N3  UNL     1      37.640   5.951  50.913  1.00  0.00    -0.249 NA
HETATM   25  H13 UNL     1      38.066   6.839  51.265  1.00  0.00     0.143 HD
HETATM   26  H14 UNL     1      38.317   5.160  50.859  1.00  0.00     0.143 HD
ENDBRANCH  22  24
ENDBRANCH   5  22
TORSDOF 4
ENDMDL
