MODEL 1
REMARK VINA RESULT:      -7.3      0.000      0.000
REMARK  5 active torsions:
REMARK  status: ('A' for Active; 'I' for Inactive)
REMARK    1  A    between atoms: O1_2  and  C2_3 
REMARK    2  A    between atoms: C8_10  and  O2_11 
REMARK    3  A    between atoms: C9_12  and  C10_13 
REMARK    4  A    between atoms: C10_13  and  C11_14 
REMARK    5  A    between atoms: C12_15  and  C13_16 
ROOT
HETATM    1  C2  UNL     1      20.088   2.501  52.072  1.00  0.00     0.099 C 
HETATM    2  C3  UNL     1      20.925   2.716  51.062  1.00  0.00     0.122 C 
HETATM    3  N1  UNL     1      22.203   2.572  51.346  1.00  0.00    -0.242 NA
HETATM    4  C4  UNL     1      22.513   1.609  52.385  1.00  0.00     0.080 C 
HETATM    5  C5  UNL     1      23.854   1.563  52.094  1.00  0.00     0.048 C 
HETATM    6  C6  UNL     1      25.204   1.667  51.624  1.00  0.00     0.091 C 
HETATM    7  C7  UNL     1      25.652   3.085  51.249  1.00  0.00     0.021 C 
HETATM    8  C8  UNL     1      25.587   1.410  53.083  1.00  0.00     0.156 C 
HETATM    9  C9  UNL     1      26.893   0.639  53.132  1.00  0.00     0.051 C 
HETATM   10  S1  UNL     1      26.175   0.240  54.787  1.00  0.00    -0.139 SA
HETATM   11  C14 UNL     1      24.722  -0.597  53.973  1.00  0.00     0.200 C 
HETATM   12  N3  UNL     1      24.456   0.565  53.062  1.00  0.00    -0.339 N 
HETATM   13  C15 UNL     1      21.509   1.096  53.275  1.00  0.00     0.036 C 
HETATM   14  C16 UNL     1      20.294   1.544  53.112  1.00  0.00     0.041 C 
ENDROOT
BRANCH   8  15
HETATM   15  O2  UNL     1      25.602   2.559  53.809  1.00  0.00    -0.369 OA
HETATM   16  H8  UNL     1      24.780   3.070  53.831  1.00  0.00     0.212 HD
ENDBRANCH   8  15
BRANCH   9  17
HETATM   17  C10 UNL     1      27.999  -0.102  53.353  1.00  0.00     0.072 C 
BRANCH  17  18
HETATM   18  C11 UNL     1      29.476  -0.178  53.633  1.00  0.00     0.006 C 
HETATM   19  C12 UNL     1      29.845  -1.494  53.377  1.00  0.00     0.020 C 
BRANCH  19  20
HETATM   20  C13 UNL     1      28.805  -2.355  52.944  1.00  0.00     0.103 C 
HETATM   21  N2  UNL     1      29.439  -3.222  53.687  1.00  0.00    -0.313 NA
HETATM   22  H13 UNL     1      29.043  -4.210  53.748  1.00  0.00     0.186 HD
ENDBRANCH  19  20
ENDBRANCH  17  18
ENDBRANCH   9  17
BRANCH   1  23
HETATM   23  O1  UNL     1      18.913   3.269  52.131  1.00  0.00    -0.353 OA
HETATM   24  C1  UNL     1      18.357   3.924  51.020  1.00  0.00     0.210 C 
ENDBRANCH   1  23
TORSDOF 5
ENDMDL
MODEL 2
REMARK VINA RESULT:      -7.2      3.194      8.061
REMARK  5 active torsions:
REMARK  status: ('A' for Active; 'I' for Inactive)
REMARK    1  A    between atoms: O1_2  and  C2_3 
REMARK    2  A    between atoms: C8_10  and  O2_11 
REMARK    3  A    between atoms: C9_12  and  C10_13 
REMARK    4  A    between atoms: C10_13  and  C11_14 
REMARK    5  A    between atoms: C12_15  and  C13_16 
ROOT
HETATM    1  C2  UNL     1      26.877   0.767  54.081  1.00  0.00     0.099 C 
HETATM    2  C3  UNL     1      26.423  -0.482  54.132  1.00  0.00     0.122 C 
HETATM    3  N1  UNL     1      25.112  -0.609  54.090  1.00  0.00    -0.242 NA
HETATM    4  C4  UNL     1      24.403   0.419  53.351  1.00  0.00     0.080 C 
HETATM    5  C5  UNL     1      23.223  -0.280  53.299  1.00  0.00     0.048 C 
HETATM    6  C6  UNL     1      22.104  -1.174  53.362  1.00  0.00     0.091 C 
HETATM    7  C7  UNL     1      21.931  -1.905  54.699  1.00  0.00     0.021 C 
HETATM    8  C8  UNL     1      21.261   0.102  53.398  1.00  0.00     0.156 C 
HETATM    9  C9  UNL     1      19.938  -0.148  52.697  1.00  0.00     0.051 C 
HETATM   10  S1  UNL     1      20.061   1.693  52.591  1.00  0.00    -0.139 SA
HETATM   11  C14 UNL     1      21.610   1.547  51.564  1.00  0.00     0.200 C 
HETATM   12  N3  UNL     1      22.256   0.591  52.523  1.00  0.00    -0.339 N 
HETATM   13  C15 UNL     1      25.024   1.659  52.980  1.00  0.00     0.036 C 
HETATM   14  C16 UNL     1      26.266   1.827  53.344  1.00  0.00     0.041 C 
ENDROOT
BRANCH   8  15
HETATM   15  O2  UNL     1      21.127   0.582  54.663  1.00  0.00    -0.369 OA
HETATM   16  H8  UNL     1      21.836   0.365  55.287  1.00  0.00     0.212 HD
ENDBRANCH   8  15
BRANCH   9  17
HETATM   17  C10 UNL     1      18.754  -0.178  52.050  1.00  0.00     0.072 C 
BRANCH  17  18
HETATM   18  C11 UNL     1      17.682   0.536  51.272  1.00  0.00     0.006 C 
HETATM   19  C12 UNL     1      16.472   0.077  51.781  1.00  0.00     0.020 C 
BRANCH  19  20
HETATM   20  C13 UNL     1      16.563  -0.873  52.830  1.00  0.00     0.103 C 
HETATM   21  N2  UNL     1      15.466  -0.287  53.231  1.00  0.00    -0.313 NA
HETATM   22  H13 UNL     1      15.008  -0.645  54.124  1.00  0.00     0.186 HD
ENDBRANCH  19  20
ENDBRANCH  17  18
ENDBRANCH   9  17
BRANCH   1  23
HETATM   23  O1  UNL     1      28.041   1.075  54.803  1.00  0.00    -0.353 OA
HETATM   24  C1  UNL     1      29.315   1.170  54.220  1.00  0.00     0.210 C 
ENDBRANCH   1  23
TORSDOF 5
ENDMDL
MODEL 3
REMARK VINA RESULT:      -7.2      3.629      6.703
REMARK  5 active torsions:
REMARK  status: ('A' for Active; 'I' for Inactive)
REMARK    1  A    between atoms: O1_2  and  C2_3 
REMARK    2  A    between atoms: C8_10  and  O2_11 
REMARK    3  A    between atoms: C9_12  and  C10_13 
REMARK    4  A    between atoms: C10_13  and  C11_14 
REMARK    5  A    between atoms: C12_15  and  C13_16 
ROOT
HETATM    1  C2  UNL     1      27.381   6.298  48.330  1.00  0.00     0.099 C 
HETATM    2  C3  UNL     1      27.970   5.125  48.542  1.00  0.00     0.122 C 
HETATM    3  N1  UNL     1      27.372   4.340  49.414  1.00  0.00    -0.242 NA
HETATM    4  C4  UNL     1      25.931   4.483  49.505  1.00  0.00     0.080 C 
HETATM    5  C5  UNL     1      25.751   3.321  50.213  1.00  0.00     0.048 C 
HETATM    6  C6  UNL     1      25.793   2.085  50.938  1.00  0.00     0.091 C 
HETATM    7  C7  UNL     1      26.963   1.947  51.919  1.00  0.00     0.021 C 
HETATM    8  C8  UNL     1      24.589   2.648  51.697  1.00  0.00     0.156 C 
HETATM    9  C9  UNL     1      23.670   1.509  52.098  1.00  0.00     0.051 C 
HETATM   10  S1  UNL     1      22.509   2.946  52.147  1.00  0.00    -0.139 SA
HETATM   11  C14 UNL     1      22.762   3.234  50.322  1.00  0.00     0.200 C 
HETATM   12  N3  UNL     1      24.258   3.198  50.440  1.00  0.00    -0.339 N 
HETATM   13  C15 UNL     1      25.239   5.612  48.949  1.00  0.00     0.036 C 
HETATM   14  C16 UNL     1      25.970   6.518  48.358  1.00  0.00     0.041 C 
ENDROOT
BRANCH   8  15
HETATM   15  O2  UNL     1      24.974   3.433  52.738  1.00  0.00    -0.369 OA
HETATM   16  H8  UNL     1      25.035   3.005  53.605  1.00  0.00     0.212 HD
ENDBRANCH   8  15
BRANCH   9  17
HETATM   17  C10 UNL     1      22.713   0.631  52.466  1.00  0.00     0.072 C 
BRANCH  17  18
HETATM   18  C11 UNL     1      21.340   0.049  52.265  1.00  0.00     0.006 C 
HETATM   19  C12 UNL     1      21.035  -0.623  53.444  1.00  0.00     0.020 C 
BRANCH  19  20
HETATM   20  C13 UNL     1      22.028  -0.580  54.455  1.00  0.00     0.103 C 
HETATM   21  N2  UNL     1      21.279  -1.501  54.998  1.00  0.00    -0.313 NA
HETATM   22  H13 UNL     1      21.589  -1.909  55.933  1.00  0.00     0.186 HD
ENDBRANCH  19  20
ENDBRANCH  17  18
ENDBRANCH   9  17
BRANCH   1  23
HETATM   23  O1  UNL     1      28.198   7.408  48.062  1.00  0.00    -0.353 OA
HETATM   24  C1  UNL     1      28.378   8.474  48.959  1.00  0.00     0.210 C 
ENDBRANCH   1  23
TORSDOF 5
ENDMDL
MODEL 4
REMARK VINA RESULT:      -6.6      3.691      6.603
REMARK  5 active torsions:
REMARK  status: ('A' for Active; 'I' for Inactive)
REMARK    1  A    between atoms: O1_2  and  C2_3 
REMARK    2  A    between atoms: C8_10  and  O2_11 
REMARK    3  A    between atoms: C9_12  and  C10_13 
REMARK    4  A    between atoms: C10_13  and  C11_14 
REMARK    5  A    between atoms: C12_15  and  C13_16 
ROOT
HETATM    1  C2  UNL     1      26.741   6.395  48.793  1.00  0.00     0.099 C 
HETATM    2  C3  UNL     1      26.009   6.981  49.735  1.00  0.00     0.122 C 
HETATM    3  N1  UNL     1      25.044   6.242  50.243  1.00  0.00    -0.242 NA
HETATM    4  C4  UNL     1      25.291   4.813  50.266  1.00  0.00     0.080 C 
HETATM    5  C5  UNL     1      24.258   4.538  51.127  1.00  0.00     0.048 C 
HETATM    6  C6  UNL     1      23.140   4.479  52.023  1.00  0.00     0.091 C 
HETATM    7  C7  UNL     1      21.970   5.402  51.661  1.00  0.00     0.021 C 
HETATM    8  C8  UNL     1      22.884   3.107  51.395  1.00  0.00     0.156 C 
HETATM    9  C9  UNL     1      22.283   2.182  52.436  1.00  0.00     0.051 C 
HETATM   10  S1  UNL     1      22.984   0.966  51.234  1.00  0.00    -0.139 SA
HETATM   11  C14 UNL     1      24.703   1.611  51.560  1.00  0.00     0.200 C 
HETATM   12  N3  UNL     1      24.294   3.041  51.358  1.00  0.00    -0.339 N 
HETATM   13  C15 UNL     1      26.341   4.207  49.497  1.00  0.00     0.036 C 
HETATM   14  C16 UNL     1      27.068   5.004  48.762  1.00  0.00     0.041 C 
ENDROOT
BRANCH   8  15
HETATM   15  O2  UNL     1      22.147   3.204  50.257  1.00  0.00    -0.369 OA
HETATM   16  H8  UNL     1      21.401   2.591  50.169  1.00  0.00     0.212 HD
ENDBRANCH   8  15
BRANCH   9  17
HETATM   17  C10 UNL     1      21.813   1.213  53.251  1.00  0.00     0.072 C 
BRANCH  17  18
HETATM   18  C11 UNL     1      20.653   0.550  53.943  1.00  0.00     0.006 C 
HETATM   19  C12 UNL     1      21.187  -0.541  54.620  1.00  0.00     0.020 C 
BRANCH  19  20
HETATM   20  C13 UNL     1      22.588  -0.724  54.492  1.00  0.00     0.103 C 
HETATM   21  N2  UNL     1      22.368  -1.705  55.325  1.00  0.00    -0.313 NA
HETATM   22  H13 UNL     1      23.203  -2.292  55.635  1.00  0.00     0.186 HD
ENDBRANCH  19  20
ENDBRANCH  17  18
ENDBRANCH   9  17
BRANCH   1  23
HETATM   23  O1  UNL     1      27.231   7.192  47.746  1.00  0.00    -0.353 OA
HETATM   24  C1  UNL     1      28.591   7.272  47.402  1.00  0.00     0.210 C 
ENDBRANCH   1  23
TORSDOF 5
ENDMDL
MODEL 5
REMARK VINA RESULT:      -6.5      2.573      7.869
REMARK  5 active torsions:
REMARK  status: ('A' for Active; 'I' for Inactive)
REMARK    1  A    between atoms: O1_2  and  C2_3 
REMARK    2  A    between atoms: C8_10  and  O2_11 
REMARK    3  A    between atoms: C9_12  and  C10_13 
REMARK    4  A    between atoms: C10_13  and  C11_14 
REMARK    5  A    between atoms: C12_15  and  C13_16 
ROOT
HETATM    1  C2  UNL     1      27.899   0.536  53.546  1.00  0.00     0.099 C 
HETATM    2  C3  UNL     1      27.502   1.783  53.779  1.00  0.00     0.122 C 
HETATM    3  N1  UNL     1      26.343   2.116  53.249  1.00  0.00    -0.242 NA
HETATM    4  C4  UNL     1      25.383   1.039  53.106  1.00  0.00     0.080 C 
HETATM    5  C5  UNL     1      24.318   1.872  52.868  1.00  0.00     0.048 C 
HETATM    6  C6  UNL     1      23.360   2.914  52.643  1.00  0.00     0.091 C 
HETATM    7  C7  UNL     1      23.861   4.082  51.784  1.00  0.00     0.021 C 
HETATM    8  C8  UNL     1      22.676   1.899  51.725  1.00  0.00     0.156 C 
HETATM    9  C9  UNL     1      21.175   2.119  51.761  1.00  0.00     0.051 C 
HETATM   10  S1  UNL     1      21.270   0.365  51.187  1.00  0.00    -0.139 SA
HETATM   11  C14 UNL     1      22.096  -0.130  52.783  1.00  0.00     0.200 C 
HETATM   12  N3  UNL     1      23.113   0.970  52.694  1.00  0.00    -0.339 N 
HETATM   13  C15 UNL     1      25.764  -0.342  53.209  1.00  0.00     0.036 C 
HETATM   14  C16 UNL     1      27.026  -0.590  53.434  1.00  0.00     0.041 C 
ENDROOT
BRANCH   8  15
HETATM   15  O2  UNL     1      23.202   1.920  50.471  1.00  0.00    -0.369 OA
HETATM   16  H8  UNL     1      22.658   1.539  49.766  1.00  0.00     0.212 HD
ENDBRANCH   8  15
BRANCH   9  17
HETATM   17  C10 UNL     1      19.825   2.131  51.733  1.00  0.00     0.072 C 
BRANCH  17  18
HETATM   18  C11 UNL     1      18.528   1.434  51.425  1.00  0.00     0.006 C 
HETATM   19  C12 UNL     1      17.574   2.440  51.308  1.00  0.00     0.020 C 
BRANCH  19  20
HETATM   20  C13 UNL     1      18.046   3.764  51.492  1.00  0.00     0.103 C 
HETATM   21  N2  UNL     1      16.880   3.924  52.057  1.00  0.00    -0.313 NA
HETATM   22  H13 UNL     1      16.643   4.887  52.448  1.00  0.00     0.186 HD
ENDBRANCH  19  20
ENDBRANCH  17  18
ENDBRANCH   9  17
BRANCH   1  23
HETATM   23  O1  UNL     1      29.274   0.297  53.396  1.00  0.00    -0.353 OA
HETATM   24  C1  UNL     1      29.879  -0.946  53.644  1.00  0.00     0.210 C 
ENDBRANCH   1  23
TORSDOF 5
ENDMDL
MODEL 6
REMARK VINA RESULT:      -6.3      3.779      5.844
REMARK  5 active torsions:
REMARK  status: ('A' for Active; 'I' for Inactive)
REMARK    1  A    between atoms: O1_2  and  C2_3 
REMARK    2  A    between atoms: C8_10  and  O2_11 
REMARK    3  A    between atoms: C9_12  and  C10_13 
REMARK    4  A    between atoms: C10_13  and  C11_14 
REMARK    5  A    between atoms: C12_15  and  C13_16 
ROOT
HETATM    1  C2  UNL     1      23.080   7.819  50.238  1.00  0.00     0.099 C 
HETATM    2  C3  UNL     1      21.854   7.649  50.724  1.00  0.00     0.122 C 
HETATM    3  N1  UNL     1      21.514   6.402  50.977  1.00  0.00    -0.242 NA
HETATM    4  C4  UNL     1      22.600   5.516  51.353  1.00  0.00     0.080 C 
HETATM    5  C5  UNL     1      21.774   4.522  51.816  1.00  0.00     0.048 C 
HETATM    6  C6  UNL     1      20.739   3.626  52.241  1.00  0.00     0.091 C 
HETATM    7  C7  UNL     1      19.518   3.561  51.316  1.00  0.00     0.021 C 
HETATM    8  C8  UNL     1      21.715   2.522  51.829  1.00  0.00     0.156 C 
HETATM    9  C9  UNL     1      21.525   1.319  52.734  1.00  0.00     0.051 C 
HETATM   10  S1  UNL     1      23.243   1.037  52.115  1.00  0.00    -0.139 SA
HETATM   11  C14 UNL     1      23.809   2.624  52.915  1.00  0.00     0.200 C 
HETATM   12  N3  UNL     1      22.687   3.422  52.318  1.00  0.00    -0.339 N 
HETATM   13  C15 UNL     1      23.977   5.865  51.142  1.00  0.00     0.036 C 
HETATM   14  C16 UNL     1      24.213   7.022  50.586  1.00  0.00     0.041 C 
ENDROOT
BRANCH   8  15
HETATM   15  O2  UNL     1      21.617   2.231  50.505  1.00  0.00    -0.369 OA
HETATM   16  H8  UNL     1      22.406   2.389  49.966  1.00  0.00     0.212 HD
ENDBRANCH   8  15
BRANCH   9  17
HETATM   17  C10 UNL     1      21.536   0.199  53.488  1.00  0.00     0.072 C 
BRANCH  17  18
HETATM   18  C11 UNL     1      20.929  -1.131  53.845  1.00  0.00     0.006 C 
HETATM   19  C12 UNL     1      21.805  -1.718  54.751  1.00  0.00     0.020 C 
BRANCH  19  20
HETATM   20  C13 UNL     1      22.956  -0.958  55.080  1.00  0.00     0.103 C 
HETATM   21  N2  UNL     1      23.166  -1.945  55.910  1.00  0.00    -0.313 NA
HETATM   22  H13 UNL     1      24.036  -1.903  56.524  1.00  0.00     0.186 HD
ENDBRANCH  19  20
ENDBRANCH  17  18
ENDBRANCH   9  17
BRANCH   1  23
HETATM   23  O1  UNL     1      23.284   8.854  49.311  1.00  0.00    -0.353 OA
HETATM   24  C1  UNL     1      22.272   9.368  48.484  1.00  0.00     0.210 C 
ENDBRANCH   1  23
TORSDOF 5
ENDMDL
MODEL 7
REMARK VINA RESULT:      -6.3      2.628      3.295
REMARK  5 active torsions:
REMARK  status: ('A' for Active; 'I' for Inactive)
REMARK    1  A    between atoms: O1_2  and  C2_3 
REMARK    2  A    between atoms: C8_10  and  O2_11 
REMARK    3  A    between atoms: C9_12  and  C10_13 
REMARK    4  A    between atoms: C10_13  and  C11_14 
REMARK    5  A    between atoms: C12_15  and  C13_16 
ROOT
HETATM    1  C2  UNL     1      20.878   5.191  48.199  1.00  0.00     0.099 C 
HETATM    2  C3  UNL     1      22.035   5.067  47.555  1.00  0.00     0.122 C 
HETATM    3  N1  UNL     1      23.039   4.618  48.279  1.00  0.00    -0.242 NA
HETATM    4  C4  UNL     1      22.684   3.721  49.363  1.00  0.00     0.080 C 
HETATM    5  C5  UNL     1      23.969   3.288  49.571  1.00  0.00     0.048 C 
HETATM    6  C6  UNL     1      25.368   2.977  49.616  1.00  0.00     0.091 C 
HETATM    7  C7  UNL     1      26.305   4.176  49.424  1.00  0.00     0.021 C 
HETATM    8  C8  UNL     1      25.137   2.782  51.116  1.00  0.00     0.156 C 
HETATM    9  C9  UNL     1      26.067   1.699  51.631  1.00  0.00     0.051 C 
HETATM   10  S1  UNL     1      24.742   1.682  52.920  1.00  0.00    -0.139 SA
HETATM   11  C14 UNL     1      23.481   1.183  51.641  1.00  0.00     0.200 C 
HETATM   12  N3  UNL     1      23.890   2.272  50.693  1.00  0.00    -0.339 N 
HETATM   13  C15 UNL     1      21.334   3.592  49.835  1.00  0.00     0.036 C 
HETATM   14  C16 UNL     1      20.431   4.328  49.246  1.00  0.00     0.041 C 
ENDROOT
BRANCH   8  15
HETATM   15  O2  UNL     1      25.232   3.954  51.797  1.00  0.00    -0.369 OA
HETATM   16  H8  UNL     1      26.066   4.121  52.261  1.00  0.00     0.212 HD
ENDBRANCH   8  15
BRANCH   9  17
HETATM   17  C10 UNL     1      26.767   0.716  52.236  1.00  0.00     0.072 C 
BRANCH  17  18
HETATM   18  C11 UNL     1      27.856   0.294  53.185  1.00  0.00     0.006 C 
HETATM   19  C12 UNL     1      27.795  -1.094  53.241  1.00  0.00     0.020 C 
BRANCH  19  20
HETATM   20  C13 UNL     1      26.796  -1.703  52.439  1.00  0.00     0.103 C 
HETATM   21  N2  UNL     1      27.512  -2.774  52.654  1.00  0.00    -0.313 NA
HETATM   22  H13 UNL     1      27.182  -3.689  52.218  1.00  0.00     0.186 HD
ENDBRANCH  19  20
ENDBRANCH  17  18
ENDBRANCH   9  17
BRANCH   1  23
HETATM   23  O1  UNL     1      20.028   6.247  47.831  1.00  0.00    -0.353 OA
HETATM   24  C1  UNL     1      19.389   7.088  48.757  1.00  0.00     0.210 C 
ENDBRANCH   1  23
TORSDOF 5
ENDMDL
MODEL 8
REMARK VINA RESULT:      -6.0      4.116      5.953
REMARK  5 active torsions:
REMARK  status: ('A' for Active; 'I' for Inactive)
REMARK    1  A    between atoms: O1_2  and  C2_3 
REMARK    2  A    between atoms: C8_10  and  O2_11 
REMARK    3  A    between atoms: C9_12  and  C10_13 
REMARK    4  A    between atoms: C10_13  and  C11_14 
REMARK    5  A    between atoms: C12_15  and  C13_16 
ROOT
HETATM    1  C2  UNL     1      24.072   8.198  49.069  1.00  0.00     0.099 C 
HETATM    2  C3  UNL     1      23.206   7.368  48.494  1.00  0.00     0.122 C 
HETATM    3  N1  UNL     1      23.272   6.115  48.896  1.00  0.00    -0.242 NA
HETATM    4  C4  UNL     1      23.709   5.914  50.265  1.00  0.00     0.080 C 
HETATM    5  C5  UNL     1      23.308   4.602  50.315  1.00  0.00     0.048 C 
HETATM    6  C6  UNL     1      22.819   3.265  50.150  1.00  0.00     0.091 C 
HETATM    7  C7  UNL     1      23.109   2.632  48.783  1.00  0.00     0.021 C 
HETATM    8  C8  UNL     1      23.947   2.880  51.109  1.00  0.00     0.156 C 
HETATM    9  C9  UNL     1      23.510   1.695  51.950  1.00  0.00     0.051 C 
HETATM   10  S1  UNL     1      24.847   2.414  53.005  1.00  0.00    -0.139 SA
HETATM   11  C14 UNL     1      23.874   3.994  53.189  1.00  0.00     0.200 C 
HETATM   12  N3  UNL     1      23.638   4.119  51.713  1.00  0.00    -0.339 N 
HETATM   13  C15 UNL     1      24.345   6.954  51.024  1.00  0.00     0.036 C 
HETATM   14  C16 UNL     1      24.522   8.099  50.421  1.00  0.00     0.041 C 
ENDROOT
BRANCH   8  15
HETATM   15  O2  UNL     1      25.121   2.682  50.452  1.00  0.00    -0.369 OA
HETATM   16  H8  UNL     1      25.347   1.766  50.233  1.00  0.00     0.212 HD
ENDBRANCH   8  15
BRANCH   9  17
HETATM   17  C10 UNL     1      23.257   0.698  52.825  1.00  0.00     0.072 C 
BRANCH  17  18
HETATM   18  C11 UNL     1      23.709  -0.547  53.538  1.00  0.00     0.006 C 
HETATM   19  C12 UNL     1      22.640  -0.936  54.339  1.00  0.00     0.020 C 
BRANCH  19  20
HETATM   20  C13 UNL     1      21.486  -0.115  54.271  1.00  0.00     0.103 C 
HETATM   21  N2  UNL     1      20.928  -1.136  54.865  1.00  0.00    -0.313 NA
HETATM   22  H13 UNL     1      19.891  -1.070  55.100  1.00  0.00     0.186 HD
ENDBRANCH  19  20
ENDBRANCH  17  18
ENDBRANCH   9  17
BRANCH   1  23
HETATM   23  O1  UNL     1      24.590   9.250  48.296  1.00  0.00    -0.353 OA
HETATM   24  C1  UNL     1      23.809  10.307  47.800  1.00  0.00     0.210 C 
ENDBRANCH   1  23
TORSDOF 5
ENDMDL
MODEL 9
REMARK VINA RESULT:      -6.0      7.923      9.388
REMARK  5 active torsions:
REMARK  status: ('A' for Active; 'I' for Inactive)
REMARK    1  A    between atoms: O1_2  and  C2_3 
REMARK    2  A    between atoms: C8_10  and  O2_11 
REMARK    3  A    between atoms: C9_12  and  C10_13 
REMARK    4  A    between atoms: C10_13  and  C11_14 
REMARK    5  A    between atoms: C12_15  and  C13_16 
ROOT
HETATM    1  C2  UNL     1      25.113   5.138  49.141  1.00  0.00     0.099 C 
HETATM    2  C3  UNL     1      25.145   6.227  48.380  1.00  0.00     0.122 C 
HETATM    3  N1  UNL     1      26.314   6.830  48.304  1.00  0.00    -0.242 NA
HETATM    4  C4  UNL     1      27.475   5.971  48.432  1.00  0.00     0.080 C 
HETATM    5  C5  UNL     1      28.360   6.914  47.971  1.00  0.00     0.048 C 
HETATM    6  C6  UNL     1      29.098   8.035  47.469  1.00  0.00     0.091 C 
HETATM    7  C7  UNL     1      28.656   9.399  48.013  1.00  0.00     0.021 C 
HETATM    8  C8  UNL     1      30.232   7.509  48.351  1.00  0.00     0.156 C 
HETATM    9  C9  UNL     1      31.565   7.817  47.694  1.00  0.00     0.051 C 
HETATM   10  S1  UNL     1      32.026   6.417  48.809  1.00  0.00    -0.139 SA
HETATM   11  C14 UNL     1      30.867   5.283  47.890  1.00  0.00     0.200 C 
HETATM   12  N3  UNL     1      29.721   6.247  47.977  1.00  0.00    -0.339 N 
HETATM   13  C15 UNL     1      27.381   4.630  48.939  1.00  0.00     0.036 C 
HETATM   14  C16 UNL     1      26.194   4.216  49.290  1.00  0.00     0.041 C 
ENDROOT
BRANCH   8  15
HETATM   15  O2  UNL     1      30.132   7.968  49.627  1.00  0.00    -0.369 OA
HETATM   16  H8  UNL     1      29.675   7.395  50.260  1.00  0.00     0.212 HD
ENDBRANCH   8  15
BRANCH   9  17
HETATM   17  C10 UNL     1      32.822   7.947  47.218  1.00  0.00     0.072 C 
BRANCH  17  18
HETATM   18  C11 UNL     1      33.813   8.681  46.357  1.00  0.00     0.006 C 
HETATM   19  C12 UNL     1      35.020   8.642  47.047  1.00  0.00     0.020 C 
BRANCH  19  20
HETATM   20  C13 UNL     1      34.999   7.962  48.291  1.00  0.00     0.103 C 
HETATM   21  N2  UNL     1      36.153   8.553  48.445  1.00  0.00    -0.313 NA
HETATM   22  H13 UNL     1      36.686   8.377  49.351  1.00  0.00     0.186 HD
ENDBRANCH  19  20
ENDBRANCH  17  18
ENDBRANCH   9  17
BRANCH   1  23
HETATM   23  O1  UNL     1      23.936   4.866  49.857  1.00  0.00    -0.353 OA
HETATM   24  C1  UNL     1      23.276   3.627  49.826  1.00  0.00     0.210 C 
ENDBRANCH   1  23
TORSDOF 5
ENDMDL
