MODEL 1
REMARK VINA RESULT:      -7.3      0.000      0.000
REMARK  4 active torsions:
REMARK  status: ('A' for Active; 'I' for Inactive)
REMARK    1  A    between atoms: C2_2  and  S1_3 
REMARK    2  A    between atoms: S1_3  and  N1_6 
REMARK    3  A    between atoms: N1_6  and  C3_7 
REMARK    4  A    between atoms: N4_14  and  C8_15 
ROOT
HETATM    1  C3  UNL     1      25.832   0.859  52.139  1.00  0.00     0.041 C 
HETATM    2  C4  UNL     1      26.414   1.746  51.323  1.00  0.00     0.022 C 
HETATM    3  C5  UNL     1      26.498   2.879  50.386  1.00  0.00     0.139 C 
HETATM    4  N2  UNL     1      25.179   3.452  50.112  1.00  0.00    -0.402 NA
HETATM    5  C6  UNL     1      24.427   3.847  51.063  1.00  0.00     0.395 C 
HETATM    6  N3  UNL     1      23.538   4.303  52.051  1.00  0.00    -0.237 NA
HETATM    7  C7  UNL     1      22.554   3.557  52.392  1.00  0.00     0.215 C 
HETATM    8  N4  UNL     1      22.582   2.328  51.629  1.00  0.00    -0.317 N 
HETATM    9  C14 UNL     1      23.272   1.298  52.294  1.00  0.00     0.100 C 
HETATM   10  C15 UNL     1      24.440   0.731  52.509  1.00  0.00     0.047 C 
ENDROOT
BRANCH   1  11
HETATM   11  N1  UNL     1      26.669  -0.119  52.796  1.00  0.00    -0.281 N 
HETATM   12  H4  UNL     1      26.971  -1.015  52.359  1.00  0.00     0.179 HD
BRANCH  11  13
HETATM   13  S1  UNL     1      27.110   0.378  54.394  1.00  0.00     0.252 S 
HETATM   14  O1  UNL     1      26.747   1.811  54.610  1.00  0.00    -0.201 OA
HETATM   15  O2  UNL     1      26.322  -0.460  55.358  1.00  0.00    -0.201 OA
BRANCH  13  16
HETATM   16  C2  UNL     1      28.837   0.185  54.682  1.00  0.00     0.121 C 
HETATM   17  C1  UNL     1      29.432  -0.648  53.845  1.00  0.00     0.025 C 
ENDBRANCH  13  16
ENDBRANCH  11  13
ENDBRANCH   1  11
BRANCH   8  18
HETATM   18  C8  UNL     1      21.919   2.448  50.422  1.00  0.00     0.041 A 
HETATM   19  C9  UNL     1      22.242   1.753  49.290  1.00  0.00     0.030 A 
HETATM   20  C10 UNL     1      21.489   1.984  48.147  1.00  0.00     0.004 A 
HETATM   21  C11 UNL     1      20.444   2.870  48.101  1.00  0.00     0.019 A 
HETATM   22  C12 UNL     1      20.129   3.570  49.259  1.00  0.00     0.013 A 
HETATM   23 BR1  UNL     1      18.665   4.797  49.148  1.00  0.00    -0.051 Br
HETATM   24  C13 UNL     1      20.878   3.346  50.416  1.00  0.00     0.049 A 
ENDBRANCH   8  18
TORSDOF 4
ENDMDL
MODEL 2
REMARK VINA RESULT:      -7.1      1.509      1.584
REMARK  4 active torsions:
REMARK  status: ('A' for Active; 'I' for Inactive)
REMARK    1  A    between atoms: C2_2  and  S1_3 
REMARK    2  A    between atoms: S1_3  and  N1_6 
REMARK    3  A    between atoms: N1_6  and  C3_7 
REMARK    4  A    between atoms: N4_14  and  C8_15 
ROOT
HETATM    1  C3  UNL     1      26.348   2.103  52.754  1.00  0.00     0.041 C 
HETATM    2  C4  UNL     1      26.724   2.462  51.521  1.00  0.00     0.022 C 
HETATM    3  C5  UNL     1      26.568   2.960  50.145  1.00  0.00     0.139 C 
HETATM    4  N2  UNL     1      25.172   3.281  49.841  1.00  0.00    -0.402 NA
HETATM    5  C6  UNL     1      24.512   4.087  50.576  1.00  0.00     0.395 C 
HETATM    6  N3  UNL     1      23.716   4.963  51.333  1.00  0.00    -0.237 NA
HETATM    7  C7  UNL     1      22.868   4.472  52.158  1.00  0.00     0.215 C 
HETATM    8  N4  UNL     1      22.925   3.027  52.120  1.00  0.00    -0.317 N 
HETATM    9  C14 UNL     1      23.798   2.498  53.088  1.00  0.00     0.100 C 
HETATM   10  C15 UNL     1      25.037   2.149  53.363  1.00  0.00     0.047 C 
ENDROOT
BRANCH   1  11
HETATM   11  N1  UNL     1      27.360   1.618  53.665  1.00  0.00    -0.281 N 
HETATM   12  H4  UNL     1      28.117   2.211  54.066  1.00  0.00     0.179 HD
BRANCH  11  13
HETATM   13  S1  UNL     1      27.163  -0.067  54.011  1.00  0.00     0.252 S 
HETATM   14  O1  UNL     1      28.490  -0.704  54.265  1.00  0.00    -0.201 OA
HETATM   15  O2  UNL     1      26.340  -0.175  55.262  1.00  0.00    -0.201 OA
BRANCH  13  16
HETATM   16  C2  UNL     1      26.377  -0.916  52.684  1.00  0.00     0.121 C 
HETATM   17  C1  UNL     1      26.930  -2.081  52.388  1.00  0.00     0.025 C 
ENDBRANCH  13  16
ENDBRANCH  11  13
ENDBRANCH   1  11
BRANCH   8  18
HETATM   18  C8  UNL     1      22.103   2.498  51.144  1.00  0.00     0.041 A 
HETATM   19  C9  UNL     1      22.361   1.346  50.455  1.00  0.00     0.030 A 
HETATM   20  C10 UNL     1      21.445   0.940  49.495  1.00  0.00     0.004 A 
HETATM   21  C11 UNL     1      20.300   1.636  49.207  1.00  0.00     0.019 A 
HETATM   22  C12 UNL     1      20.050   2.806  49.914  1.00  0.00     0.013 A 
HETATM   23 BR1  UNL     1      18.442   3.746  49.478  1.00  0.00    -0.051 Br
HETATM   24  C13 UNL     1      20.965   3.225  50.883  1.00  0.00     0.049 A 
ENDBRANCH   8  18
TORSDOF 4
ENDMDL
MODEL 3
REMARK VINA RESULT:      -7.1      3.418      5.228
REMARK  4 active torsions:
REMARK  status: ('A' for Active; 'I' for Inactive)
REMARK    1  A    between atoms: C2_2  and  S1_3 
REMARK    2  A    between atoms: S1_3  and  N1_6 
REMARK    3  A    between atoms: N1_6  and  C3_7 
REMARK    4  A    between atoms: N4_14  and  C8_15 
ROOT
HETATM    1  C3  UNL     1      22.943   0.207  52.575  1.00  0.00     0.041 C 
HETATM    2  C4  UNL     1      24.065   0.227  53.304  1.00  0.00     0.022 C 
HETATM    3  C5  UNL     1      25.332   0.759  53.832  1.00  0.00     0.139 C 
HETATM    4  N2  UNL     1      25.648   2.069  53.262  1.00  0.00    -0.402 NA
HETATM    5  C6  UNL     1      24.814   3.032  53.334  1.00  0.00     0.395 C 
HETATM    6  N3  UNL     1      23.953   4.141  53.370  1.00  0.00    -0.237 NA
HETATM    7  C7  UNL     1      23.282   4.438  52.320  1.00  0.00     0.215 C 
HETATM    8  N4  UNL     1      23.584   3.500  51.262  1.00  0.00    -0.317 N 
HETATM    9  C14 UNL     1      22.684   2.419  51.228  1.00  0.00     0.100 C 
HETATM   10  C15 UNL     1      22.411   1.214  51.684  1.00  0.00     0.047 C 
ENDROOT
BRANCH   1  11
HETATM   11  N1  UNL     1      22.083  -0.951  52.672  1.00  0.00    -0.281 N 
HETATM   12  H4  UNL     1      22.126  -1.765  52.024  1.00  0.00     0.179 HD
BRANCH  11  13
HETATM   13  S1  UNL     1      20.976  -0.823  53.997  1.00  0.00     0.252 S 
HETATM   14  O1  UNL     1      21.300  -1.838  55.044  1.00  0.00    -0.201 OA
HETATM   15  O2  UNL     1      21.147   0.543  54.594  1.00  0.00    -0.201 OA
BRANCH  13  16
HETATM   16  C2  UNL     1      19.310  -1.063  53.478  1.00  0.00     0.121 C 
HETATM   17  C1  UNL     1      18.934  -0.265  52.492  1.00  0.00     0.025 C 
ENDBRANCH  13  16
ENDBRANCH  11  13
ENDBRANCH   1  11
BRANCH   8  18
HETATM   18  C8  UNL     1      24.686   3.885  50.522  1.00  0.00     0.041 A 
HETATM   19  C9  UNL     1      25.629   3.024  50.032  1.00  0.00     0.030 A 
HETATM   20  C10 UNL     1      26.687   3.558  49.310  1.00  0.00     0.004 A 
HETATM   21  C11 UNL     1      26.831   4.899  49.068  1.00  0.00     0.019 A 
HETATM   22  C12 UNL     1      25.866   5.762  49.572  1.00  0.00     0.013 A 
HETATM   23 BR1  UNL     1      26.108   7.625  49.211  1.00  0.00    -0.051 Br
HETATM   24  C13 UNL     1      24.795   5.237  50.300  1.00  0.00     0.049 A 
ENDBRANCH   8  18
TORSDOF 4
ENDMDL
MODEL 4
REMARK VINA RESULT:      -7.0      4.237      5.993
REMARK  4 active torsions:
REMARK  status: ('A' for Active; 'I' for Inactive)
REMARK    1  A    between atoms: C2_2  and  S1_3 
REMARK    2  A    between atoms: S1_3  and  N1_6 
REMARK    3  A    between atoms: N1_6  and  C3_7 
REMARK    4  A    between atoms: N4_14  and  C8_15 
ROOT
HETATM    1  C3  UNL     1      23.264   4.883  49.499  1.00  0.00     0.041 C 
HETATM    2  C4  UNL     1      23.022   3.883  48.643  1.00  0.00     0.022 C 
HETATM    3  C5  UNL     1      22.628   2.533  48.207  1.00  0.00     0.139 C 
HETATM    4  N2  UNL     1      22.266   1.683  49.343  1.00  0.00    -0.402 NA
HETATM    5  C6  UNL     1      21.373   2.051  50.176  1.00  0.00     0.395 C 
HETATM    6  N3  UNL     1      20.402   2.381  51.136  1.00  0.00    -0.237 NA
HETATM    7  C7  UNL     1      20.785   2.826  52.275  1.00  0.00     0.215 C 
HETATM    8  N4  UNL     1      22.229   2.891  52.317  1.00  0.00    -0.317 N 
HETATM    9  C14 UNL     1      22.722   4.153  51.937  1.00  0.00     0.100 C 
HETATM   10  C15 UNL     1      23.108   4.916  50.936  1.00  0.00     0.047 C 
ENDROOT
BRANCH   1  11
HETATM   11  N1  UNL     1      23.724   6.145  48.966  1.00  0.00    -0.281 N 
HETATM   12  H4  UNL     1      23.097   6.867  48.553  1.00  0.00     0.179 HD
BRANCH  11  13
HETATM   13  S1  UNL     1      25.442   6.315  49.100  1.00  0.00     0.252 S 
HETATM   14  O1  UNL     1      25.980   7.080  47.935  1.00  0.00    -0.201 OA
HETATM   15  O2  UNL     1      25.719   7.099  50.350  1.00  0.00    -0.201 OA
BRANCH  13  16
HETATM   16  C2  UNL     1      26.247   4.750  49.166  1.00  0.00     0.121 C 
HETATM   17  C1  UNL     1      27.494   4.768  48.723  1.00  0.00     0.025 C 
ENDBRANCH  13  16
ENDBRANCH  11  13
ENDBRANCH   1  11
BRANCH   8  18
HETATM   18  C8  UNL     1      22.794   1.698  52.727  1.00  0.00     0.041 A 
HETATM   19  C9  UNL     1      22.132   0.728  53.426  1.00  0.00     0.030 A 
HETATM   20  C10 UNL     1      22.834  -0.417  53.776  1.00  0.00     0.004 A 
HETATM   21  C11 UNL     1      24.150  -0.620  53.456  1.00  0.00     0.019 A 
HETATM   22  C12 UNL     1      24.811   0.375  52.744  1.00  0.00     0.013 A 
HETATM   23 BR1  UNL     1      26.648   0.050  52.320  1.00  0.00    -0.051 Br
HETATM   24  C13 UNL     1      24.116   1.532  52.386  1.00  0.00     0.049 A 
ENDBRANCH   8  18
TORSDOF 4
ENDMDL
MODEL 5
REMARK VINA RESULT:      -6.7      2.243      3.550
REMARK  4 active torsions:
REMARK  status: ('A' for Active; 'I' for Inactive)
REMARK    1  A    between atoms: C2_2  and  S1_3 
REMARK    2  A    between atoms: S1_3  and  N1_6 
REMARK    3  A    between atoms: N1_6  and  C3_7 
REMARK    4  A    between atoms: N4_14  and  C8_15 
ROOT
HETATM    1  C3  UNL     1      26.001   1.556  51.802  1.00  0.00     0.041 C 
HETATM    2  C4  UNL     1      24.881   1.551  52.535  1.00  0.00     0.022 C 
HETATM    3  C5  UNL     1      23.520   1.941  52.937  1.00  0.00     0.139 C 
HETATM    4  N2  UNL     1      22.969   2.970  52.053  1.00  0.00    -0.402 NA
HETATM    5  C6  UNL     1      22.917   2.789  50.792  1.00  0.00     0.395 C 
HETATM    6  N3  UNL     1      22.823   2.669  49.395  1.00  0.00    -0.237 NA
HETATM    7  C7  UNL     1      23.693   3.260  48.664  1.00  0.00     0.215 C 
HETATM    8  N4  UNL     1      24.639   3.967  49.499  1.00  0.00    -0.317 N 
HETATM    9  C14 UNL     1      25.777   3.195  49.794  1.00  0.00     0.100 C 
HETATM   10  C15 UNL     1      26.314   2.313  50.610  1.00  0.00     0.047 C 
ENDROOT
BRANCH   1  11
HETATM   11  N1  UNL     1      27.079   0.676  52.193  1.00  0.00    -0.281 N 
HETATM   12  H4  UNL     1      27.240  -0.268  51.782  1.00  0.00     0.179 HD
BRANCH  11  13
HETATM   13  S1  UNL     1      28.072   1.380  53.424  1.00  0.00     0.252 S 
HETATM   14  O1  UNL     1      28.667   2.662  52.942  1.00  0.00    -0.201 OA
HETATM   15  O2  UNL     1      27.186   1.681  54.597  1.00  0.00    -0.201 OA
BRANCH  13  16
HETATM   16  C2  UNL     1      29.379   0.299  53.903  1.00  0.00     0.121 C 
HETATM   17  C1  UNL     1      29.262  -0.929  53.427  1.00  0.00     0.025 C 
ENDBRANCH  13  16
ENDBRANCH  11  13
ENDBRANCH   1  11
BRANCH   8  18
HETATM   18  C8  UNL     1      24.208   5.243  49.811  1.00  0.00     0.041 A 
HETATM   19  C9  UNL     1      24.496   5.894  50.978  1.00  0.00     0.030 A 
HETATM   20  C10 UNL     1      23.987   7.172  51.154  1.00  0.00     0.004 A 
HETATM   21  C11 UNL     1      23.213   7.809  50.220  1.00  0.00     0.019 A 
HETATM   22  C12 UNL     1      22.927   7.135  49.038  1.00  0.00     0.013 A 
HETATM   23 BR1  UNL     1      21.843   8.062  47.763  1.00  0.00    -0.051 Br
HETATM   24  C13 UNL     1      23.435   5.848  48.848  1.00  0.00     0.049 A 
ENDBRANCH   8  18
TORSDOF 4
ENDMDL
MODEL 6
REMARK VINA RESULT:      -6.7      4.264      6.029
REMARK  4 active torsions:
REMARK  status: ('A' for Active; 'I' for Inactive)
REMARK    1  A    between atoms: C2_2  and  S1_3 
REMARK    2  A    between atoms: S1_3  and  N1_6 
REMARK    3  A    between atoms: N1_6  and  C3_7 
REMARK    4  A    between atoms: N4_14  and  C8_15 
ROOT
HETATM    1  C3  UNL     1      22.058   4.135  50.179  1.00  0.00     0.041 C 
HETATM    2  C4  UNL     1      22.249   3.143  49.301  1.00  0.00     0.022 C 
HETATM    3  C5  UNL     1      22.190   1.773  48.766  1.00  0.00     0.139 C 
HETATM    4  N2  UNL     1      21.546   0.853  49.704  1.00  0.00    -0.402 NA
HETATM    5  C6  UNL     1      20.380   1.095  50.162  1.00  0.00     0.395 C 
HETATM    6  N3  UNL     1      19.101   1.288  50.711  1.00  0.00    -0.237 NA
HETATM    7  C7  UNL     1      19.003   1.734  51.908  1.00  0.00     0.215 C 
HETATM    8  N4  UNL     1      20.321   1.954  52.461  1.00  0.00    -0.317 N 
HETATM    9  C14 UNL     1      20.771   3.273  52.271  1.00  0.00     0.100 C 
HETATM   10  C15 UNL     1      21.399   4.105  51.466  1.00  0.00     0.047 C 
ENDROOT
BRANCH   1  11
HETATM   11  N1  UNL     1      22.532   5.456  49.834  1.00  0.00    -0.281 N 
HETATM   12  H4  UNL     1      21.966   6.163  49.321  1.00  0.00     0.179 HD
BRANCH  11  13
HETATM   13  S1  UNL     1      24.153   5.723  50.380  1.00  0.00     0.252 S 
HETATM   14  O1  UNL     1      24.214   6.932  51.255  1.00  0.00    -0.201 OA
HETATM   15  O2  UNL     1      24.554   4.528  51.196  1.00  0.00    -0.201 OA
BRANCH  13  16
HETATM   16  C2  UNL     1      25.265   5.947  49.032  1.00  0.00     0.121 C 
HETATM   17  C1  UNL     1      26.296   5.119  49.042  1.00  0.00     0.025 C 
ENDBRANCH  13  16
ENDBRANCH  11  13
ENDBRANCH   1  11
BRANCH   8  18
HETATM   18  C8  UNL     1      20.834   0.816  53.054  1.00  0.00     0.041 A 
HETATM   19  C9  UNL     1      20.076  -0.214  53.536  1.00  0.00     0.030 A 
HETATM   20  C10 UNL     1      20.733  -1.291  54.115  1.00  0.00     0.004 A 
HETATM   21  C11 UNL     1      22.096  -1.370  54.226  1.00  0.00     0.019 A 
HETATM   22  C12 UNL     1      22.854  -0.315  53.732  1.00  0.00     0.013 A 
HETATM   23 BR1  UNL     1      24.753  -0.466  53.909  1.00  0.00    -0.051 Br
HETATM   24  C13 UNL     1      22.205   0.775  53.147  1.00  0.00     0.049 A 
ENDBRANCH   8  18
TORSDOF 4
ENDMDL
MODEL 7
REMARK VINA RESULT:      -6.6      3.311      4.164
REMARK  4 active torsions:
REMARK  status: ('A' for Active; 'I' for Inactive)
REMARK    1  A    between atoms: C2_2  and  S1_3 
REMARK    2  A    between atoms: S1_3  and  N1_6 
REMARK    3  A    between atoms: N1_6  and  C3_7 
REMARK    4  A    between atoms: N4_14  and  C8_15 
ROOT
HETATM    1  C3  UNL     1      24.349   2.547  51.999  1.00  0.00     0.041 C 
HETATM    2  C4  UNL     1      24.008   3.614  52.733  1.00  0.00     0.022 C 
HETATM    3  C5  UNL     1      23.484   4.962  53.007  1.00  0.00     0.139 C 
HETATM    4  N2  UNL     1      23.047   5.632  51.782  1.00  0.00    -0.402 NA
HETATM    5  C6  UNL     1      22.197   5.085  51.004  1.00  0.00     0.395 C 
HETATM    6  N3  UNL     1      21.268   4.551  50.096  1.00  0.00    -0.237 NA
HETATM    7  C7  UNL     1      21.697   4.013  49.015  1.00  0.00     0.215 C 
HETATM    8  N4  UNL     1      23.141   4.082  48.972  1.00  0.00    -0.317 N 
HETATM    9  C14 UNL     1      23.750   2.927  49.495  1.00  0.00     0.100 C 
HETATM   10  C15 UNL     1      24.203   2.329  50.577  1.00  0.00     0.047 C 
ENDROOT
BRANCH   1  11
HETATM   11  N1  UNL     1      24.925   1.407  52.675  1.00  0.00    -0.281 N 
HETATM   12  H4  UNL     1      24.380   0.574  52.981  1.00  0.00     0.179 HD
BRANCH  11  13
HETATM   13  S1  UNL     1      26.631   1.591  52.910  1.00  0.00     0.252 S 
HETATM   14  O1  UNL     1      27.217   2.434  51.826  1.00  0.00    -0.201 OA
HETATM   15  O2  UNL     1      26.829   2.298  54.219  1.00  0.00    -0.201 OA
BRANCH  13  16
HETATM   16  C2  UNL     1      27.457   0.035  52.922  1.00  0.00     0.121 C 
HETATM   17  C1  UNL     1      26.765  -0.946  52.366  1.00  0.00     0.025 C 
ENDBRANCH  13  16
ENDBRANCH  11  13
ENDBRANCH   1  11
BRANCH   8  18
HETATM   18  C8  UNL     1      23.591   5.267  48.420  1.00  0.00     0.041 A 
HETATM   19  C9  UNL     1      22.860   6.052  47.573  1.00  0.00     0.030 A 
HETATM   20  C10 UNL     1      23.447   7.213  47.091  1.00  0.00     0.004 A 
HETATM   21  C11 UNL     1      24.717   7.607  47.422  1.00  0.00     0.019 A 
HETATM   22  C12 UNL     1      25.449   6.798  48.284  1.00  0.00     0.013 A 
HETATM   23 BR1  UNL     1      27.218   7.385  48.717  1.00  0.00    -0.051 Br
HETATM   24  C13 UNL     1      24.869   5.627  48.776  1.00  0.00     0.049 A 
ENDBRANCH   8  18
TORSDOF 4
ENDMDL
MODEL 8
REMARK VINA RESULT:      -6.6      4.339      5.838
REMARK  4 active torsions:
REMARK  status: ('A' for Active; 'I' for Inactive)
REMARK    1  A    between atoms: C2_2  and  S1_3 
REMARK    2  A    between atoms: S1_3  and  N1_6 
REMARK    3  A    between atoms: N1_6  and  C3_7 
REMARK    4  A    between atoms: N4_14  and  C8_15 
ROOT
HETATM    1  C3  UNL     1      24.093   5.563  49.258  1.00  0.00     0.041 C 
HETATM    2  C4  UNL     1      23.003   6.077  49.841  1.00  0.00     0.022 C 
HETATM    3  C5  UNL     1      21.859   6.138  50.765  1.00  0.00     0.139 C 
HETATM    4  N2  UNL     1      21.772   4.938  51.599  1.00  0.00    -0.402 NA
HETATM    5  C6  UNL     1      22.765   4.560  52.305  1.00  0.00     0.395 C 
HETATM    6  N3  UNL     1      23.810   4.075  53.110  1.00  0.00    -0.237 NA
HETATM    7  C7  UNL     1      24.507   3.086  52.690  1.00  0.00     0.215 C 
HETATM    8  N4  UNL     1      24.027   2.662  51.393  1.00  0.00    -0.317 N 
HETATM    9  C14 UNL     1      24.721   3.279  50.335  1.00  0.00     0.100 C 
HETATM   10  C15 UNL     1      24.783   4.323  49.535  1.00  0.00     0.047 C 
ENDROOT
BRANCH   1  11
HETATM   11  N1  UNL     1      24.735   6.328  48.213  1.00  0.00    -0.281 N 
HETATM   12  H4  UNL     1      24.446   6.304  47.212  1.00  0.00     0.179 HD
BRANCH  11  13
HETATM   13  S1  UNL     1      26.039   7.289  48.823  1.00  0.00     0.252 S 
HETATM   14  O1  UNL     1      25.858   8.719  48.430  1.00  0.00    -0.201 OA
HETATM   15  O2  UNL     1      25.997   7.202  50.321  1.00  0.00    -0.201 OA
BRANCH  13  16
HETATM   16  C2  UNL     1      27.597   6.732  48.220  1.00  0.00     0.121 C 
HETATM   17  C1  UNL     1      27.856   5.463  48.490  1.00  0.00     0.025 C 
ENDBRANCH  13  16
ENDBRANCH  11  13
ENDBRANCH   1  11
BRANCH   8  18
HETATM   18  C8  UNL     1      23.000   1.743  51.491  1.00  0.00     0.041 A 
HETATM   19  C9  UNL     1      22.051   1.537  50.530  1.00  0.00     0.030 A 
HETATM   20  C10 UNL     1      21.074   0.582  50.772  1.00  0.00     0.004 A 
HETATM   21  C11 UNL     1      21.017  -0.160  51.923  1.00  0.00     0.019 A 
HETATM   22  C12 UNL     1      21.988   0.061  52.892  1.00  0.00     0.013 A 
HETATM   23 BR1  UNL     1      21.868  -0.996  54.483  1.00  0.00    -0.051 Br
HETATM   24  C13 UNL     1      22.977   1.019  52.660  1.00  0.00     0.049 A 
ENDBRANCH   8  18
TORSDOF 4
ENDMDL
MODEL 9
REMARK VINA RESULT:      -6.2      4.950      7.598
REMARK  4 active torsions:
REMARK  status: ('A' for Active; 'I' for Inactive)
REMARK    1  A    between atoms: C2_2  and  S1_3 
REMARK    2  A    between atoms: S1_3  and  N1_6 
REMARK    3  A    between atoms: N1_6  and  C3_7 
REMARK    4  A    between atoms: N4_14  and  C8_15 
ROOT
HETATM    1  C3  UNL     1      19.076   1.808  49.819  1.00  0.00     0.041 C 
HETATM    2  C4  UNL     1      18.943   2.688  50.818  1.00  0.00     0.022 C 
HETATM    3  C5  UNL     1      19.366   3.551  51.933  1.00  0.00     0.139 C 
HETATM    4  N2  UNL     1      20.804   3.444  52.185  1.00  0.00    -0.402 NA
HETATM    5  C6  UNL     1      21.648   3.649  51.251  1.00  0.00     0.395 C 
HETATM    6  N3  UNL     1      22.641   3.859  50.280  1.00  0.00    -0.237 NA
HETATM    7  C7  UNL     1      23.200   2.842  49.736  1.00  0.00     0.215 C 
HETATM    8  N4  UNL     1      22.644   1.625  50.284  1.00  0.00    -0.317 N 
HETATM    9  C14 UNL     1      21.571   1.132  49.518  1.00  0.00     0.100 C 
HETATM   10  C15 UNL     1      20.271   1.169  49.313  1.00  0.00     0.047 C 
ENDROOT
BRANCH   1  11
HETATM   11  N1  UNL     1      17.894   1.422  49.083  1.00  0.00    -0.281 N 
HETATM   12  H4  UNL     1      17.648   1.790  48.140  1.00  0.00     0.179 HD
BRANCH  11  13
HETATM   13  S1  UNL     1      16.935   0.275  49.956  1.00  0.00     0.252 S 
HETATM   14  O1  UNL     1      16.445  -0.797  49.039  1.00  0.00    -0.201 OA
HETATM   15  O2  UNL     1      17.822  -0.355  50.990  1.00  0.00    -0.201 OA
BRANCH  13  16
HETATM   16  C2  UNL     1      15.545   1.038  50.723  1.00  0.00     0.121 C 
HETATM   17  C1  UNL     1      15.734   1.345  51.996  1.00  0.00     0.025 C 
ENDBRANCH  13  16
ENDBRANCH  11  13
ENDBRANCH   1  11
BRANCH   8  18
HETATM   18  C8  UNL     1      23.299   1.222  51.432  1.00  0.00     0.041 A 
HETATM   19  C9  UNL     1      24.583   1.566  51.752  1.00  0.00     0.030 A 
HETATM   20  C10 UNL     1      25.112   1.079  52.938  1.00  0.00     0.004 A 
HETATM   21  C11 UNL     1      24.413   0.273  53.798  1.00  0.00     0.019 A 
HETATM   22  C12 UNL     1      23.109  -0.070  53.460  1.00  0.00     0.013 A 
HETATM   23 BR1  UNL     1      22.172  -1.197  54.689  1.00  0.00    -0.051 Br
HETATM   24  C13 UNL     1      22.565   0.415  52.269  1.00  0.00     0.049 A 
ENDBRANCH   8  18
TORSDOF 4
ENDMDL
