MODEL 1
REMARK VINA RESULT:      -7.1      0.000      0.000
REMARK  3 active torsions:
REMARK  status: ('A' for Active; 'I' for Inactive)
REMARK    1  A    between atoms: C3_3  and  C4_4 
REMARK    2  A    between atoms: C4_4  and  C5_5 
REMARK    3  A    between atoms: C15_19  and  O2_20 
ROOT
HETATM    1  C5  UNL     1      28.889   6.498  48.167  1.00  0.00    -0.003 C 
HETATM    2  C6  UNL     1      28.828   7.796  48.199  1.00  0.00     0.116 C 
HETATM    3  N1  UNL     1      29.337   9.083  48.147  1.00  0.00    -0.369 N 
HETATM    4  C7  UNL     1      29.433  10.021  47.108  1.00  0.00     0.131 C 
HETATM    5  N2  UNL     1      29.461   9.290  46.016  1.00  0.00    -0.226 NA
HETATM    6  C8  UNL     1      29.560   9.980  44.747  1.00  0.00     0.234 C 
HETATM    7  N3  UNL     1      30.496   9.490  43.973  1.00  0.00    -0.254 NA
HETATM    8  C9  UNL     1      31.268   8.377  44.468  1.00  0.00     0.120 C 
HETATM    9  C10 UNL     1      31.969   8.144  45.547  1.00  0.00     0.052 C 
HETATM   10  C11 UNL     1      32.339   8.835  46.753  1.00  0.00     0.053 C 
HETATM   11  C12 UNL     1      31.964  10.081  46.993  1.00  0.00     0.065 C 
HETATM   12  O1  UNL     1      31.832  11.271  47.643  1.00  0.00     0.000 OA
HETATM   13  C13 UNL     1      30.668  12.059  47.767  1.00  0.00     0.025 C 
HETATM   14  C14 UNL     1      30.351  12.521  49.143  1.00  0.00     0.013 C 
HETATM   15  C15 UNL     1      29.510  11.479  46.985  1.00  0.00     0.194 C 
HETATM   16  O3  UNL     1      33.096   8.089  47.621  1.00  0.00    -0.353 OA
HETATM   17  C17 UNL     1      33.520   6.780  47.561  1.00  0.00     0.201 C 
HETATM   18  C18 UNL     1      33.085   5.976  48.777  1.00  0.00     0.194 C 
HETATM   19  O4  UNL     1      31.706   5.919  48.926  1.00  0.00    -0.389 OA
HETATM   20  C19 UNL     1      31.091   5.307  47.873  1.00  0.00     0.168 C 
HETATM   21  C20 UNL     1      29.610   5.206  48.048  1.00  0.00     0.039 C 
HETATM   22  H9  UNL     1      29.782   9.710  48.835  1.00  0.00     0.161 HD
ENDROOT
BRANCH   1  23
HETATM   23  C4  UNL     1      27.468   6.110  48.366  1.00  0.00     0.039 C 
BRANCH  23  24
HETATM   24  C3  UNL     1      27.438   4.677  48.859  1.00  0.00    -0.030 C 
HETATM   25  C2  UNL     1      26.422   3.998  49.346  1.00  0.00    -0.035 C 
HETATM   26  C1  UNL     1      25.088   4.632  49.467  1.00  0.00     0.036 C 
ENDBRANCH  23  24
ENDBRANCH   1  23
BRANCH  15  27
HETATM   27  O2  UNL     1      28.323  12.134  47.173  1.00  0.00    -0.383 OA
HETATM   28  C16 UNL     1      28.071  13.069  46.202  1.00  0.00     0.202 C 
ENDBRANCH  15  27
TORSDOF 3
ENDMDL
MODEL 2
REMARK VINA RESULT:      -7.0      3.179      5.419
REMARK  3 active torsions:
REMARK  status: ('A' for Active; 'I' for Inactive)
REMARK    1  A    between atoms: C3_3  and  C4_4 
REMARK    2  A    between atoms: C4_4  and  C5_5 
REMARK    3  A    between atoms: C15_19  and  O2_20 
ROOT
HETATM    1  C5  UNL     1      33.371   5.518  44.333  1.00  0.00    -0.003 C 
HETATM    2  C6  UNL     1      32.468   6.275  44.880  1.00  0.00     0.116 C 
HETATM    3  N1  UNL     1      31.795   6.876  45.931  1.00  0.00    -0.369 N 
HETATM    4  C7  UNL     1      31.912   8.139  46.529  1.00  0.00     0.131 C 
HETATM    5  N2  UNL     1      33.156   8.493  46.296  1.00  0.00    -0.226 NA
HETATM    6  C8  UNL     1      33.597   9.777  46.799  1.00  0.00     0.234 C 
HETATM    7  N3  UNL     1      34.728   9.706  47.455  1.00  0.00    -0.254 NA
HETATM    8  C9  UNL     1      35.355   8.414  47.582  1.00  0.00     0.120 C 
HETATM    9  C10 UNL     1      34.975   7.239  48.012  1.00  0.00     0.052 C 
HETATM   10  C11 UNL     1      33.795   6.633  48.568  1.00  0.00     0.053 C 
HETATM   11  C12 UNL     1      32.692   7.325  48.799  1.00  0.00     0.065 C 
HETATM   12  O1  UNL     1      31.415   7.598  49.187  1.00  0.00     0.000 OA
HETATM   13  C13 UNL     1      30.464   8.397  48.517  1.00  0.00     0.025 C 
HETATM   14  C14 UNL     1      29.119   7.788  48.349  1.00  0.00     0.013 C 
HETATM   15  C15 UNL     1      31.048   9.052  47.284  1.00  0.00     0.194 C 
HETATM   16  O3  UNL     1      33.918   5.291  48.825  1.00  0.00    -0.353 OA
HETATM   17  C17 UNL     1      34.955   4.414  48.595  1.00  0.00     0.201 C 
HETATM   18  C18 UNL     1      34.528   3.225  47.747  1.00  0.00     0.194 C 
HETATM   19  O4  UNL     1      34.061   3.593  46.493  1.00  0.00    -0.389 OA
HETATM   20  C19 UNL     1      35.011   4.224  45.744  1.00  0.00     0.168 C 
HETATM   21  C20 UNL     1      34.525   4.584  44.377  1.00  0.00     0.039 C 
HETATM   22  H9  UNL     1      31.036   6.581  46.564  1.00  0.00     0.161 HD
ENDROOT
BRANCH   1  23
HETATM   23  C4  UNL     1      33.078   5.671  42.884  1.00  0.00     0.039 C 
BRANCH  23  24
HETATM   24  C3  UNL     1      33.542   4.415  42.176  1.00  0.00    -0.030 C 
HETATM   25  C2  UNL     1      33.108   3.902  41.045  1.00  0.00    -0.035 C 
HETATM   26  C1  UNL     1      32.023   4.571  40.289  1.00  0.00     0.036 C 
ENDBRANCH  23  24
ENDBRANCH   1  23
BRANCH  15  27
HETATM   27  O2  UNL     1      30.135   9.735  46.527  1.00  0.00    -0.383 OA
HETATM   28  C16 UNL     1      30.086  11.072  46.830  1.00  0.00     0.202 C 
ENDBRANCH  15  27
TORSDOF 3
ENDMDL
MODEL 3
REMARK VINA RESULT:      -6.9      4.485      8.668
REMARK  3 active torsions:
REMARK  status: ('A' for Active; 'I' for Inactive)
REMARK    1  A    between atoms: C3_3  and  C4_4 
REMARK    2  A    between atoms: C4_4  and  C5_5 
REMARK    3  A    between atoms: C15_19  and  O2_20 
ROOT
HETATM    1  C5  UNL     1      27.277   6.068  48.488  1.00  0.00    -0.003 C 
HETATM    2  C6  UNL     1      26.658   5.412  49.424  1.00  0.00     0.116 C 
HETATM    3  N1  UNL     1      25.629   5.159  50.315  1.00  0.00    -0.369 N 
HETATM    4  C7  UNL     1      24.501   4.327  50.245  1.00  0.00     0.131 C 
HETATM    5  N2  UNL     1      24.257   4.222  48.957  1.00  0.00    -0.226 NA
HETATM    6  C8  UNL     1      23.129   3.411  48.550  1.00  0.00     0.234 C 
HETATM    7  N3  UNL     1      22.348   4.019  47.693  1.00  0.00    -0.254 NA
HETATM    8  C9  UNL     1      22.703   5.357  47.288  1.00  0.00     0.120 C 
HETATM    9  C10 UNL     1      22.968   6.474  47.914  1.00  0.00     0.052 C 
HETATM   10  C11 UNL     1      23.038   6.950  49.270  1.00  0.00     0.053 C 
HETATM   11  C12 UNL     1      22.764   6.172  50.303  1.00  0.00     0.065 C 
HETATM   12  O1  UNL     1      22.590   5.784  51.598  1.00  0.00     0.000 OA
HETATM   13  C13 UNL     1      23.003   4.575  52.197  1.00  0.00     0.025 C 
HETATM   14  C14 UNL     1      23.731   4.713  53.484  1.00  0.00     0.013 C 
HETATM   15  C15 UNL     1      23.622   3.631  51.189  1.00  0.00     0.194 C 
HETATM   16  O3  UNL     1      23.418   8.264  49.387  1.00  0.00    -0.353 OA
HETATM   17  C17 UNL     1      23.792   9.189  48.437  1.00  0.00     0.201 C 
HETATM   18  C18 UNL     1      25.167   9.776  48.714  1.00  0.00     0.194 C 
HETATM   19  O4  UNL     1      26.174   8.820  48.725  1.00  0.00    -0.389 OA
HETATM   20  C19 UNL     1      26.307   8.187  47.525  1.00  0.00     0.168 C 
HETATM   21  C20 UNL     1      27.418   7.185  47.521  1.00  0.00     0.039 C 
HETATM   22  H9  UNL     1      25.394   5.496  51.261  1.00  0.00     0.161 HD
ENDROOT
BRANCH   1  23
HETATM   23  C4  UNL     1      28.511   5.261  48.300  1.00  0.00     0.039 C 
BRANCH  23  24
HETATM   24  C3  UNL     1      29.693   6.210  48.275  1.00  0.00    -0.030 C 
HETATM   25  C2  UNL     1      30.935   5.964  47.919  1.00  0.00    -0.035 C 
HETATM   26  C1  UNL     1      31.329   4.609  47.469  1.00  0.00     0.036 C 
ENDBRANCH  23  24
ENDBRANCH   1  23
BRANCH  15  27
HETATM   27  O2  UNL     1      24.155   2.496  51.738  1.00  0.00    -0.383 OA
HETATM   28  C16 UNL     1      23.303   1.423  51.676  1.00  0.00     0.202 C 
ENDBRANCH  15  27
TORSDOF 3
ENDMDL
MODEL 4
REMARK VINA RESULT:      -6.8      2.896      3.772
REMARK  3 active torsions:
REMARK  status: ('A' for Active; 'I' for Inactive)
REMARK    1  A    between atoms: C3_3  and  C4_4 
REMARK    2  A    between atoms: C4_4  and  C5_5 
REMARK    3  A    between atoms: C15_19  and  O2_20 
ROOT
HETATM    1  C5  UNL     1      32.548   4.397  47.076  1.00  0.00    -0.003 C 
HETATM    2  C6  UNL     1      31.617   5.284  47.266  1.00  0.00     0.116 C 
HETATM    3  N1  UNL     1      31.113   6.529  47.601  1.00  0.00    -0.369 N 
HETATM    4  C7  UNL     1      30.749   7.641  46.827  1.00  0.00     0.131 C 
HETATM    5  N2  UNL     1      31.481   7.532  45.741  1.00  0.00    -0.226 NA
HETATM    6  C8  UNL     1      31.333   8.552  44.724  1.00  0.00     0.234 C 
HETATM    7  N3  UNL     1      32.480   9.035  44.316  1.00  0.00    -0.254 NA
HETATM    8  C9  UNL     1      33.684   8.507  44.910  1.00  0.00     0.120 C 
HETATM    9  C10 UNL     1      34.125   8.358  46.132  1.00  0.00     0.052 C 
HETATM   10  C11 UNL     1      33.678   8.631  47.471  1.00  0.00     0.053 C 
HETATM   11  C12 UNL     1      32.520   9.219  47.720  1.00  0.00     0.065 C 
HETATM   12  O1  UNL     1      31.490   9.760  48.429  1.00  0.00     0.000 OA
HETATM   13  C13 UNL     1      30.107   9.596  48.200  1.00  0.00     0.025 C 
HETATM   14  C14 UNL     1      29.297   9.238  49.393  1.00  0.00     0.013 C 
HETATM   15  C15 UNL     1      29.837   8.782  46.953  1.00  0.00     0.194 C 
HETATM   16  O3  UNL     1      34.549   8.223  48.451  1.00  0.00    -0.353 OA
HETATM   17  C17 UNL     1      35.750   7.552  48.375  1.00  0.00     0.201 C 
HETATM   18  C18 UNL     1      35.748   6.272  49.197  1.00  0.00     0.194 C 
HETATM   19  O4  UNL     1      34.784   5.363  48.784  1.00  0.00    -0.389 OA
HETATM   20  C19 UNL     1      34.973   4.946  47.499  1.00  0.00     0.168 C 
HETATM   21  C20 UNL     1      33.959   3.935  47.065  1.00  0.00     0.039 C 
HETATM   22  H9  UNL     1      30.865   6.991  48.489  1.00  0.00     0.161 HD
ENDROOT
BRANCH   1  23
HETATM   23  C4  UNL     1      31.769   3.207  46.646  1.00  0.00     0.039 C 
BRANCH  23  24
HETATM   24  C3  UNL     1      32.578   1.970  46.981  1.00  0.00    -0.030 C 
HETATM   25  C2  UNL     1      32.255   0.706  46.808  1.00  0.00    -0.035 C 
HETATM   26  C1  UNL     1      30.948   0.344  46.211  1.00  0.00     0.036 C 
ENDBRANCH  23  24
ENDBRANCH   1  23
BRANCH  15  27
HETATM   27  O2  UNL     1      28.516   8.485  46.753  1.00  0.00    -0.383 OA
HETATM   28  C16 UNL     1      27.889   9.377  45.923  1.00  0.00     0.202 C 
ENDBRANCH  15  27
TORSDOF 3
ENDMDL
MODEL 5
REMARK VINA RESULT:      -6.7      9.308     11.870
REMARK  3 active torsions:
REMARK  status: ('A' for Active; 'I' for Inactive)
REMARK    1  A    between atoms: C3_3  and  C4_4 
REMARK    2  A    between atoms: C4_4  and  C5_5 
REMARK    3  A    between atoms: C15_19  and  O2_20 
ROOT
HETATM    1  C5  UNL     1      22.274   1.144  52.110  1.00  0.00    -0.003 C 
HETATM    2  C6  UNL     1      21.057   1.437  51.761  1.00  0.00     0.116 C 
HETATM    3  N1  UNL     1      20.033   2.268  51.339  1.00  0.00    -0.369 N 
HETATM    4  C7  UNL     1      19.493   2.535  50.072  1.00  0.00     0.131 C 
HETATM    5  N2  UNL     1      20.480   2.284  49.242  1.00  0.00    -0.226 NA
HETATM    6  C8  UNL     1      20.233   2.470  47.827  1.00  0.00     0.234 C 
HETATM    7  N3  UNL     1      21.162   3.179  47.237  1.00  0.00    -0.254 NA
HETATM    8  C9  UNL     1      22.259   3.659  48.042  1.00  0.00     0.120 C 
HETATM    9  C10 UNL     1      22.363   4.349  49.147  1.00  0.00     0.052 C 
HETATM   10  C11 UNL     1      21.491   4.980  50.101  1.00  0.00     0.053 C 
HETATM   11  C12 UNL     1      20.176   4.973  49.963  1.00  0.00     0.065 C 
HETATM   12  O1  UNL     1      18.863   5.215  50.236  1.00  0.00     0.000 OA
HETATM   13  C13 UNL     1      17.780   4.318  50.116  1.00  0.00     0.025 C 
HETATM   14  C14 UNL     1      16.878   4.240  51.294  1.00  0.00     0.013 C 
HETATM   15  C15 UNL     1      18.211   2.991  49.528  1.00  0.00     0.194 C 
HETATM   16  O3  UNL     1      22.142   5.571  51.155  1.00  0.00    -0.353 OA
HETATM   17  C17 UNL     1      23.479   5.621  51.484  1.00  0.00     0.201 C 
HETATM   18  C18 UNL     1      23.751   5.079  52.878  1.00  0.00     0.194 C 
HETATM   19  O4  UNL     1      23.377   3.750  53.026  1.00  0.00    -0.389 OA
HETATM   20  C19 UNL     1      24.065   2.917  52.194  1.00  0.00     0.168 C 
HETATM   21  C20 UNL     1      23.695   1.480  52.380  1.00  0.00     0.039 C 
HETATM   22  H9  UNL     1      19.386   2.915  51.816  1.00  0.00     0.161 HD
ENDROOT
BRANCH   1  23
HETATM   23  C4  UNL     1      22.178  -0.310  52.403  1.00  0.00     0.039 C 
BRANCH  23  24
HETATM   24  C3  UNL     1      21.215  -0.493  53.559  1.00  0.00    -0.030 C 
HETATM   25  C2  UNL     1      21.470  -0.912  54.780  1.00  0.00    -0.035 C 
HETATM   26  C1  UNL     1      22.851  -1.277  55.173  1.00  0.00     0.036 C 
ENDBRANCH  23  24
ENDBRANCH   1  23
BRANCH  15  27
HETATM   27  O2  UNL     1      17.225   2.042  49.508  1.00  0.00    -0.383 OA
HETATM   28  C16 UNL     1      16.463   2.089  48.369  1.00  0.00     0.202 C 
ENDBRANCH  15  27
TORSDOF 3
ENDMDL
MODEL 6
REMARK VINA RESULT:      -6.7      2.052      5.035
REMARK  3 active torsions:
REMARK  status: ('A' for Active; 'I' for Inactive)
REMARK    1  A    between atoms: C3_3  and  C4_4 
REMARK    2  A    between atoms: C4_4  and  C5_5 
REMARK    3  A    between atoms: C15_19  and  O2_20 
ROOT
HETATM    1  C5  UNL     1      27.538   6.157  48.225  1.00  0.00    -0.003 C 
HETATM    2  C6  UNL     1      28.791   6.001  47.917  1.00  0.00     0.116 C 
HETATM    3  N1  UNL     1      30.005   6.362  47.359  1.00  0.00    -0.369 N 
HETATM    4  C7  UNL     1      31.153   6.962  47.899  1.00  0.00     0.131 C 
HETATM    5  N2  UNL     1      30.705   7.649  48.926  1.00  0.00    -0.226 NA
HETATM    6  C8  UNL     1      31.668   8.397  49.707  1.00  0.00     0.234 C 
HETATM    7  N3  UNL     1      31.301   9.637  49.915  1.00  0.00    -0.254 NA
HETATM    8  C9  UNL     1      30.041  10.070  49.362  1.00  0.00     0.120 C 
HETATM    9  C10 UNL     1      29.499  10.057  48.173  1.00  0.00     0.052 C 
HETATM   10  C11 UNL     1      29.849   9.637  46.842  1.00  0.00     0.053 C 
HETATM   11  C12 UNL     1      31.028   9.109  46.559  1.00  0.00     0.065 C 
HETATM   12  O1  UNL     1      32.035   8.555  45.827  1.00  0.00     0.000 OA
HETATM   13  C13 UNL     1      32.865   7.472  46.188  1.00  0.00     0.025 C 
HETATM   14  C14 UNL     1      33.010   6.406  45.164  1.00  0.00     0.013 C 
HETATM   15  C15 UNL     1      32.587   6.996  47.598  1.00  0.00     0.194 C 
HETATM   16  O3  UNL     1      28.856   9.823  45.913  1.00  0.00    -0.353 OA
HETATM   17  C17 UNL     1      27.568  10.295  46.043  1.00  0.00     0.201 C 
HETATM   18  C18 UNL     1      26.536   9.308  45.519  1.00  0.00     0.194 C 
HETATM   19  O4  UNL     1      26.561   8.092  46.188  1.00  0.00    -0.389 OA
HETATM   20  C19 UNL     1      26.271   8.218  47.515  1.00  0.00     0.168 C 
HETATM   21  C20 UNL     1      26.256   6.905  48.230  1.00  0.00     0.039 C 
HETATM   22  H9  UNL     1      30.412   6.300  46.412  1.00  0.00     0.161 HD
ENDROOT
BRANCH   1  23
HETATM   23  C4  UNL     1      27.233   4.900  48.957  1.00  0.00     0.039 C 
BRANCH  23  24
HETATM   24  C3  UNL     1      25.765   4.920  49.332  1.00  0.00    -0.030 C 
HETATM   25  C2  UNL     1      25.091   4.050  50.053  1.00  0.00    -0.035 C 
HETATM   26  C1  UNL     1      25.770   2.860  50.617  1.00  0.00     0.036 C 
ENDBRANCH  23  24
ENDBRANCH   1  23
BRANCH  15  27
HETATM   27  O2  UNL     1      33.275   5.868  47.954  1.00  0.00    -0.383 OA
HETATM   28  C16 UNL     1      34.462   6.144  48.582  1.00  0.00     0.202 C 
ENDBRANCH  15  27
TORSDOF 3
ENDMDL
MODEL 7
REMARK VINA RESULT:      -6.6      3.979      6.948
REMARK  3 active torsions:
REMARK  status: ('A' for Active; 'I' for Inactive)
REMARK    1  A    between atoms: C3_3  and  C4_4 
REMARK    2  A    between atoms: C4_4  and  C5_5 
REMARK    3  A    between atoms: C15_19  and  O2_20 
ROOT
HETATM    1  C5  UNL     1      34.078   6.094  42.910  1.00  0.00    -0.003 C 
HETATM    2  C6  UNL     1      34.031   5.883  44.191  1.00  0.00     0.116 C 
HETATM    3  N1  UNL     1      34.262   6.172  45.525  1.00  0.00    -0.369 N 
HETATM    4  C7  UNL     1      33.467   6.771  46.514  1.00  0.00     0.131 C 
HETATM    5  N2  UNL     1      32.635   7.534  45.841  1.00  0.00    -0.226 NA
HETATM    6  C8  UNL     1      31.665   8.302  46.594  1.00  0.00     0.234 C 
HETATM    7  N3  UNL     1      31.629   9.562  46.242  1.00  0.00    -0.254 NA
HETATM    8  C9  UNL     1      32.522   9.997  45.195  1.00  0.00     0.120 C 
HETATM    9  C10 UNL     1      33.810   9.925  44.988  1.00  0.00     0.052 C 
HETATM   10  C11 UNL     1      34.975   9.411  45.659  1.00  0.00     0.053 C 
HETATM   11  C12 UNL     1      34.904   8.832  46.846  1.00  0.00     0.065 C 
HETATM   12  O1  UNL     1      35.309   8.203  47.985  1.00  0.00     0.000 OA
HETATM   13  C13 UNL     1      34.682   7.122  48.640  1.00  0.00     0.025 C 
HETATM   14  C14 UNL     1      35.572   5.989  49.003  1.00  0.00     0.013 C 
HETATM   15  C15 UNL     1      33.374   6.744  47.976  1.00  0.00     0.194 C 
HETATM   16  O3  UNL     1      36.144   9.567  44.958  1.00  0.00    -0.353 OA
HETATM   17  C17 UNL     1      36.389  10.084  43.705  1.00  0.00     0.201 C 
HETATM   18  C18 UNL     1      37.117   9.096  42.805  1.00  0.00     0.194 C 
HETATM   19  O4  UNL     1      36.402   7.925  42.596  1.00  0.00    -0.389 OA
HETATM   20  C19 UNL     1      35.210   8.143  41.971  1.00  0.00     0.168 C 
HETATM   21  C20 UNL     1      34.456   6.879  41.707  1.00  0.00     0.039 C 
HETATM   22  H9  UNL     1      35.060   6.039  46.164  1.00  0.00     0.161 HD
ENDROOT
BRANCH   1  23
HETATM   23  C4  UNL     1      33.388   4.896  42.365  1.00  0.00     0.039 C 
BRANCH  23  24
HETATM   24  C3  UNL     1      34.194   4.386  41.187  1.00  0.00    -0.030 C 
HETATM   25  C2  UNL     1      33.858   3.479  40.294  1.00  0.00    -0.035 C 
HETATM   26  C1  UNL     1      32.536   2.814  40.366  1.00  0.00     0.036 C 
ENDBRANCH  23  24
ENDBRANCH   1  23
BRANCH  15  27
HETATM   27  O2  UNL     1      32.788   5.621  48.494  1.00  0.00    -0.383 OA
HETATM   28  C16 UNL     1      31.869   5.902  49.472  1.00  0.00     0.202 C 
ENDBRANCH  15  27
TORSDOF 3
ENDMDL
MODEL 8
REMARK VINA RESULT:      -6.6      8.022     11.522
REMARK  3 active torsions:
REMARK  status: ('A' for Active; 'I' for Inactive)
REMARK    1  A    between atoms: C3_3  and  C4_4 
REMARK    2  A    between atoms: C4_4  and  C5_5 
REMARK    3  A    between atoms: C15_19  and  O2_20 
ROOT
HETATM    1  C5  UNL     1      25.352   3.130  50.833  1.00  0.00    -0.003 C 
HETATM    2  C6  UNL     1      24.521   2.347  51.455  1.00  0.00     0.116 C 
HETATM    3  N1  UNL     1      23.311   1.993  52.026  1.00  0.00    -0.369 N 
HETATM    4  C7  UNL     1      22.214   1.265  51.540  1.00  0.00     0.131 C 
HETATM    5  N2  UNL     1      22.271   1.427  50.237  1.00  0.00    -0.226 NA
HETATM    6  C8  UNL     1      21.252   0.784  49.434  1.00  0.00     0.234 C 
HETATM    7  N3  UNL     1      20.700   1.596  48.567  1.00  0.00    -0.254 NA
HETATM    8  C9  UNL     1      21.163   2.961  48.531  1.00  0.00     0.120 C 
HETATM    9  C10 UNL     1      21.298   3.916  49.413  1.00  0.00     0.052 C 
HETATM   10  C11 UNL     1      21.063   4.116  50.818  1.00  0.00     0.053 C 
HETATM   11  C12 UNL     1      20.545   3.172  51.586  1.00  0.00     0.065 C 
HETATM   12  O1  UNL     1      20.071   2.554  52.703  1.00  0.00     0.000 OA
HETATM   13  C13 UNL     1      20.312   1.227  53.121  1.00  0.00     0.025 C 
HETATM   14  C14 UNL     1      20.728   1.067  54.539  1.00  0.00     0.013 C 
HETATM   15  C15 UNL     1      21.129   0.458  52.105  1.00  0.00     0.194 C 
HETATM   16  O3  UNL     1      21.431   5.355  51.281  1.00  0.00    -0.353 OA
HETATM   17  C17 UNL     1      22.030   6.420  50.646  1.00  0.00     0.201 C 
HETATM   18  C18 UNL     1      23.316   6.853  51.333  1.00  0.00     0.194 C 
HETATM   19  O4  UNL     1      24.275   5.850  51.373  1.00  0.00    -0.389 OA
HETATM   20  C19 UNL     1      24.669   5.453  50.128  1.00  0.00     0.168 C 
HETATM   21  C20 UNL     1      25.732   4.401  50.167  1.00  0.00     0.039 C 
HETATM   22  H9  UNL     1      22.872   2.155  52.945  1.00  0.00     0.161 HD
ENDROOT
BRANCH   1  23
HETATM   23  C4  UNL     1      26.581   2.297  50.763  1.00  0.00     0.039 C 
BRANCH  23  24
HETATM   24  C3  UNL     1      27.110   2.124  52.172  1.00  0.00    -0.030 C 
HETATM   25  C2  UNL     1      27.271   1.012  52.858  1.00  0.00    -0.035 C 
HETATM   26  C1  UNL     1      26.915  -0.294  52.256  1.00  0.00     0.036 C 
ENDBRANCH  23  24
ENDBRANCH   1  23
BRANCH  15  27
HETATM   27  O2  UNL     1      21.499  -0.794  52.517  1.00  0.00    -0.383 OA
HETATM   28  C16 UNL     1      22.795  -0.846  52.964  1.00  0.00     0.202 C 
ENDBRANCH  15  27
TORSDOF 3
ENDMDL
MODEL 9
REMARK VINA RESULT:      -6.6      8.578     10.367
REMARK  3 active torsions:
REMARK  status: ('A' for Active; 'I' for Inactive)
REMARK    1  A    between atoms: C3_3  and  C4_4 
REMARK    2  A    between atoms: C4_4  and  C5_5 
REMARK    3  A    between atoms: C15_19  and  O2_20 
ROOT
HETATM    1  C5  UNL     1      21.322   1.709  52.522  1.00  0.00    -0.003 C 
HETATM    2  C6  UNL     1      20.909   2.847  52.050  1.00  0.00     0.116 C 
HETATM    3  N1  UNL     1      21.036   4.061  51.397  1.00  0.00    -0.369 N 
HETATM    4  C7  UNL     1      20.777   4.454  50.075  1.00  0.00     0.131 C 
HETATM    5  N2  UNL     1      20.909   3.348  49.378  1.00  0.00    -0.226 NA
HETATM    6  C8  UNL     1      20.701   3.426  47.947  1.00  0.00     0.234 C 
HETATM    7  N3  UNL     1      21.664   2.862  47.261  1.00  0.00    -0.254 NA
HETATM    8  C9  UNL     1      22.754   2.265  47.993  1.00  0.00     0.120 C 
HETATM    9  C10 UNL     1      23.584   2.676  48.915  1.00  0.00     0.052 C 
HETATM   10  C11 UNL     1      23.854   3.881  49.652  1.00  0.00     0.053 C 
HETATM   11  C12 UNL     1      23.173   4.996  49.450  1.00  0.00     0.065 C 
HETATM   12  O1  UNL     1      22.775   6.292  49.589  1.00  0.00     0.000 OA
HETATM   13  C13 UNL     1      21.455   6.789  49.619  1.00  0.00     0.025 C 
HETATM   14  C14 UNL     1      21.145   7.720  50.734  1.00  0.00     0.013 C 
HETATM   15  C15 UNL     1      20.437   5.695  49.374  1.00  0.00     0.194 C 
HETATM   16  O3  UNL     1      24.861   3.763  50.577  1.00  0.00    -0.353 OA
HETATM   17  C17 UNL     1      25.623   2.680  50.956  1.00  0.00     0.201 C 
HETATM   18  C18 UNL     1      25.536   2.408  52.450  1.00  0.00     0.194 C 
HETATM   19  O4  UNL     1      24.246   2.128  52.877  1.00  0.00    -0.389 OA
HETATM   20  C19 UNL     1      23.733   1.006  52.295  1.00  0.00     0.168 C 
HETATM   21  C20 UNL     1      22.359   0.678  52.784  1.00  0.00     0.039 C 
HETATM   22  H9  UNL     1      21.349   5.002  51.678  1.00  0.00     0.161 HD
ENDROOT
BRANCH   1  23
HETATM   23  C4  UNL     1      20.087   1.152  53.133  1.00  0.00     0.039 C 
BRANCH  23  24
HETATM   24  C3  UNL     1      19.184   0.675  52.014  1.00  0.00    -0.030 C 
HETATM   25  C2  UNL     1      18.367  -0.357  52.002  1.00  0.00    -0.035 C 
HETATM   26  C1  UNL     1      18.243  -1.226  53.196  1.00  0.00     0.036 C 
ENDBRANCH  23  24
ENDBRANCH   1  23
BRANCH  15  27
HETATM   27  O2  UNL     1      19.137   6.098  49.518  1.00  0.00    -0.383 OA
HETATM   28  C16 UNL     1      18.536   6.396  48.322  1.00  0.00     0.202 C 
ENDBRANCH  15  27
TORSDOF 3
ENDMDL
