MODEL 1
REMARK VINA RESULT:      -8.1      0.000      0.000
REMARK  3 active torsions:
REMARK  status: ('A' for Active; 'I' for Inactive)
REMARK    1  A    between atoms: C2_2  and  C16_21 
REMARK    2  A    between atoms: C3_3  and  N1_4 
REMARK    3  A    between atoms: N1_4  and  C4_5 
ROOT
HETATM    1  C4  UNL     1      24.668   0.600  52.960  1.00  0.00     0.066 A 
HETATM    2  C5  UNL     1      25.141   1.529  52.051  1.00  0.00     0.089 A 
HETATM    3  C6  UNL     1      26.438   2.104  51.967  1.00  0.00     0.103 C 
HETATM    4  N2  UNL     1      27.492   2.560  51.916  1.00  0.00    -0.191 NA
HETATM    5  C7  UNL     1      24.225   1.938  51.113  1.00  0.00     0.142 A 
HETATM    6  N3  UNL     1      22.999   1.416  51.165  1.00  0.00    -0.263 NA
HETATM    7  C8  UNL     1      22.499   0.522  52.020  1.00  0.00     0.050 A 
HETATM    8  C9  UNL     1      23.373   0.048  53.018  1.00  0.00     0.018 A 
HETATM    9  C10 UNL     1      23.473  -0.852  54.206  1.00  0.00     0.033 C 
HETATM   10  C11 UNL     1      22.362  -1.427  54.740  1.00  0.00     0.092 C 
HETATM   11  N4  UNL     1      21.755  -0.725  53.702  1.00  0.00    -0.334 N 
HETATM   12  C12 UNL     1      20.988   0.464  53.806  1.00  0.00     0.244 C 
HETATM   13  O1  UNL     1      21.313   0.113  54.965  1.00  0.00    -0.268 OA
HETATM   14  C13 UNL     1      20.246   1.545  53.187  1.00  0.00     0.071 C 
HETATM   15  C14 UNL     1      20.245   1.554  51.863  1.00  0.00    -0.015 C 
HETATM   16  C15 UNL     1      21.098   0.321  51.616  1.00  0.00     0.087 C 
HETATM   17  H9  UNL     1      22.063  -1.498  53.001  1.00  0.00     0.168 HD
ENDROOT
BRANCH   1  18
HETATM   18  N1  UNL     1      25.779   0.303  53.852  1.00  0.00    -0.364 N 
HETATM   19  H5  UNL     1      25.655   0.846  54.758  1.00  0.00     0.165 HD
BRANCH  18  20
HETATM   20  C3  UNL     1      26.847  -0.564  53.570  1.00  0.00     0.093 C 
HETATM   21  C2  UNL     1      28.111  -0.850  53.461  1.00  0.00    -0.040 C 
HETATM   22  C1  UNL     1      29.353  -0.081  53.673  1.00  0.00     0.047 C 
BRANCH  21  23
HETATM   23  C16 UNL     1      28.536  -2.204  53.043  1.00  0.00     0.257 C 
HETATM   24  F1  UNL     1      27.470  -2.903  52.485  1.00  0.00    -0.251 F 
ENDBRANCH  21  23
ENDBRANCH  18  20
ENDBRANCH   1  18
TORSDOF 3
ENDMDL
MODEL 2
REMARK VINA RESULT:      -7.9      2.528      6.358
REMARK  3 active torsions:
REMARK  status: ('A' for Active; 'I' for Inactive)
REMARK    1  A    between atoms: C2_2  and  C16_21 
REMARK    2  A    between atoms: C3_3  and  N1_4 
REMARK    3  A    between atoms: N1_4  and  C4_5 
ROOT
HETATM    1  C4  UNL     1      24.333   0.589  53.023  1.00  0.00     0.066 A 
HETATM    2  C5  UNL     1      23.824  -0.267  53.985  1.00  0.00     0.089 A 
HETATM    3  C6  UNL     1      22.496  -0.348  54.483  1.00  0.00     0.103 C 
HETATM    4  N2  UNL     1      21.417  -0.398  54.875  1.00  0.00    -0.191 NA
HETATM    5  C7  UNL     1      24.736  -1.146  54.516  1.00  0.00     0.142 A 
HETATM    6  N3  UNL     1      25.991  -1.094  54.068  1.00  0.00    -0.263 NA
HETATM    7  C8  UNL     1      26.525  -0.290  53.147  1.00  0.00     0.050 A 
HETATM    8  C9  UNL     1      25.659   0.646  52.550  1.00  0.00     0.018 A 
HETATM    9  C10 UNL     1      25.586   1.765  51.563  1.00  0.00     0.033 C 
HETATM   10  C11 UNL     1      26.718   2.290  51.020  1.00  0.00     0.092 C 
HETATM   11  N4  UNL     1      27.305   1.322  51.831  1.00  0.00    -0.334 N 
HETATM   12  C12 UNL     1      27.992   1.531  53.055  1.00  0.00     0.244 C 
HETATM   13  O1  UNL     1      27.661   2.653  52.601  1.00  0.00    -0.268 OA
HETATM   14  C13 UNL     1      28.679   1.011  54.220  1.00  0.00     0.071 C 
HETATM   15  C14 UNL     1      28.712  -0.308  54.325  1.00  0.00    -0.015 C 
HETATM   16  C15 UNL     1      27.946  -0.665  53.063  1.00  0.00     0.087 C 
HETATM   17  H9  UNL     1      27.064   0.560  51.093  1.00  0.00     0.168 HD
ENDROOT
BRANCH   1  18
HETATM   18  N1  UNL     1      23.221   1.425  52.595  1.00  0.00    -0.364 N 
HETATM   19  H5  UNL     1      23.094   2.221  53.289  1.00  0.00     0.165 HD
BRANCH  18  20
HETATM   20  C3  UNL     1      22.438   1.221  51.448  1.00  0.00     0.093 C 
HETATM   21  C2  UNL     1      21.346   0.865  50.838  1.00  0.00    -0.040 C 
HETATM   22  C1  UNL     1      20.040   0.353  51.297  1.00  0.00     0.047 C 
BRANCH  21  23
HETATM   23  C16 UNL     1      21.257   0.942  49.363  1.00  0.00     0.257 C 
HETATM   24  F1  UNL     1      22.423   1.483  48.828  1.00  0.00    -0.251 F 
ENDBRANCH  21  23
ENDBRANCH  18  20
ENDBRANCH   1  18
TORSDOF 3
ENDMDL
MODEL 3
REMARK VINA RESULT:      -7.8      2.932      4.612
REMARK  3 active torsions:
REMARK  status: ('A' for Active; 'I' for Inactive)
REMARK    1  A    between atoms: C2_2  and  C16_21 
REMARK    2  A    between atoms: C3_3  and  N1_4 
REMARK    3  A    between atoms: N1_4  and  C4_5 
ROOT
HETATM    1  C4  UNL     1      23.807   2.268  52.449  1.00  0.00     0.066 A 
HETATM    2  C5  UNL     1      22.615   2.956  52.292  1.00  0.00     0.089 A 
HETATM    3  C6  UNL     1      22.419   4.340  52.041  1.00  0.00     0.103 C 
HETATM    4  N2  UNL     1      22.281   5.463  51.841  1.00  0.00    -0.191 NA
HETATM    5  C7  UNL     1      21.485   2.182  52.392  1.00  0.00     0.142 A 
HETATM    6  N3  UNL     1      21.636   0.879  52.627  1.00  0.00    -0.263 NA
HETATM    7  C8  UNL     1      22.759   0.175  52.786  1.00  0.00     0.050 A 
HETATM    8  C9  UNL     1      23.968   0.891  52.699  1.00  0.00     0.018 A 
HETATM    9  C10 UNL     1      25.454   0.767  52.791  1.00  0.00     0.033 C 
HETATM   10  C11 UNL     1      26.031  -0.383  53.235  1.00  0.00     0.092 C 
HETATM   11  N4  UNL     1      24.696  -0.769  53.330  1.00  0.00    -0.334 N 
HETATM   12  C12 UNL     1      23.922  -0.895  54.511  1.00  0.00     0.244 C 
HETATM   13  O1  UNL     1      25.090  -0.581  54.846  1.00  0.00    -0.268 OA
HETATM   14  C13 UNL     1      22.659  -1.164  55.170  1.00  0.00     0.071 C 
HETATM   15  C14 UNL     1      21.627  -1.372  54.366  1.00  0.00    -0.015 C 
HETATM   16  C15 UNL     1      22.332  -1.212  53.030  1.00  0.00     0.087 C 
HETATM   17  H9  UNL     1      24.676  -0.955  52.258  1.00  0.00     0.168 HD
ENDROOT
BRANCH   1  18
HETATM   18  N1  UNL     1      24.867   3.256  52.307  1.00  0.00    -0.364 N 
HETATM   19  H5  UNL     1      25.047   3.713  53.250  1.00  0.00     0.165 HD
BRANCH  18  20
HETATM   20  C3  UNL     1      25.549   3.560  51.119  1.00  0.00     0.093 C 
HETATM   21  C2  UNL     1      25.635   4.088  49.934  1.00  0.00    -0.040 C 
HETATM   22  C1  UNL     1      24.697   4.848  49.085  1.00  0.00     0.047 C 
BRANCH  21  23
HETATM   23  C16 UNL     1      26.890   3.980  49.158  1.00  0.00     0.257 C 
HETATM   24  F1  UNL     1      27.071   5.104  48.358  1.00  0.00    -0.251 F 
ENDBRANCH  21  23
ENDBRANCH  18  20
ENDBRANCH   1  18
TORSDOF 3
ENDMDL
MODEL 4
REMARK VINA RESULT:      -7.7      2.783      5.872
REMARK  3 active torsions:
REMARK  status: ('A' for Active; 'I' for Inactive)
REMARK    1  A    between atoms: C2_2  and  C16_21 
REMARK    2  A    between atoms: C3_3  and  N1_4 
REMARK    3  A    between atoms: N1_4  and  C4_5 
ROOT
HETATM    1  C4  UNL     1      25.096   1.572  51.958  1.00  0.00     0.066 A 
HETATM    2  C5  UNL     1      25.598   2.486  51.048  1.00  0.00     0.089 A 
HETATM    3  C6  UNL     1      24.941   3.079  49.936  1.00  0.00     0.103 C 
HETATM    4  N2  UNL     1      24.394   3.547  49.040  1.00  0.00    -0.191 NA
HETATM    5  C7  UNL     1      26.902   2.859  51.262  1.00  0.00     0.142 A 
HETATM    6  N3  UNL     1      27.546   2.319  52.298  1.00  0.00    -0.263 NA
HETATM    7  C8  UNL     1      27.106   1.438  53.198  1.00  0.00     0.050 A 
HETATM    8  C9  UNL     1      25.775   1.000  53.052  1.00  0.00     0.018 A 
HETATM    9  C10 UNL     1      24.733   0.094  53.622  1.00  0.00     0.033 C 
HETATM   10  C11 UNL     1      25.050  -0.815  54.584  1.00  0.00     0.092 C 
HETATM   11  N4  UNL     1      26.310  -0.248  54.409  1.00  0.00    -0.334 N 
HETATM   12  C12 UNL     1      27.421  -0.818  53.736  1.00  0.00     0.244 C 
HETATM   13  O1  UNL     1      26.490  -1.659  53.727  1.00  0.00    -0.268 OA
HETATM   14  C13 UNL     1      28.781  -0.725  53.242  1.00  0.00     0.071 C 
HETATM   15  C14 UNL     1      29.373   0.446  53.413  1.00  0.00    -0.015 C 
HETATM   16  C15 UNL     1      28.240   1.187  54.102  1.00  0.00     0.087 C 
HETATM   17  H9  UNL     1      26.012   0.599  55.024  1.00  0.00     0.168 HD
ENDROOT
BRANCH   1  18
HETATM   18  N1  UNL     1      23.720   1.315  51.559  1.00  0.00    -0.364 N 
HETATM   19  H5  UNL     1      23.683   0.419  50.987  1.00  0.00     0.165 HD
BRANCH  18  20
HETATM   20  C3  UNL     1      22.612   2.117  51.877  1.00  0.00     0.093 C 
HETATM   21  C2  UNL     1      22.049   3.248  52.182  1.00  0.00    -0.040 C 
HETATM   22  C1  UNL     1      22.557   4.620  52.383  1.00  0.00     0.047 C 
BRANCH  21  23
HETATM   23  C16 UNL     1      20.588   3.318  52.404  1.00  0.00     0.257 C 
HETATM   24  F1  UNL     1      20.152   2.225  53.147  1.00  0.00    -0.251 F 
ENDBRANCH  21  23
ENDBRANCH  18  20
ENDBRANCH   1  18
TORSDOF 3
ENDMDL
MODEL 5
REMARK VINA RESULT:      -7.4      2.170      3.941
REMARK  3 active torsions:
REMARK  status: ('A' for Active; 'I' for Inactive)
REMARK    1  A    between atoms: C2_2  and  C16_21 
REMARK    2  A    between atoms: C3_3  and  N1_4 
REMARK    3  A    between atoms: N1_4  and  C4_5 
ROOT
HETATM    1  C4  UNL     1      22.734   0.746  53.214  1.00  0.00     0.066 A 
HETATM    2  C5  UNL     1      21.944  -0.256  53.751  1.00  0.00     0.089 A 
HETATM    3  C6  UNL     1      22.282  -1.212  54.746  1.00  0.00     0.103 C 
HETATM    4  N2  UNL     1      22.575  -1.979  55.550  1.00  0.00    -0.191 NA
HETATM    5  C7  UNL     1      20.669  -0.319  53.245  1.00  0.00     0.142 A 
HETATM    6  N3  UNL     1      20.322   0.566  52.309  1.00  0.00    -0.263 NA
HETATM    7  C8  UNL     1      21.046   1.544  51.763  1.00  0.00     0.050 A 
HETATM    8  C9  UNL     1      22.370   1.681  52.225  1.00  0.00     0.018 A 
HETATM    9  C10 UNL     1      23.632   2.462  52.058  1.00  0.00     0.033 C 
HETATM   10  C11 UNL     1      23.775   3.345  51.032  1.00  0.00     0.092 C 
HETATM   11  N4  UNL     1      22.482   2.908  50.754  1.00  0.00    -0.334 N 
HETATM   12  C12 UNL     1      22.080   2.024  49.720  1.00  0.00     0.244 C 
HETATM   13  O1  UNL     1      23.315   2.215  49.606  1.00  0.00    -0.268 OA
HETATM   14  C13 UNL     1      21.051   1.259  49.042  1.00  0.00     0.071 C 
HETATM   15  C14 UNL     1      19.851   1.293  49.600  1.00  0.00    -0.015 C 
HETATM   16  C15 UNL     1      20.165   2.196  50.781  1.00  0.00     0.087 C 
HETATM   17  H9  UNL     1      22.095   3.564  51.530  1.00  0.00     0.168 HD
ENDROOT
BRANCH   1  18
HETATM   18  N1  UNL     1      24.026   0.643  53.877  1.00  0.00    -0.364 N 
HETATM   19  H5  UNL     1      24.011   1.227  54.766  1.00  0.00     0.165 HD
BRANCH  18  20
HETATM   20  C3  UNL     1      25.122  -0.109  53.424  1.00  0.00     0.093 C 
HETATM   21  C2  UNL     1      26.176  -0.292  52.686  1.00  0.00    -0.040 C 
HETATM   22  C1  UNL     1      26.870   0.531  51.675  1.00  0.00     0.047 C 
BRANCH  21  23
HETATM   23  C16 UNL     1      26.943  -1.553  52.780  1.00  0.00     0.257 C 
HETATM   24  F1  UNL     1      26.521  -2.458  51.809  1.00  0.00    -0.251 F 
ENDBRANCH  21  23
ENDBRANCH  18  20
ENDBRANCH   1  18
TORSDOF 3
ENDMDL
MODEL 6
REMARK VINA RESULT:      -7.3      3.297      6.218
REMARK  3 active torsions:
REMARK  status: ('A' for Active; 'I' for Inactive)
REMARK    1  A    between atoms: C2_2  and  C16_21 
REMARK    2  A    between atoms: C3_3  and  N1_4 
REMARK    3  A    between atoms: N1_4  and  C4_5 
ROOT
HETATM    1  C4  UNL     1      23.226   2.053  51.996  1.00  0.00     0.066 A 
HETATM    2  C5  UNL     1      22.047   1.689  52.623  1.00  0.00     0.089 A 
HETATM    3  C6  UNL     1      20.774   2.315  52.546  1.00  0.00     0.103 C 
HETATM    4  N2  UNL     1      19.753   2.837  52.473  1.00  0.00    -0.191 NA
HETATM    5  C7  UNL     1      22.136   0.573  53.419  1.00  0.00     0.142 A 
HETATM    6  N3  UNL     1      23.318  -0.037  53.511  1.00  0.00    -0.263 NA
HETATM    7  C8  UNL     1      24.477   0.276  52.929  1.00  0.00     0.050 A 
HETATM    8  C9  UNL     1      24.475   1.410  52.093  1.00  0.00     0.018 A 
HETATM    9  C10 UNL     1      25.334   2.272  51.227  1.00  0.00     0.033 C 
HETATM   10  C11 UNL     1      26.686   2.118  51.211  1.00  0.00     0.092 C 
HETATM   11  N4  UNL     1      26.372   1.119  52.130  1.00  0.00    -0.334 N 
HETATM   12  C12 UNL     1      26.558   1.158  53.536  1.00  0.00     0.244 C 
HETATM   13  O1  UNL     1      27.015   2.224  53.056  1.00  0.00    -0.268 OA
HETATM   14  C13 UNL     1      26.409   0.555  54.846  1.00  0.00     0.071 C 
HETATM   15  C14 UNL     1      25.751  -0.593  54.876  1.00  0.00    -0.015 C 
HETATM   16  C15 UNL     1      25.445  -0.730  53.394  1.00  0.00     0.087 C 
HETATM   17  H9  UNL     1      26.086   0.460  51.313  1.00  0.00     0.168 HD
ENDROOT
BRANCH   1  18
HETATM   18  N1  UNL     1      22.918   3.240  51.211  1.00  0.00    -0.364 N 
HETATM   19  H5  UNL     1      22.961   4.096  51.840  1.00  0.00     0.165 HD
BRANCH  18  20
HETATM   20  C3  UNL     1      22.615   3.259  49.840  1.00  0.00     0.093 C 
HETATM   21  C2  UNL     1      22.176   2.719  48.742  1.00  0.00    -0.040 C 
HETATM   22  C1  UNL     1      21.631   1.389  48.406  1.00  0.00     0.047 C 
BRANCH  21  23
HETATM   23  C16 UNL     1      22.163   3.495  47.483  1.00  0.00     0.257 C 
HETATM   24  F1  UNL     1      22.539   4.815  47.715  1.00  0.00    -0.251 F 
ENDBRANCH  21  23
ENDBRANCH  18  20
ENDBRANCH   1  18
TORSDOF 3
ENDMDL
MODEL 7
REMARK VINA RESULT:      -7.2      2.853      4.363
REMARK  3 active torsions:
REMARK  status: ('A' for Active; 'I' for Inactive)
REMARK    1  A    between atoms: C2_2  and  C16_21 
REMARK    2  A    between atoms: C3_3  and  N1_4 
REMARK    3  A    between atoms: N1_4  and  C4_5 
ROOT
HETATM    1  C4  UNL     1      24.641   1.777  52.745  1.00  0.00     0.066 A 
HETATM    2  C5  UNL     1      25.160   0.508  52.937  1.00  0.00     0.089 A 
HETATM    3  C6  UNL     1      26.519   0.094  52.905  1.00  0.00     0.103 C 
HETATM    4  N2  UNL     1      27.623  -0.222  52.872  1.00  0.00    -0.191 NA
HETATM    5  C7  UNL     1      24.226  -0.466  53.193  1.00  0.00     0.142 A 
HETATM    6  N3  UNL     1      22.942  -0.108  53.230  1.00  0.00    -0.263 NA
HETATM    7  C8  UNL     1      22.396   1.096  53.051  1.00  0.00     0.050 A 
HETATM    8  C9  UNL     1      23.284   2.156  52.782  1.00  0.00     0.018 A 
HETATM    9  C10 UNL     1      23.364   3.617  52.481  1.00  0.00     0.033 C 
HETATM   10  C11 UNL     1      22.239   4.336  52.214  1.00  0.00     0.092 C 
HETATM   11  N4  UNL     1      21.648   3.093  52.424  1.00  0.00    -0.334 N 
HETATM   12  C12 UNL     1      21.123   2.217  51.439  1.00  0.00     0.244 C 
HETATM   13  O1  UNL     1      21.516   3.258  50.860  1.00  0.00    -0.268 OA
HETATM   14  C13 UNL     1      20.515   0.954  51.069  1.00  0.00     0.071 C 
HETATM   15  C14 UNL     1      20.359   0.083  52.054  1.00  0.00    -0.015 C 
HETATM   16  C15 UNL     1      20.944   0.904  53.191  1.00  0.00     0.087 C 
HETATM   17  H9  UNL     1      21.728   3.238  53.499  1.00  0.00     0.168 HD
ENDROOT
BRANCH   1  18
HETATM   18  N1  UNL     1      25.779   2.648  52.493  1.00  0.00    -0.364 N 
HETATM   19  H5  UNL     1      26.274   2.852  53.412  1.00  0.00     0.165 HD
BRANCH  18  20
HETATM   20  C3  UNL     1      26.172   3.141  51.238  1.00  0.00     0.093 C 
HETATM   21  C2  UNL     1      25.939   3.514  50.015  1.00  0.00    -0.040 C 
HETATM   22  C1  UNL     1      24.721   3.580  49.182  1.00  0.00     0.047 C 
BRANCH  21  23
HETATM   23  C16 UNL     1      27.044   3.999  49.160  1.00  0.00     0.257 C 
HETATM   24  F1  UNL     1      26.664   5.149  48.474  1.00  0.00    -0.251 F 
ENDBRANCH  21  23
ENDBRANCH  18  20
ENDBRANCH   1  18
TORSDOF 3
ENDMDL
MODEL 8
REMARK VINA RESULT:      -7.1      3.166      5.632
REMARK  3 active torsions:
REMARK  status: ('A' for Active; 'I' for Inactive)
REMARK    1  A    between atoms: C2_2  and  C16_21 
REMARK    2  A    between atoms: C3_3  and  N1_4 
REMARK    3  A    between atoms: N1_4  and  C4_5 
ROOT
HETATM    1  C4  UNL     1      24.400   2.815  52.220  1.00  0.00     0.066 A 
HETATM    2  C5  UNL     1      23.020   2.705  52.243  1.00  0.00     0.089 A 
HETATM    3  C6  UNL     1      22.048   3.695  51.937  1.00  0.00     0.103 C 
HETATM    4  N2  UNL     1      21.278   4.511  51.689  1.00  0.00    -0.191 NA
HETATM    5  C7  UNL     1      22.545   1.470  52.610  1.00  0.00     0.142 A 
HETATM    6  N3  UNL     1      23.432   0.519  52.902  1.00  0.00    -0.263 NA
HETATM    7  C8  UNL     1      24.765   0.578  52.895  1.00  0.00     0.050 A 
HETATM    8  C9  UNL     1      25.339   1.812  52.530  1.00  0.00     0.018 A 
HETATM    9  C10 UNL     1      26.633   2.534  52.348  1.00  0.00     0.033 C 
HETATM   10  C11 UNL     1      27.806   1.975  52.754  1.00  0.00     0.092 C 
HETATM   11  N4  UNL     1      26.945   0.946  53.127  1.00  0.00    -0.334 N 
HETATM   12  C12 UNL     1      26.523   0.615  54.440  1.00  0.00     0.244 C 
HETATM   13  O1  UNL     1      27.339   1.564  54.524  1.00  0.00    -0.268 OA
HETATM   14  C13 UNL     1      25.720  -0.186  55.343  1.00  0.00     0.071 C 
HETATM   15  C14 UNL     1      24.900  -1.051  54.766  1.00  0.00    -0.015 C 
HETATM   16  C15 UNL     1      25.228  -0.756  53.313  1.00  0.00     0.087 C 
HETATM   17  H9  UNL     1      26.908   0.606  52.094  1.00  0.00     0.168 HD
ENDROOT
BRANCH   1  18
HETATM   18  N1  UNL     1      24.691   4.181  51.810  1.00  0.00    -0.364 N 
HETATM   19  H5  UNL     1      24.295   4.854  52.532  1.00  0.00     0.165 HD
BRANCH  18  20
HETATM   20  C3  UNL     1      25.386   4.557  50.650  1.00  0.00     0.093 C 
HETATM   21  C2  UNL     1      25.474   5.128  49.485  1.00  0.00    -0.040 C 
HETATM   22  C1  UNL     1      24.519   5.867  48.635  1.00  0.00     0.047 C 
BRANCH  21  23
HETATM   23  C16 UNL     1      26.752   5.109  48.740  1.00  0.00     0.257 C 
HETATM   24  F1  UNL     1      27.344   3.851  48.813  1.00  0.00    -0.251 F 
ENDBRANCH  21  23
ENDBRANCH  18  20
ENDBRANCH   1  18
TORSDOF 3
ENDMDL
MODEL 9
REMARK VINA RESULT:      -7.0      3.377      5.502
REMARK  3 active torsions:
REMARK  status: ('A' for Active; 'I' for Inactive)
REMARK    1  A    between atoms: C2_2  and  C16_21 
REMARK    2  A    between atoms: C3_3  and  N1_4 
REMARK    3  A    between atoms: N1_4  and  C4_5 
ROOT
HETATM    1  C4  UNL     1      23.332   2.763  51.712  1.00  0.00     0.066 A 
HETATM    2  C5  UNL     1      22.029   2.961  52.135  1.00  0.00     0.089 A 
HETATM    3  C6  UNL     1      21.059   1.988  52.495  1.00  0.00     0.103 C 
HETATM    4  N2  UNL     1      20.286   1.186  52.779  1.00  0.00    -0.191 NA
HETATM    5  C7  UNL     1      21.640   4.276  52.212  1.00  0.00     0.142 A 
HETATM    6  N3  UNL     1      22.530   5.212  51.881  1.00  0.00    -0.263 NA
HETATM    7  C8  UNL     1      23.790   5.071  51.469  1.00  0.00     0.050 A 
HETATM    8  C9  UNL     1      24.273   3.751  51.361  1.00  0.00     0.018 A 
HETATM    9  C10 UNL     1      25.458   2.927  50.976  1.00  0.00     0.033 C 
HETATM   10  C11 UNL     1      26.534   3.495  50.366  1.00  0.00     0.092 C 
HETATM   11  N4  UNL     1      25.748   4.637  50.510  1.00  0.00    -0.334 N 
HETATM   12  C12 UNL     1      25.024   5.312  49.495  1.00  0.00     0.244 C 
HETATM   13  O1  UNL     1      25.648   4.365  48.959  1.00  0.00    -0.268 OA
HETATM   14  C13 UNL     1      24.115   6.362  49.079  1.00  0.00     0.071 C 
HETATM   15  C14 UNL     1      23.613   7.104  50.054  1.00  0.00    -0.015 C 
HETATM   16  C15 UNL     1      24.293   6.434  51.236  1.00  0.00     0.087 C 
HETATM   17  H9  UNL     1      26.048   4.709  51.554  1.00  0.00     0.168 HD
ENDROOT
BRANCH   1  18
HETATM   18  N1  UNL     1      23.541   1.323  51.701  1.00  0.00    -0.364 N 
HETATM   19  H5  UNL     1      23.107   0.913  50.821  1.00  0.00     0.165 HD
BRANCH  18  20
HETATM   20  C3  UNL     1      24.210   0.584  52.691  1.00  0.00     0.093 C 
HETATM   21  C2  UNL     1      25.206  -0.125  53.133  1.00  0.00    -0.040 C 
HETATM   22  C1  UNL     1      26.474  -0.590  52.535  1.00  0.00     0.047 C 
BRANCH  21  23
HETATM   23  C16 UNL     1      25.196  -0.642  54.519  1.00  0.00     0.257 C 
HETATM   24  F1  UNL     1      26.341  -0.240  55.201  1.00  0.00    -0.251 F 
ENDBRANCH  21  23
ENDBRANCH  18  20
ENDBRANCH   1  18
TORSDOF 3
ENDMDL
