MODEL 1
REMARK VINA RESULT:      -8.1      0.000      0.000
REMARK  2 active torsions:
REMARK  status: ('A' for Active; 'I' for Inactive)
REMARK    1  A    between atoms: C8_8  and  C9_9 
REMARK    2  A    between atoms: C16_19  and  O2_20 
ROOT
HETATM    1  C1  UNL     1      23.871   7.625  50.908  1.00  0.00     0.018 C 
HETATM    2  C2  UNL     1      23.556   6.560  50.439  1.00  0.00    -0.078 C 
HETATM    3  C3  UNL     1      23.158   5.273  49.889  1.00  0.00     0.017 A 
HETATM    4  C4  UNL     1      22.900   5.089  48.547  1.00  0.00     0.021 A 
HETATM    5  C5  UNL     1      22.518   3.833  48.084  1.00  0.00     0.009 A 
HETATM    6  C6  UNL     1      22.394   2.772  48.954  1.00  0.00    -0.049 A 
HETATM    7  C7  UNL     1      22.015   1.392  48.557  1.00  0.00     0.049 C 
HETATM    8  C8  UNL     1      22.635   2.883  50.310  1.00  0.00     0.001 A 
HETATM    9  C20 UNL     1      23.020   4.177  50.728  1.00  0.00     0.034 A 
ENDROOT
BRANCH   8  10
HETATM   10  C9  UNL     1      22.485   1.954  51.384  1.00  0.00     0.081 A 
HETATM   11  N1  UNL     1      21.223   1.785  51.824  1.00  0.00    -0.240 NA
HETATM   12  C10 UNL     1      20.975   0.947  52.870  1.00  0.00     0.234 A 
HETATM   13  N2  UNL     1      21.979   0.258  53.502  1.00  0.00    -0.241 NA
HETATM   14  C11 UNL     1      23.196   0.457  53.032  1.00  0.00     0.072 A 
HETATM   15  C12 UNL     1      23.539   1.315  51.941  1.00  0.00     0.025 A 
HETATM   16  C18 UNL     1      24.135  -0.237  53.732  1.00  0.00     0.076 C 
HETATM   17  C13 UNL     1      24.662   1.653  51.226  1.00  0.00     0.055 C 
HETATM   18  C14 UNL     1      25.935   1.260  51.941  1.00  0.00     0.091 C 
HETATM   19  C15 UNL     1      26.723   1.893  52.850  1.00  0.00     0.175 C 
HETATM   20  O3  UNL     1      26.562  -0.054  51.715  1.00  0.00    -0.344 OA
HETATM   21  O1  UNL     1      26.022   1.277  53.906  1.00  0.00    -0.317 OA
HETATM   22  C16 UNL     1      25.654  -0.095  53.963  1.00  0.00     0.212 C 
HETATM   23  C19 UNL     1      26.363  -0.902  52.893  1.00  0.00     0.249 C 
BRANCH  22  24
HETATM   24  O2  UNL     1      25.873  -0.670  55.199  1.00  0.00    -0.355 OA
HETATM   25  C17 UNL     1      24.765  -1.084  55.880  1.00  0.00     0.206 C 
ENDBRANCH  22  24
ENDBRANCH   8  10
TORSDOF 2
ENDMDL
MODEL 2
REMARK VINA RESULT:      -8.0      3.220      6.741
REMARK  2 active torsions:
REMARK  status: ('A' for Active; 'I' for Inactive)
REMARK    1  A    between atoms: C8_8  and  C9_9 
REMARK    2  A    between atoms: C16_19  and  O2_20 
ROOT
HETATM    1  C1  UNL     1      21.549  -1.513  54.600  1.00  0.00     0.018 C 
HETATM    2  C2  UNL     1      22.440  -0.926  54.040  1.00  0.00    -0.078 C 
HETATM    3  C3  UNL     1      23.511  -0.196  53.378  1.00  0.00     0.017 A 
HETATM    4  C4  UNL     1      24.803  -0.673  53.316  1.00  0.00     0.021 A 
HETATM    5  C5  UNL     1      25.784   0.075  52.671  1.00  0.00     0.009 A 
HETATM    6  C6  UNL     1      25.476   1.288  52.095  1.00  0.00    -0.049 A 
HETATM    7  C7  UNL     1      26.443   2.149  51.368  1.00  0.00     0.049 C 
HETATM    8  C8  UNL     1      24.205   1.828  52.120  1.00  0.00     0.001 A 
HETATM    9  C20 UNL     1      23.246   1.029  52.784  1.00  0.00     0.034 A 
ENDROOT
BRANCH   8  10
HETATM   10  C9  UNL     1      23.693   3.083  51.672  1.00  0.00     0.081 A 
HETATM   11  N1  UNL     1      23.903   4.119  52.508  1.00  0.00    -0.240 NA
HETATM   12  C10 UNL     1      23.424   5.355  52.191  1.00  0.00     0.234 A 
HETATM   13  N2  UNL     1      22.723   5.588  51.034  1.00  0.00    -0.241 NA
HETATM   14  C11 UNL     1      22.546   4.541  50.251  1.00  0.00     0.072 A 
HETATM   15  C12 UNL     1      23.017   3.217  50.508  1.00  0.00     0.025 A 
HETATM   16  C18 UNL     1      21.816   4.849  49.142  1.00  0.00     0.076 C 
HETATM   17  C13 UNL     1      23.036   2.000  49.869  1.00  0.00     0.055 C 
HETATM   18  C14 UNL     1      22.049   1.941  48.724  1.00  0.00     0.091 C 
HETATM   19  C15 UNL     1      20.737   1.594  48.645  1.00  0.00     0.175 C 
HETATM   20  O3  UNL     1      22.445   2.319  47.357  1.00  0.00    -0.344 OA
HETATM   21  O1  UNL     1      20.357   2.941  48.811  1.00  0.00    -0.317 OA
HETATM   22  C16 UNL     1      20.947   4.051  48.149  1.00  0.00     0.212 C 
HETATM   23  C19 UNL     1      21.839   3.605  47.007  1.00  0.00     0.249 C 
BRANCH  22  24
HETATM   24  O2  UNL     1      20.022   4.966  47.685  1.00  0.00    -0.355 OA
HETATM   25  C17 UNL     1      19.325   5.658  48.633  1.00  0.00     0.206 C 
ENDBRANCH  22  24
ENDBRANCH   8  10
TORSDOF 2
ENDMDL
MODEL 3
REMARK VINA RESULT:      -7.8      3.114      6.290
REMARK  2 active torsions:
REMARK  status: ('A' for Active; 'I' for Inactive)
REMARK    1  A    between atoms: C8_8  and  C9_9 
REMARK    2  A    between atoms: C16_19  and  O2_20 
ROOT
HETATM    1  C1  UNL     1      22.685  -1.259  55.066  1.00  0.00     0.018 C 
HETATM    2  C2  UNL     1      21.885  -0.856  54.260  1.00  0.00    -0.078 C 
HETATM    3  C3  UNL     1      20.932  -0.380  53.268  1.00  0.00     0.017 A 
HETATM    4  C4  UNL     1      19.584  -0.658  53.343  1.00  0.00     0.021 A 
HETATM    5  C5  UNL     1      18.724  -0.177  52.360  1.00  0.00     0.009 A 
HETATM    6  C6  UNL     1      19.209   0.574  51.311  1.00  0.00    -0.049 A 
HETATM    7  C7  UNL     1      18.374   1.150  50.226  1.00  0.00     0.049 C 
HETATM    8  C8  UNL     1      20.546   0.890  51.171  1.00  0.00     0.001 A 
HETATM    9  C20 UNL     1      21.375   0.379  52.195  1.00  0.00     0.034 A 
ENDROOT
BRANCH   8  10
HETATM   10  C9  UNL     1      21.263   1.567  50.138  1.00  0.00     0.081 A 
HETATM   11  N1  UNL     1      21.432   0.862  49.001  1.00  0.00    -0.240 NA
HETATM   12  C10 UNL     1      22.134   1.403  47.966  1.00  0.00     0.234 A 
HETATM   13  N2  UNL     1      22.683   2.658  48.037  1.00  0.00    -0.241 NA
HETATM   14  C11 UNL     1      22.487   3.306  49.170  1.00  0.00     0.072 A 
HETATM   15  C12 UNL     1      21.763   2.812  50.299  1.00  0.00     0.025 A 
HETATM   16  C18 UNL     1      23.089   4.528  49.171  1.00  0.00     0.076 C 
HETATM   17  C13 UNL     1      21.362   3.270  51.531  1.00  0.00     0.055 C 
HETATM   18  C14 UNL     1      22.119   4.509  51.954  1.00  0.00     0.091 C 
HETATM   19  C15 UNL     1      23.284   4.702  52.626  1.00  0.00     0.175 C 
HETATM   20  O3  UNL     1      21.616   5.856  51.632  1.00  0.00    -0.344 OA
HETATM   21  O1  UNL     1      23.991   4.771  51.409  1.00  0.00    -0.317 OA
HETATM   22  C16 UNL     1      23.583   5.502  50.260  1.00  0.00     0.212 C 
HETATM   23  C19 UNL     1      22.446   6.452  50.583  1.00  0.00     0.249 C 
BRANCH  22  24
HETATM   24  O2  UNL     1      24.613   6.199  49.660  1.00  0.00    -0.355 OA
HETATM   25  C17 UNL     1      25.302   7.068  50.456  1.00  0.00     0.206 C 
ENDBRANCH  22  24
ENDBRANCH   8  10
TORSDOF 2
ENDMDL
MODEL 4
REMARK VINA RESULT:      -7.4      3.158      6.809
REMARK  2 active torsions:
REMARK  status: ('A' for Active; 'I' for Inactive)
REMARK    1  A    between atoms: C8_8  and  C9_9 
REMARK    2  A    between atoms: C16_19  and  O2_20 
ROOT
HETATM    1  C1  UNL     1      17.668  -0.891  53.112  1.00  0.00     0.018 C 
HETATM    2  C2  UNL     1      18.861  -0.840  53.277  1.00  0.00    -0.078 C 
HETATM    3  C3  UNL     1      20.299  -0.754  53.483  1.00  0.00     0.017 A 
HETATM    4  C4  UNL     1      20.989  -1.656  54.264  1.00  0.00     0.021 A 
HETATM    5  C5  UNL     1      22.365  -1.517  54.427  1.00  0.00     0.009 A 
HETATM    6  C6  UNL     1      23.043  -0.485  53.814  1.00  0.00    -0.049 A 
HETATM    7  C7  UNL     1      24.509  -0.263  53.905  1.00  0.00     0.049 C 
HETATM    8  C8  UNL     1      22.417   0.454  53.018  1.00  0.00     0.001 A 
HETATM    9  C20 UNL     1      21.022   0.268  52.885  1.00  0.00     0.034 A 
ENDROOT
BRANCH   8  10
HETATM   10  C9  UNL     1      22.901   1.631  52.371  1.00  0.00     0.081 A 
HETATM   11  N1  UNL     1      23.643   2.447  53.146  1.00  0.00    -0.240 NA
HETATM   12  C10 UNL     1      24.125   3.615  52.635  1.00  0.00     0.234 A 
HETATM   13  N2  UNL     1      23.879   3.998  51.340  1.00  0.00    -0.241 NA
HETATM   14  C11 UNL     1      23.149   3.164  50.624  1.00  0.00     0.072 A 
HETATM   15  C12 UNL     1      22.610   1.922  51.083  1.00  0.00     0.025 A 
HETATM   16  C18 UNL     1      22.925   3.632  49.365  1.00  0.00     0.076 C 
HETATM   17  C13 UNL     1      21.900   0.867  50.564  1.00  0.00     0.055 C 
HETATM   18  C14 UNL     1      21.248   1.211  49.243  1.00  0.00     0.091 C 
HETATM   19  C15 UNL     1      20.047   1.755  48.914  1.00  0.00     0.175 C 
HETATM   20  O3  UNL     1      21.942   0.974  47.965  1.00  0.00    -0.344 OA
HETATM   21  O1  UNL     1      20.622   3.041  48.886  1.00  0.00    -0.317 OA
HETATM   22  C16 UNL     1      21.862   3.376  48.277  1.00  0.00     0.212 C 
HETATM   23  C19 UNL     1      22.365   2.253  47.392  1.00  0.00     0.249 C 
BRANCH  22  24
HETATM   24  O2  UNL     1      21.817   4.552  47.553  1.00  0.00    -0.355 OA
HETATM   25  C17 UNL     1      21.910   4.433  46.197  1.00  0.00     0.206 C 
ENDBRANCH  22  24
ENDBRANCH   8  10
TORSDOF 2
ENDMDL
MODEL 5
REMARK VINA RESULT:      -7.3      2.930      6.484
REMARK  2 active torsions:
REMARK  status: ('A' for Active; 'I' for Inactive)
REMARK    1  A    between atoms: C8_8  and  C9_9 
REMARK    2  A    between atoms: C16_19  and  O2_20 
ROOT
HETATM    1  C1  UNL     1      27.555   0.353  52.771  1.00  0.00     0.018 C 
HETATM    2  C2  UNL     1      26.352   0.359  52.843  1.00  0.00    -0.078 C 
HETATM    3  C3  UNL     1      24.898   0.357  52.907  1.00  0.00     0.017 A 
HETATM    4  C4  UNL     1      24.203  -0.244  53.935  1.00  0.00     0.021 A 
HETATM    5  C5  UNL     1      22.811  -0.215  53.937  1.00  0.00     0.009 A 
HETATM    6  C6  UNL     1      22.122   0.407  52.919  1.00  0.00    -0.049 A 
HETATM    7  C7  UNL     1      20.642   0.511  52.840  1.00  0.00     0.049 C 
HETATM    8  C8  UNL     1      22.751   1.028  51.858  1.00  0.00     0.001 A 
HETATM    9  C20 UNL     1      24.163   0.972  51.905  1.00  0.00     0.034 A 
ENDROOT
BRANCH   8  10
HETATM   10  C9  UNL     1      22.241   1.645  50.676  1.00  0.00     0.081 A 
HETATM   11  N1  UNL     1      21.841   0.793  49.711  1.00  0.00    -0.240 NA
HETATM   12  C10 UNL     1      21.372   1.280  48.528  1.00  0.00     0.234 A 
HETATM   13  N2  UNL     1      21.289   2.626  48.277  1.00  0.00    -0.241 NA
HETATM   14  C11 UNL     1      21.691   3.417  49.254  1.00  0.00     0.072 A 
HETATM   15  C12 UNL     1      22.193   2.988  50.522  1.00  0.00     0.025 A 
HETATM   16  C18 UNL     1      21.606   4.733  48.914  1.00  0.00     0.076 C 
HETATM   17  C13 UNL     1      22.606   3.561  51.700  1.00  0.00     0.055 C 
HETATM   18  C14 UNL     1      22.899   5.037  51.546  1.00  0.00     0.091 C 
HETATM   19  C15 UNL     1      24.014   5.731  51.198  1.00  0.00     0.175 C 
HETATM   20  O3  UNL     1      21.854   6.050  51.777  1.00  0.00    -0.344 OA
HETATM   21  O1  UNL     1      23.603   5.743  49.850  1.00  0.00    -0.317 OA
HETATM   22  C16 UNL     1      22.288   6.032  49.392  1.00  0.00     0.212 C 
HETATM   23  C19 UNL     1      21.435   6.624  50.497  1.00  0.00     0.249 C 
BRANCH  22  24
HETATM   24  O2  UNL     1      22.262   6.863  48.290  1.00  0.00    -0.355 OA
HETATM   25  C17 UNL     1      21.234   6.675  47.413  1.00  0.00     0.206 C 
ENDBRANCH  22  24
ENDBRANCH   8  10
TORSDOF 2
ENDMDL
MODEL 6
REMARK VINA RESULT:      -7.3      2.498      4.245
REMARK  2 active torsions:
REMARK  status: ('A' for Active; 'I' for Inactive)
REMARK    1  A    between atoms: C8_8  and  C9_9 
REMARK    2  A    between atoms: C16_19  and  O2_20 
ROOT
HETATM    1  C1  UNL     1      21.606   3.839  45.250  1.00  0.00     0.018 C 
HETATM    2  C2  UNL     1      21.994   4.308  46.290  1.00  0.00    -0.078 C 
HETATM    3  C3  UNL     1      22.485   4.862  47.543  1.00  0.00     0.017 A 
HETATM    4  C4  UNL     1      22.457   6.213  47.815  1.00  0.00     0.021 A 
HETATM    5  C5  UNL     1      22.946   6.683  49.031  1.00  0.00     0.009 A 
HETATM    6  C6  UNL     1      23.459   5.808  49.965  1.00  0.00    -0.049 A 
HETATM    7  C7  UNL     1      23.983   6.205  51.297  1.00  0.00     0.049 C 
HETATM    8  C8  UNL     1      23.519   4.444  49.760  1.00  0.00     0.001 A 
HETATM    9  C20 UNL     1      23.009   4.020  48.512  1.00  0.00     0.034 A 
ENDROOT
BRANCH   8  10
HETATM   10  C9  UNL     1      24.077   3.386  50.540  1.00  0.00     0.081 A 
HETATM   11  N1  UNL     1      25.421   3.289  50.496  1.00  0.00    -0.240 NA
HETATM   12  C10 UNL     1      26.052   2.291  51.176  1.00  0.00     0.234 A 
HETATM   13  N2  UNL     1      25.360   1.367  51.918  1.00  0.00    -0.241 NA
HETATM   14  C11 UNL     1      24.048   1.507  51.929  1.00  0.00     0.072 A 
HETATM   15  C12 UNL     1      23.312   2.524  51.246  1.00  0.00     0.025 A 
HETATM   16  C18 UNL     1      23.436   0.534  52.659  1.00  0.00     0.076 C 
HETATM   17  C13 UNL     1      22.005   2.935  51.136  1.00  0.00     0.055 C 
HETATM   18  C14 UNL     1      21.032   1.879  51.611  1.00  0.00     0.091 C 
HETATM   19  C15 UNL     1      20.414   0.839  50.991  1.00  0.00     0.175 C 
HETATM   20  O3  UNL     1      20.577   1.836  53.012  1.00  0.00    -0.344 OA
HETATM   21  O1  UNL     1      21.447  -0.032  51.393  1.00  0.00    -0.317 OA
HETATM   22  C16 UNL     1      22.023  -0.084  52.691  1.00  0.00     0.212 C 
HETATM   23  C19 UNL     1      21.198   0.698  53.694  1.00  0.00     0.249 C 
BRANCH  22  24
HETATM   24  O2  UNL     1      22.217  -1.371  53.153  1.00  0.00    -0.355 OA
HETATM   25  C17 UNL     1      21.655  -1.673  54.359  1.00  0.00     0.206 C 
ENDBRANCH  22  24
ENDBRANCH   8  10
TORSDOF 2
ENDMDL
MODEL 7
REMARK VINA RESULT:      -7.2      2.887      4.402
REMARK  2 active torsions:
REMARK  status: ('A' for Active; 'I' for Inactive)
REMARK    1  A    between atoms: C8_8  and  C9_9 
REMARK    2  A    between atoms: C16_19  and  O2_20 
ROOT
HETATM    1  C1  UNL     1      29.453   6.149  47.805  1.00  0.00     0.018 C 
HETATM    2  C2  UNL     1      28.366   6.417  48.251  1.00  0.00    -0.078 C 
HETATM    3  C3  UNL     1      27.054   6.720  48.803  1.00  0.00     0.017 A 
HETATM    4  C4  UNL     1      26.774   7.914  49.432  1.00  0.00     0.021 A 
HETATM    5  C5  UNL     1      25.499   8.143  49.944  1.00  0.00     0.009 A 
HETATM    6  C6  UNL     1      24.515   7.185  49.827  1.00  0.00    -0.049 A 
HETATM    7  C7  UNL     1      23.122   7.340  50.318  1.00  0.00     0.049 C 
HETATM    8  C8  UNL     1      24.724   5.967  49.210  1.00  0.00     0.001 A 
HETATM    9  C20 UNL     1      26.033   5.786  48.708  1.00  0.00     0.034 A 
ENDROOT
BRANCH   8  10
HETATM   10  C9  UNL     1      23.889   4.820  49.058  1.00  0.00     0.081 A 
HETATM   11  N1  UNL     1      23.073   4.842  47.985  1.00  0.00    -0.240 NA
HETATM   12  C10 UNL     1      22.210   3.811  47.767  1.00  0.00     0.234 A 
HETATM   13  N2  UNL     1      22.137   2.732  48.613  1.00  0.00    -0.241 NA
HETATM   14  C11 UNL     1      22.956   2.759  49.647  1.00  0.00     0.072 A 
HETATM   15  C12 UNL     1      23.891   3.799  49.944  1.00  0.00     0.025 A 
HETATM   16  C18 UNL     1      22.800   1.671  50.451  1.00  0.00     0.076 C 
HETATM   17  C13 UNL     1      24.872   4.051  50.873  1.00  0.00     0.055 C 
HETATM   18  C14 UNL     1      24.756   3.152  52.084  1.00  0.00     0.091 C 
HETATM   19  C15 UNL     1      24.077   3.255  53.257  1.00  0.00     0.175 C 
HETATM   20  O3  UNL     1      25.462   1.860  52.144  1.00  0.00    -0.344 OA
HETATM   21  O1  UNL     1      22.995   2.538  52.708  1.00  0.00    -0.317 OA
HETATM   22  C16 UNL     1      23.102   1.353  51.930  1.00  0.00     0.212 C 
HETATM   23  C19 UNL     1      24.498   0.767  52.003  1.00  0.00     0.249 C 
BRANCH  22  24
HETATM   24  O2  UNL     1      22.175   0.387  52.273  1.00  0.00    -0.355 OA
HETATM   25  C17 UNL     1      22.619  -0.618  53.082  1.00  0.00     0.206 C 
ENDBRANCH  22  24
ENDBRANCH   8  10
TORSDOF 2
ENDMDL
MODEL 8
REMARK VINA RESULT:      -7.2      3.353      6.262
REMARK  2 active torsions:
REMARK  status: ('A' for Active; 'I' for Inactive)
REMARK    1  A    between atoms: C8_8  and  C9_9 
REMARK    2  A    between atoms: C16_19  and  O2_20 
ROOT
HETATM    1  C1  UNL     1      25.172  -0.966  55.267  1.00  0.00     0.018 C 
HETATM    2  C2  UNL     1      25.354  -0.256  54.309  1.00  0.00    -0.078 C 
HETATM    3  C3  UNL     1      25.568   0.620  53.168  1.00  0.00     0.017 A 
HETATM    4  C4  UNL     1      26.719   0.579  52.409  1.00  0.00     0.021 A 
HETATM    5  C5  UNL     1      26.866   1.447  51.331  1.00  0.00     0.009 A 
HETATM    6  C6  UNL     1      25.873   2.349  51.017  1.00  0.00    -0.049 A 
HETATM    7  C7  UNL     1      25.924   3.301  49.877  1.00  0.00     0.049 C 
HETATM    8  C8  UNL     1      24.696   2.448  51.733  1.00  0.00     0.001 A 
HETATM    9  C20 UNL     1      24.596   1.543  52.815  1.00  0.00     0.034 A 
ENDROOT
BRANCH   8  10
HETATM   10  C9  UNL     1      23.594   3.350  51.637  1.00  0.00     0.081 A 
HETATM   11  N1  UNL     1      23.833   4.597  52.088  1.00  0.00    -0.240 NA
HETATM   12  C10 UNL     1      22.837   5.527  52.075  1.00  0.00     0.234 A 
HETATM   13  N2  UNL     1      21.578   5.237  51.611  1.00  0.00    -0.241 NA
HETATM   14  C11 UNL     1      21.397   4.003  51.179  1.00  0.00     0.072 A 
HETATM   15  C12 UNL     1      22.387   2.973  51.157  1.00  0.00     0.025 A 
HETATM   16  C18 UNL     1      20.117   3.789  50.766  1.00  0.00     0.076 C 
HETATM   17  C13 UNL     1      22.495   1.674  50.723  1.00  0.00     0.055 C 
HETATM   18  C14 UNL     1      21.145   1.043  50.466  1.00  0.00     0.091 C 
HETATM   19  C15 UNL     1      20.272   0.362  51.255  1.00  0.00     0.175 C 
HETATM   20  O3  UNL     1      20.513   1.109  49.137  1.00  0.00    -0.344 OA
HETATM   21  O1  UNL     1      19.581   1.555  51.545  1.00  0.00    -0.317 OA
HETATM   22  C16 UNL     1      19.217   2.548  50.595  1.00  0.00     0.212 C 
HETATM   23  C19 UNL     1      19.386   2.044  49.175  1.00  0.00     0.249 C 
BRANCH  22  24
HETATM   24  O2  UNL     1      17.932   3.025  50.767  1.00  0.00    -0.355 OA
HETATM   25  C17 UNL     1      17.732   4.344  50.480  1.00  0.00     0.206 C 
ENDBRANCH  22  24
ENDBRANCH   8  10
TORSDOF 2
ENDMDL
MODEL 9
REMARK VINA RESULT:      -7.1      3.777      5.650
REMARK  2 active torsions:
REMARK  status: ('A' for Active; 'I' for Inactive)
REMARK    1  A    between atoms: C8_8  and  C9_9 
REMARK    2  A    between atoms: C16_19  and  O2_20 
ROOT
HETATM    1  C1  UNL     1      26.325   8.654  47.124  1.00  0.00     0.018 C 
HETATM    2  C2  UNL     1      26.337   7.611  47.728  1.00  0.00    -0.078 C 
HETATM    3  C3  UNL     1      26.329   6.346  48.448  1.00  0.00     0.017 A 
HETATM    4  C4  UNL     1      27.395   5.472  48.418  1.00  0.00     0.021 A 
HETATM    5  C5  UNL     1      27.325   4.274  49.124  1.00  0.00     0.009 A 
HETATM    6  C6  UNL     1      26.200   3.954  49.852  1.00  0.00    -0.049 A 
HETATM    7  C7  UNL     1      26.035   2.715  50.655  1.00  0.00     0.049 C 
HETATM    8  C8  UNL     1      25.096   4.781  49.927  1.00  0.00     0.001 A 
HETATM    9  C20 UNL     1      25.218   5.983  49.194  1.00  0.00     0.034 A 
ENDROOT
BRANCH   8  10
HETATM   10  C9  UNL     1      23.817   4.610  50.538  1.00  0.00     0.081 A 
HETATM   11  N1  UNL     1      23.723   5.058  51.807  1.00  0.00    -0.240 NA
HETATM   12  C10 UNL     1      22.556   4.911  52.494  1.00  0.00     0.234 A 
HETATM   13  N2  UNL     1      21.453   4.316  51.935  1.00  0.00    -0.241 NA
HETATM   14  C11 UNL     1      21.596   3.897  50.692  1.00  0.00     0.072 A 
HETATM   15  C12 UNL     1      22.783   4.014  49.903  1.00  0.00     0.025 A 
HETATM   16  C18 UNL     1      20.470   3.291  50.223  1.00  0.00     0.076 C 
HETATM   17  C13 UNL     1      23.182   3.739  48.618  1.00  0.00     0.055 C 
HETATM   18  C14 UNL     1      22.234   2.793  47.915  1.00  0.00     0.091 C 
HETATM   19  C15 UNL     1      22.163   1.438  47.834  1.00  0.00     0.175 C 
HETATM   20  O3  UNL     1      21.098   3.299  47.125  1.00  0.00    -0.344 OA
HETATM   21  O1  UNL     1      21.275   1.406  48.927  1.00  0.00    -0.317 OA
HETATM   22  C16 UNL     1      20.161   2.269  49.109  1.00  0.00     0.212 C 
HETATM   23  C19 UNL     1      19.848   3.044  47.844  1.00  0.00     0.249 C 
BRANCH  22  24
HETATM   24  O2  UNL     1      19.025   1.615  49.545  1.00  0.00    -0.355 OA
HETATM   25  C17 UNL     1      18.321   2.222  50.544  1.00  0.00     0.206 C 
ENDBRANCH  22  24
ENDBRANCH   8  10
TORSDOF 2
ENDMDL
