MODEL 1
REMARK VINA RESULT:      -8.4      0.000      0.000
REMARK  7 active torsions:
REMARK  status: ('A' for Active; 'I' for Inactive)
REMARK    1  A    between atoms: C5_6  and  C6_7 
REMARK    2  A    between atoms: C6_7  and  O1_8 
REMARK    3  A    between atoms: O1_8  and  C7_9 
REMARK    4  A    between atoms: C10_12  and  N1_13 
REMARK    5  A    between atoms: N1_13  and  C11_14 
REMARK    6  A    between atoms: C11_14  and  N2_15 
REMARK    7  A    between atoms: C12_16  and  N3_17 
ROOT
HETATM    1  C7  UNL     1      25.256   2.776  51.788  1.00  0.00     0.091 A 
HETATM    2  C8  UNL     1      24.351   2.564  52.821  1.00  0.00     0.041 A 
HETATM    3  C9  UNL     1      23.168   3.271  52.804  1.00  0.00     0.032 A 
HETATM    4  C10 UNL     1      22.828   4.165  51.835  1.00  0.00     0.031 A 
HETATM    5  C20 UNL     1      23.723   4.375  50.811  1.00  0.00     0.056 A 
HETATM    6  C21 UNL     1      24.920   3.687  50.793  1.00  0.00     0.069 A 
HETATM    7 CL1  UNL     1      25.951   4.072  49.413  1.00  0.00    -0.081 Cl
ENDROOT
BRANCH   4   8
HETATM    8  N1  UNL     1      21.591   4.863  51.872  1.00  0.00    -0.372 N 
HETATM    9  H8  UNL     1      21.471   5.663  52.534  1.00  0.00     0.161 HD
BRANCH   8  10
HETATM   10  C11 UNL     1      20.512   4.453  50.992  1.00  0.00     0.272 C 
BRANCH  10  11
HETATM   11  N2  UNL     1      19.374   3.927  51.689  1.00  0.00    -0.263 NA
HETATM   12  C12 UNL     1      19.165   2.644  51.834  1.00  0.00     0.228 C 
BRANCH  12  13
HETATM   13  N3  UNL     1      20.239   1.961  51.193  1.00  0.00    -0.246 NA
HETATM   14  C13 UNL     1      20.798   0.923  51.712  1.00  0.00     0.045 C 
HETATM   15  C14 UNL     1      21.860  -0.034  51.426  1.00  0.00     0.035 C 
HETATM   16  C19 UNL     1      20.595   0.181  52.922  1.00  0.00     0.074 C 
HETATM   17  C15 UNL     1      21.824  -0.659  52.591  1.00  0.00    -0.046 C 
HETATM   18  C16 UNL     1      21.886  -1.441  53.853  1.00  0.00     0.004 C 
HETATM   19  C17 UNL     1      21.450  -0.650  54.865  1.00  0.00    -0.025 C 
HETATM   20  C18 UNL     1      21.085   0.703  54.255  1.00  0.00     0.043 C 
ENDBRANCH  12  13
ENDBRANCH  10  11
ENDBRANCH   8  10
ENDBRANCH   4   8
BRANCH   1  21
HETATM   21  O1  UNL     1      26.491   2.205  51.574  1.00  0.00    -0.345 OA
BRANCH  21  22
HETATM   22  C6  UNL     1      27.397   2.132  52.657  1.00  0.00     0.214 C 
BRANCH  22  23
HETATM   23  C5  UNL     1      27.862   0.729  52.863  1.00  0.00    -0.031 A 
HETATM   24  C4  UNL     1      29.121   0.619  53.455  1.00  0.00     0.009 A 
HETATM   25  C3  UNL     1      29.720  -0.587  53.724  1.00  0.00     0.004 A 
HETATM   26  C2  UNL     1      29.035  -1.735  53.389  1.00  0.00     0.042 A 
HETATM   27  C1  UNL     1      27.802  -1.635  52.810  1.00  0.00     0.117 A 
HETATM   28  F1  UNL     1      27.120  -2.754  52.476  1.00  0.00    -0.206 F 
HETATM   29  C22 UNL     1      27.195  -0.430  52.536  1.00  0.00     0.051 A 
ENDBRANCH  22  23
ENDBRANCH  21  22
ENDBRANCH   1  21
TORSDOF 7
ENDMDL
MODEL 2
REMARK VINA RESULT:      -8.4      2.762      5.398
REMARK  7 active torsions:
REMARK  status: ('A' for Active; 'I' for Inactive)
REMARK    1  A    between atoms: C5_6  and  C6_7 
REMARK    2  A    between atoms: C6_7  and  O1_8 
REMARK    3  A    between atoms: O1_8  and  C7_9 
REMARK    4  A    between atoms: C10_12  and  N1_13 
REMARK    5  A    between atoms: N1_13  and  C11_14 
REMARK    6  A    between atoms: C11_14  and  N2_15 
REMARK    7  A    between atoms: C12_16  and  N3_17 
ROOT
HETATM    1  C7  UNL     1      24.191   0.791  53.303  1.00  0.00     0.091 A 
HETATM    2  C8  UNL     1      24.617   2.096  53.084  1.00  0.00     0.041 A 
HETATM    3  C9  UNL     1      23.685   3.022  52.666  1.00  0.00     0.032 A 
HETATM    4  C10 UNL     1      22.370   2.739  52.455  1.00  0.00     0.031 A 
HETATM    5  C20 UNL     1      21.947   1.447  52.671  1.00  0.00     0.056 A 
HETATM    6  C21 UNL     1      22.851   0.490  53.089  1.00  0.00     0.069 A 
HETATM    7 CL1  UNL     1      22.147  -1.112  53.319  1.00  0.00    -0.081 Cl
ENDROOT
BRANCH   4   8
HETATM    8  N1  UNL     1      21.457   3.739  52.024  1.00  0.00    -0.372 N 
HETATM    9  H8  UNL     1      20.728   4.089  52.688  1.00  0.00     0.161 HD
BRANCH   8  10
HETATM   10  C11 UNL     1      21.548   4.257  50.672  1.00  0.00     0.272 C 
BRANCH  10  11
HETATM   11  N2  UNL     1      22.023   5.608  50.609  1.00  0.00    -0.263 NA
HETATM   12  C12 UNL     1      23.244   5.913  50.249  1.00  0.00     0.228 C 
BRANCH  12  13
HETATM   13  N3  UNL     1      23.922   4.693  49.964  1.00  0.00    -0.246 NA
HETATM   14  C13 UNL     1      25.165   4.661  49.629  1.00  0.00     0.045 C 
HETATM   15  C14 UNL     1      26.202   3.701  49.270  1.00  0.00     0.035 C 
HETATM   16  C19 UNL     1      26.174   5.664  49.444  1.00  0.00     0.074 C 
HETATM   17  C15 UNL     1      27.125   4.586  48.935  1.00  0.00    -0.046 C 
HETATM   18  C16 UNL     1      28.246   5.474  48.530  1.00  0.00     0.004 C 
HETATM   19  C17 UNL     1      27.721   6.645  48.087  1.00  0.00    -0.025 C 
HETATM   20  C18 UNL     1      26.201   6.531  48.204  1.00  0.00     0.043 C 
ENDBRANCH  12  13
ENDBRANCH  10  11
ENDBRANCH   8  10
ENDBRANCH   4   8
BRANCH   1  21
HETATM   21  O1  UNL     1      24.911  -0.308  53.716  1.00  0.00    -0.345 OA
BRANCH  21  22
HETATM   22  C6  UNL     1      25.798  -0.917  52.798  1.00  0.00     0.214 C 
BRANCH  22  23
HETATM   23  C5  UNL     1      27.217  -0.661  53.186  1.00  0.00    -0.031 A 
HETATM   24  C4  UNL     1      28.072  -1.745  52.993  1.00  0.00     0.009 A 
HETATM   25  C3  UNL     1      29.412  -1.706  53.290  1.00  0.00     0.004 A 
HETATM   26  C2  UNL     1      29.923  -0.533  53.802  1.00  0.00     0.042 A 
HETATM   27  C1  UNL     1      29.091   0.534  53.994  1.00  0.00     0.117 A 
HETATM   28  F1  UNL     1      29.580   1.691  54.496  1.00  0.00    -0.206 F 
HETATM   29  C22 UNL     1      27.747   0.502  53.698  1.00  0.00     0.051 A 
ENDBRANCH  22  23
ENDBRANCH  21  22
ENDBRANCH   1  21
TORSDOF 7
ENDMDL
MODEL 3
REMARK VINA RESULT:      -8.3      3.469      5.934
REMARK  7 active torsions:
REMARK  status: ('A' for Active; 'I' for Inactive)
REMARK    1  A    between atoms: C5_6  and  C6_7 
REMARK    2  A    between atoms: C6_7  and  O1_8 
REMARK    3  A    between atoms: O1_8  and  C7_9 
REMARK    4  A    between atoms: C10_12  and  N1_13 
REMARK    5  A    between atoms: N1_13  and  C11_14 
REMARK    6  A    between atoms: C11_14  and  N2_15 
REMARK    7  A    between atoms: C12_16  and  N3_17 
ROOT
HETATM    1  C7  UNL     1      24.980   3.525  51.185  1.00  0.00     0.091 A 
HETATM    2  C8  UNL     1      26.122   2.746  51.044  1.00  0.00     0.041 A 
HETATM    3  C9  UNL     1      26.609   2.097  52.159  1.00  0.00     0.032 A 
HETATM    4  C10 UNL     1      26.039   2.172  53.393  1.00  0.00     0.031 A 
HETATM    5  C20 UNL     1      24.907   2.943  53.534  1.00  0.00     0.056 A 
HETATM    6  C21 UNL     1      24.389   3.609  52.441  1.00  0.00     0.069 A 
HETATM    7 CL1  UNL     1      22.939   4.551  52.793  1.00  0.00    -0.081 Cl
ENDROOT
BRANCH   4   8
HETATM    8  N1  UNL     1      26.588   1.479  54.506  1.00  0.00    -0.372 N 
HETATM    9  H8  UNL     1      26.873   2.015  55.356  1.00  0.00     0.161 HD
BRANCH   8  10
HETATM   10  C11 UNL     1      26.745   0.037  54.444  1.00  0.00     0.272 C 
BRANCH  10  11
HETATM   11  N2  UNL     1      25.865  -0.672  55.327  1.00  0.00    -0.263 NA
HETATM   12  C12 UNL     1      24.659  -1.040  54.979  1.00  0.00     0.228 C 
BRANCH  12  13
HETATM   13  N3  UNL     1      24.451  -0.607  53.637  1.00  0.00    -0.246 NA
HETATM   14  C13 UNL     1      23.298  -0.220  53.213  1.00  0.00     0.045 C 
HETATM   15  C14 UNL     1      22.663   0.276  51.998  1.00  0.00     0.035 C 
HETATM   16  C19 UNL     1      22.003  -0.096  53.817  1.00  0.00     0.074 C 
HETATM   17  C15 UNL     1      21.423   0.263  52.453  1.00  0.00    -0.046 C 
HETATM   18  C16 UNL     1      19.988   0.295  52.841  1.00  0.00     0.004 C 
HETATM   19  C17 UNL     1      19.789  -0.638  53.807  1.00  0.00    -0.025 C 
HETATM   20  C18 UNL     1      21.136  -1.310  54.070  1.00  0.00     0.043 C 
ENDBRANCH  12  13
ENDBRANCH  10  11
ENDBRANCH   8  10
ENDBRANCH   4   8
BRANCH   1  21
HETATM   21  O1  UNL     1      24.301   4.265  50.242  1.00  0.00    -0.345 OA
BRANCH  21  22
HETATM   22  C6  UNL     1      23.873   3.620  49.059  1.00  0.00     0.214 C 
BRANCH  22  23
HETATM   23  C5  UNL     1      22.514   3.030  49.240  1.00  0.00    -0.031 A 
HETATM   24  C4  UNL     1      22.340   1.785  48.635  1.00  0.00     0.009 A 
HETATM   25  C3  UNL     1      21.161   1.083  48.689  1.00  0.00     0.004 A 
HETATM   26  C2  UNL     1      20.108   1.647  49.377  1.00  0.00     0.042 A 
HETATM   27  C1  UNL     1      20.272   2.866  49.972  1.00  0.00     0.117 A 
HETATM   28  F1  UNL     1      19.246   3.430  50.650  1.00  0.00    -0.206 F 
HETATM   29  C22 UNL     1      21.450   3.576  49.922  1.00  0.00     0.051 A 
ENDBRANCH  22  23
ENDBRANCH  21  22
ENDBRANCH   1  21
TORSDOF 7
ENDMDL
MODEL 4
REMARK VINA RESULT:      -8.3      3.564      6.076
REMARK  7 active torsions:
REMARK  status: ('A' for Active; 'I' for Inactive)
REMARK    1  A    between atoms: C5_6  and  C6_7 
REMARK    2  A    between atoms: C6_7  and  O1_8 
REMARK    3  A    between atoms: O1_8  and  C7_9 
REMARK    4  A    between atoms: C10_12  and  N1_13 
REMARK    5  A    between atoms: N1_13  and  C11_14 
REMARK    6  A    between atoms: C11_14  and  N2_15 
REMARK    7  A    between atoms: C12_16  and  N3_17 
ROOT
HETATM    1  C7  UNL     1      24.271   3.266  50.477  1.00  0.00     0.091 A 
HETATM    2  C8  UNL     1      24.456   3.301  51.854  1.00  0.00     0.041 A 
HETATM    3  C9  UNL     1      23.574   2.598  52.646  1.00  0.00     0.032 A 
HETATM    4  C10 UNL     1      22.531   1.868  52.163  1.00  0.00     0.031 A 
HETATM    5  C20 UNL     1      22.347   1.832  50.799  1.00  0.00     0.056 A 
HETATM    6  C21 UNL     1      23.209   2.525  49.972  1.00  0.00     0.069 A 
HETATM    7 CL1  UNL     1      22.833   2.375  48.254  1.00  0.00    -0.081 Cl
ENDROOT
BRANCH   4   8
HETATM    8  N1  UNL     1      21.655   1.162  53.032  1.00  0.00    -0.372 N 
HETATM    9  H8  UNL     1      20.923   1.687  53.561  1.00  0.00     0.161 HD
BRANCH   8  10
HETATM   10  C11 UNL     1      21.792  -0.276  53.171  1.00  0.00     0.272 C 
BRANCH  10  11
HETATM   11  N2  UNL     1      22.397  -0.675  54.409  1.00  0.00    -0.263 NA
HETATM   12  C12 UNL     1      23.679  -0.906  54.528  1.00  0.00     0.228 C 
BRANCH  12  13
HETATM   13  N3  UNL     1      24.273  -0.685  53.252  1.00  0.00    -0.246 NA
HETATM   14  C13 UNL     1      25.549  -0.613  53.092  1.00  0.00     0.045 C 
HETATM   15  C14 UNL     1      26.533  -0.413  52.036  1.00  0.00     0.035 C 
HETATM   16  C19 UNL     1      26.671  -0.709  53.980  1.00  0.00     0.074 C 
HETATM   17  C15 UNL     1      27.593  -0.336  52.823  1.00  0.00    -0.046 C 
HETATM   18  C16 UNL     1      28.859  -0.232  53.593  1.00  0.00     0.004 C 
HETATM   19  C17 UNL     1      28.565   0.231  54.835  1.00  0.00    -0.025 C 
HETATM   20  C18 UNL     1      27.051   0.438  54.891  1.00  0.00     0.043 C 
ENDBRANCH  12  13
ENDBRANCH  10  11
ENDBRANCH   8  10
ENDBRANCH   4   8
BRANCH   1  21
HETATM   21  O1  UNL     1      25.001   3.874  49.479  1.00  0.00    -0.345 OA
BRANCH  21  22
HETATM   22  C6  UNL     1      26.410   3.759  49.508  1.00  0.00     0.214 C 
BRANCH  22  23
HETATM   23  C5  UNL     1      27.050   4.948  48.873  1.00  0.00    -0.031 A 
HETATM   24  C4  UNL     1      26.197   6.038  48.696  1.00  0.00     0.009 A 
HETATM   25  C3  UNL     1      26.600   7.221  48.128  1.00  0.00     0.004 A 
HETATM   26  C2  UNL     1      27.912   7.325  47.719  1.00  0.00     0.042 A 
HETATM   27  C1  UNL     1      28.753   6.262  47.890  1.00  0.00     0.117 A 
HETATM   28  F1  UNL     1      30.043   6.351  47.492  1.00  0.00    -0.206 F 
HETATM   29  C22 UNL     1      28.357   5.072  48.457  1.00  0.00     0.051 A 
ENDBRANCH  22  23
ENDBRANCH  21  22
ENDBRANCH   1  21
TORSDOF 7
ENDMDL
MODEL 5
REMARK VINA RESULT:      -8.2      3.088      5.523
REMARK  7 active torsions:
REMARK  status: ('A' for Active; 'I' for Inactive)
REMARK    1  A    between atoms: C5_6  and  C6_7 
REMARK    2  A    between atoms: C6_7  and  O1_8 
REMARK    3  A    between atoms: O1_8  and  C7_9 
REMARK    4  A    between atoms: C10_12  and  N1_13 
REMARK    5  A    between atoms: N1_13  and  C11_14 
REMARK    6  A    between atoms: C11_14  and  N2_15 
REMARK    7  A    between atoms: C12_16  and  N3_17 
ROOT
HETATM    1  C7  UNL     1      21.712   3.312  50.209  1.00  0.00     0.091 A 
HETATM    2  C8  UNL     1      21.143   3.434  51.472  1.00  0.00     0.041 A 
HETATM    3  C9  UNL     1      20.569   2.316  52.037  1.00  0.00     0.032 A 
HETATM    4  C10 UNL     1      20.524   1.096  51.436  1.00  0.00     0.031 A 
HETATM    5  C20 UNL     1      21.087   0.973  50.185  1.00  0.00     0.056 A 
HETATM    6  C21 UNL     1      21.671   2.071  49.585  1.00  0.00     0.069 A 
HETATM    7 CL1  UNL     1      22.344   1.743  47.986  1.00  0.00    -0.081 Cl
ENDROOT
BRANCH   4   8
HETATM    8  N1  UNL     1      19.918  -0.022  52.071  1.00  0.00    -0.372 N 
HETATM    9  H8  UNL     1      19.401  -0.724  51.494  1.00  0.00     0.161 HD
BRANCH   8  10
HETATM   10  C11 UNL     1      20.024  -0.170  53.511  1.00  0.00     0.272 C 
BRANCH  10  11
HETATM   11  N2  UNL     1      20.829  -1.287  53.912  1.00  0.00    -0.263 NA
HETATM   12  C12 UNL     1      22.104  -1.177  54.185  1.00  0.00     0.228 C 
BRANCH  12  13
HETATM   13  N3  UNL     1      22.464   0.190  54.003  1.00  0.00    -0.246 NA
HETATM   14  C13 UNL     1      23.532   0.540  53.374  1.00  0.00     0.045 C 
HETATM   15  C14 UNL     1      24.249   1.744  52.974  1.00  0.00     0.035 C 
HETATM   16  C19 UNL     1      24.589  -0.181  52.725  1.00  0.00     0.074 C 
HETATM   17  C15 UNL     1      25.323   1.137  52.501  1.00  0.00    -0.046 C 
HETATM   18  C16 UNL     1      26.581   0.579  51.940  1.00  0.00     0.004 C 
HETATM   19  C17 UNL     1      26.818  -0.618  52.535  1.00  0.00    -0.025 C 
HETATM   20  C18 UNL     1      25.679  -0.863  53.524  1.00  0.00     0.043 C 
ENDBRANCH  12  13
ENDBRANCH  10  11
ENDBRANCH   8  10
ENDBRANCH   4   8
BRANCH   1  21
HETATM   21  O1  UNL     1      22.339   4.263  49.435  1.00  0.00    -0.345 OA
BRANCH  21  22
HETATM   22  C6  UNL     1      23.187   5.199  50.071  1.00  0.00     0.214 C 
BRANCH  22  23
HETATM   23  C5  UNL     1      24.601   5.018  49.628  1.00  0.00    -0.031 A 
HETATM   24  C4  UNL     1      25.138   3.762  49.911  1.00  0.00     0.009 A 
HETATM   25  C3  UNL     1      26.423   3.404  49.583  1.00  0.00     0.004 A 
HETATM   26  C2  UNL     1      27.207   4.340  48.944  1.00  0.00     0.042 A 
HETATM   27  C1  UNL     1      26.687   5.572  48.663  1.00  0.00     0.117 A 
HETATM   28  F1  UNL     1      27.447   6.499  48.035  1.00  0.00    -0.206 F 
HETATM   29  C22 UNL     1      25.401   5.938  48.988  1.00  0.00     0.051 A 
ENDBRANCH  22  23
ENDBRANCH  21  22
ENDBRANCH   1  21
TORSDOF 7
ENDMDL
MODEL 6
REMARK VINA RESULT:      -8.2      1.610      2.201
REMARK  7 active torsions:
REMARK  status: ('A' for Active; 'I' for Inactive)
REMARK    1  A    between atoms: C5_6  and  C6_7 
REMARK    2  A    between atoms: C6_7  and  O1_8 
REMARK    3  A    between atoms: O1_8  and  C7_9 
REMARK    4  A    between atoms: C10_12  and  N1_13 
REMARK    5  A    between atoms: N1_13  and  C11_14 
REMARK    6  A    between atoms: C11_14  and  N2_15 
REMARK    7  A    between atoms: C12_16  and  N3_17 
ROOT
HETATM    1  C7  UNL     1      25.239   2.743  51.772  1.00  0.00     0.091 A 
HETATM    2  C8  UNL     1      24.292   3.038  52.746  1.00  0.00     0.041 A 
HETATM    3  C9  UNL     1      23.577   4.210  52.623  1.00  0.00     0.032 A 
HETATM    4  C10 UNL     1      23.739   5.099  51.604  1.00  0.00     0.031 A 
HETATM    5  C20 UNL     1      24.678   4.807  50.639  1.00  0.00     0.056 A 
HETATM    6  C21 UNL     1      25.415   3.643  50.728  1.00  0.00     0.069 A 
HETATM    7 CL1  UNL     1      26.571   3.422  49.413  1.00  0.00    -0.081 Cl
ENDROOT
BRANCH   4   8
HETATM    8  N1  UNL     1      22.970   6.291  51.531  1.00  0.00    -0.372 N 
HETATM    9  H8  UNL     1      22.913   6.918  52.366  1.00  0.00     0.161 HD
BRANCH   8  10
HETATM   10  C11 UNL     1      22.275   6.620  50.301  1.00  0.00     0.272 C 
BRANCH  10  11
HETATM   11  N2  UNL     1      20.863   6.377  50.359  1.00  0.00    -0.263 NA
HETATM   12  C12 UNL     1      20.314   5.282  49.902  1.00  0.00     0.228 C 
BRANCH  12  13
HETATM   13  N3  UNL     1      21.359   4.465  49.380  1.00  0.00    -0.246 NA
HETATM   14  C13 UNL     1      21.451   3.211  49.655  1.00  0.00     0.045 C 
HETATM   15  C14 UNL     1      22.299   2.062  49.362  1.00  0.00     0.035 C 
HETATM   16  C19 UNL     1      20.675   2.305  50.451  1.00  0.00     0.074 C 
HETATM   17  C15 UNL     1      21.719   1.221  50.200  1.00  0.00    -0.046 C 
HETATM   18  C16 UNL     1      21.157   0.181  51.100  1.00  0.00     0.004 C 
HETATM   19  C17 UNL     1      20.586   0.802  52.164  1.00  0.00    -0.025 C 
HETATM   20  C18 UNL     1      20.774   2.306  51.962  1.00  0.00     0.043 C 
ENDBRANCH  12  13
ENDBRANCH  10  11
ENDBRANCH   8  10
ENDBRANCH   4   8
BRANCH   1  21
HETATM   21  O1  UNL     1      26.075   1.653  51.665  1.00  0.00    -0.345 OA
BRANCH  21  22
HETATM   22  C6  UNL     1      25.925   0.594  52.589  1.00  0.00     0.214 C 
BRANCH  22  23
HETATM   23  C5  UNL     1      27.253   0.013  52.947  1.00  0.00    -0.031 A 
HETATM   24  C4  UNL     1      28.212   0.953  53.325  1.00  0.00     0.009 A 
HETATM   25  C3  UNL     1      29.492   0.614  53.688  1.00  0.00     0.004 A 
HETATM   26  C2  UNL     1      29.832  -0.721  53.674  1.00  0.00     0.042 A 
HETATM   27  C1  UNL     1      28.898  -1.648  53.304  1.00  0.00     0.117 A 
HETATM   28  F1  UNL     1      29.220  -2.962  53.287  1.00  0.00    -0.206 F 
HETATM   29  C22 UNL     1      27.613  -1.316  52.939  1.00  0.00     0.051 A 
ENDBRANCH  22  23
ENDBRANCH  21  22
ENDBRANCH   1  21
TORSDOF 7
ENDMDL
MODEL 7
REMARK VINA RESULT:      -8.1      2.108      4.429
REMARK  7 active torsions:
REMARK  status: ('A' for Active; 'I' for Inactive)
REMARK    1  A    between atoms: C5_6  and  C6_7 
REMARK    2  A    between atoms: C6_7  and  O1_8 
REMARK    3  A    between atoms: O1_8  and  C7_9 
REMARK    4  A    between atoms: C10_12  and  N1_13 
REMARK    5  A    between atoms: N1_13  and  C11_14 
REMARK    6  A    between atoms: C11_14  and  N2_15 
REMARK    7  A    between atoms: C12_16  and  N3_17 
ROOT
HETATM    1  C7  UNL     1      24.160   1.898  53.001  1.00  0.00     0.091 A 
HETATM    2  C8  UNL     1      24.161   3.282  52.873  1.00  0.00     0.041 A 
HETATM    3  C9  UNL     1      22.976   3.905  52.547  1.00  0.00     0.032 A 
HETATM    4  C10 UNL     1      21.800   3.249  52.342  1.00  0.00     0.031 A 
HETATM    5  C20 UNL     1      21.798   1.878  52.468  1.00  0.00     0.056 A 
HETATM    6  C21 UNL     1      22.966   1.216  52.793  1.00  0.00     0.069 A 
HETATM    7 CL1  UNL     1      22.790  -0.535  52.915  1.00  0.00    -0.081 Cl
ENDROOT
BRANCH   4   8
HETATM    8  N1  UNL     1      20.609   3.949  52.009  1.00  0.00    -0.372 N 
HETATM    9  H8  UNL     1      19.741   3.780  52.565  1.00  0.00     0.161 HD
BRANCH   8  10
HETATM   10  C11 UNL     1      20.616   4.885  50.901  1.00  0.00     0.272 C 
BRANCH  10  11
HETATM   11  N2  UNL     1      20.756   4.255  49.620  1.00  0.00    -0.263 NA
HETATM   12  C12 UNL     1      21.708   4.566  48.779  1.00  0.00     0.228 C 
BRANCH  12  13
HETATM   13  N3  UNL     1      22.498   5.585  49.385  1.00  0.00    -0.246 NA
HETATM   14  C13 UNL     1      23.785   5.533  49.408  1.00  0.00     0.045 C 
HETATM   15  C14 UNL     1      24.926   6.303  49.887  1.00  0.00     0.035 C 
HETATM   16  C19 UNL     1      24.754   4.595  48.920  1.00  0.00     0.074 C 
HETATM   17  C15 UNL     1      25.852   5.406  49.600  1.00  0.00    -0.046 C 
HETATM   18  C16 UNL     1      26.986   4.485  49.328  1.00  0.00     0.004 C 
HETATM   19  C17 UNL     1      26.515   3.212  49.348  1.00  0.00    -0.025 C 
HETATM   20  C18 UNL     1      25.017   3.291  49.641  1.00  0.00     0.043 C 
ENDBRANCH  12  13
ENDBRANCH  10  11
ENDBRANCH   8  10
ENDBRANCH   4   8
BRANCH   1  21
HETATM   21  O1  UNL     1      25.196   1.046  53.313  1.00  0.00    -0.345 OA
BRANCH  21  22
HETATM   22  C6  UNL     1      25.991   0.536  52.261  1.00  0.00     0.214 C 
BRANCH  22  23
HETATM   23  C5  UNL     1      27.287   0.011  52.784  1.00  0.00    -0.031 A 
HETATM   24  C4  UNL     1      28.152   0.990  53.271  1.00  0.00     0.009 A 
HETATM   25  C3  UNL     1      29.390   0.705  53.792  1.00  0.00     0.004 A 
HETATM   26  C2  UNL     1      29.783  -0.615  53.831  1.00  0.00     0.042 A 
HETATM   27  C1  UNL     1      28.940  -1.580  53.355  1.00  0.00     0.117 A 
HETATM   28  F1  UNL     1      29.315  -2.880  53.387  1.00  0.00    -0.206 F 
HETATM   29  C22 UNL     1      27.699  -1.302  52.831  1.00  0.00     0.051 A 
ENDBRANCH  22  23
ENDBRANCH  21  22
ENDBRANCH   1  21
TORSDOF 7
ENDMDL
MODEL 8
REMARK VINA RESULT:      -8.1      1.927      4.169
REMARK  7 active torsions:
REMARK  status: ('A' for Active; 'I' for Inactive)
REMARK    1  A    between atoms: C5_6  and  C6_7 
REMARK    2  A    between atoms: C6_7  and  O1_8 
REMARK    3  A    between atoms: O1_8  and  C7_9 
REMARK    4  A    between atoms: C10_12  and  N1_13 
REMARK    5  A    between atoms: N1_13  and  C11_14 
REMARK    6  A    between atoms: C11_14  and  N2_15 
REMARK    7  A    between atoms: C12_16  and  N3_17 
ROOT
HETATM    1  C7  UNL     1      23.840   0.001  53.385  1.00  0.00     0.091 A 
HETATM    2  C8  UNL     1      22.720  -0.687  53.836  1.00  0.00     0.041 A 
HETATM    3  C9  UNL     1      21.528  -0.498  53.169  1.00  0.00     0.032 A 
HETATM    4  C10 UNL     1      21.379   0.322  52.092  1.00  0.00     0.031 A 
HETATM    5  C20 UNL     1      22.488   1.005  51.645  1.00  0.00     0.056 A 
HETATM    6  C21 UNL     1      23.700   0.843  52.287  1.00  0.00     0.069 A 
HETATM    7 CL1  UNL     1      25.016   1.788  51.589  1.00  0.00    -0.081 Cl
ENDROOT
BRANCH   4   8
HETATM    8  N1  UNL     1      20.123   0.475  51.445  1.00  0.00    -0.372 N 
HETATM    9  H8  UNL     1      19.901  -0.112  50.609  1.00  0.00     0.161 HD
BRANCH   8  10
HETATM   10  C11 UNL     1      19.170   1.443  51.954  1.00  0.00     0.272 C 
BRANCH  10  11
HETATM   11  N2  UNL     1      18.784   2.428  50.986  1.00  0.00    -0.263 NA
HETATM   12  C12 UNL     1      19.275   3.641  50.976  1.00  0.00     0.228 C 
BRANCH  12  13
HETATM   13  N3  UNL     1      20.198   3.737  52.058  1.00  0.00    -0.246 NA
HETATM   14  C13 UNL     1      21.359   4.277  51.923  1.00  0.00     0.045 C 
HETATM   15  C14 UNL     1      22.551   4.574  52.707  1.00  0.00     0.035 C 
HETATM   16  C19 UNL     1      22.054   4.885  50.825  1.00  0.00     0.074 C 
HETATM   17  C15 UNL     1      23.297   5.000  51.702  1.00  0.00    -0.046 C 
HETATM   18  C16 UNL     1      24.236   5.501  50.665  1.00  0.00     0.004 C 
HETATM   19  C17 UNL     1      23.890   4.945  49.475  1.00  0.00    -0.025 C 
HETATM   20  C18 UNL     1      22.681   4.047  49.732  1.00  0.00     0.043 C 
ENDBRANCH  12  13
ENDBRANCH  10  11
ENDBRANCH   8  10
ENDBRANCH   4   8
BRANCH   1  21
HETATM   21  O1  UNL     1      25.129  -0.010  53.869  1.00  0.00    -0.345 OA
BRANCH  21  22
HETATM   22  C6  UNL     1      26.036  -0.963  53.350  1.00  0.00     0.214 C 
BRANCH  22  23
HETATM   23  C5  UNL     1      27.446  -0.520  53.558  1.00  0.00    -0.031 A 
HETATM   24  C4  UNL     1      28.405  -1.484  53.250  1.00  0.00     0.009 A 
HETATM   25  C3  UNL     1      29.755  -1.267  53.378  1.00  0.00     0.004 A 
HETATM   26  C2  UNL     1      30.167  -0.033  53.832  1.00  0.00     0.042 A 
HETATM   27  C1  UNL     1      29.233   0.917  54.136  1.00  0.00     0.117 A 
HETATM   28  F1  UNL     1      29.625   2.132  54.583  1.00  0.00    -0.206 F 
HETATM   29  C22 UNL     1      27.879   0.706  54.011  1.00  0.00     0.051 A 
ENDBRANCH  22  23
ENDBRANCH  21  22
ENDBRANCH   1  21
TORSDOF 7
ENDMDL
MODEL 9
REMARK VINA RESULT:      -8.0      2.705      5.486
REMARK  7 active torsions:
REMARK  status: ('A' for Active; 'I' for Inactive)
REMARK    1  A    between atoms: C5_6  and  C6_7 
REMARK    2  A    between atoms: C6_7  and  O1_8 
REMARK    3  A    between atoms: O1_8  and  C7_9 
REMARK    4  A    between atoms: C10_12  and  N1_13 
REMARK    5  A    between atoms: N1_13  and  C11_14 
REMARK    6  A    between atoms: C11_14  and  N2_15 
REMARK    7  A    between atoms: C12_16  and  N3_17 
ROOT
HETATM    1  C7  UNL     1      24.191   1.371  52.280  1.00  0.00     0.091 A 
HETATM    2  C8  UNL     1      22.925   1.754  52.708  1.00  0.00     0.041 A 
HETATM    3  C9  UNL     1      22.585   3.087  52.621  1.00  0.00     0.032 A 
HETATM    4  C10 UNL     1      23.412   4.055  52.140  1.00  0.00     0.031 A 
HETATM    5  C20 UNL     1      24.667   3.677  51.716  1.00  0.00     0.056 A 
HETATM    6  C21 UNL     1      25.046   2.351  51.788  1.00  0.00     0.069 A 
HETATM    7 CL1  UNL     1      26.682   2.038  51.206  1.00  0.00    -0.081 Cl
ENDROOT
BRANCH   4   8
HETATM    8  N1  UNL     1      23.003   5.414  52.074  1.00  0.00    -0.372 N 
HETATM    9  H8  UNL     1      23.413   6.107  52.740  1.00  0.00     0.161 HD
BRANCH   8  10
HETATM   10  C11 UNL     1      22.023   5.818  51.083  1.00  0.00     0.272 C 
BRANCH  10  11
HETATM   11  N2  UNL     1      22.171   5.147  49.825  1.00  0.00    -0.263 NA
HETATM   12  C12 UNL     1      23.028   5.532  48.914  1.00  0.00     0.228 C 
BRANCH  12  13
HETATM   13  N3  UNL     1      23.713   6.672  49.427  1.00  0.00    -0.246 NA
HETATM   14  C13 UNL     1      24.960   6.888  49.188  1.00  0.00     0.045 C 
HETATM   15  C14 UNL     1      26.003   7.862  49.487  1.00  0.00     0.035 C 
HETATM   16  C19 UNL     1      25.968   6.190  48.444  1.00  0.00     0.074 C 
HETATM   17  C15 UNL     1      27.004   7.187  48.951  1.00  0.00    -0.046 C 
HETATM   18  C16 UNL     1      28.214   6.532  48.387  1.00  0.00     0.004 C 
HETATM   19  C17 UNL     1      28.016   5.189  48.401  1.00  0.00    -0.025 C 
HETATM   20  C18 UNL     1      26.628   4.944  48.994  1.00  0.00     0.043 C 
ENDBRANCH  12  13
ENDBRANCH  10  11
ENDBRANCH   8  10
ENDBRANCH   4   8
BRANCH   1  21
HETATM   21  O1  UNL     1      24.770   0.122  52.263  1.00  0.00    -0.345 OA
BRANCH  21  22
HETATM   22  C6  UNL     1      25.139  -0.468  53.494  1.00  0.00     0.214 C 
BRANCH  22  23
HETATM   23  C5  UNL     1      26.618  -0.410  53.686  1.00  0.00    -0.031 A 
HETATM   24  C4  UNL     1      27.326  -1.413  53.023  1.00  0.00     0.009 A 
HETATM   25  C3  UNL     1      28.693  -1.527  53.079  1.00  0.00     0.004 A 
HETATM   26  C2  UNL     1      29.386  -0.601  53.828  1.00  0.00     0.042 A 
HETATM   27  C1  UNL     1      28.699   0.384  54.479  1.00  0.00     0.117 A 
HETATM   28  F1  UNL     1      29.368   1.300  55.217  1.00  0.00    -0.206 F 
HETATM   29  C22 UNL     1      27.329   0.506  54.429  1.00  0.00     0.051 A 
ENDBRANCH  22  23
ENDBRANCH  21  22
ENDBRANCH   1  21
TORSDOF 7
ENDMDL
