MODEL 1
REMARK VINA RESULT:      -9.3      0.000      0.000
REMARK  4 active torsions:
REMARK  status: ('A' for Active; 'I' for Inactive)
REMARK    1  A    between atoms: C3_5  and  N3_6 
REMARK    2  A    between atoms: C4_8  and  N5_9 
REMARK    3  A    between atoms: N5_9  and  C5_10 
REMARK    4  A    between atoms: C13_20  and  C14_21 
ROOT
HETATM    1  C1  UNL     1      23.842  -1.229  54.750  1.00  0.00     0.152 C 
HETATM    2  N1  UNL     1      24.286  -0.104  53.934  1.00  0.00    -0.357 N 
HETATM    3  C2  UNL     1      23.260   0.426  53.065  1.00  0.00     0.155 A 
HETATM    4  N2  UNL     1      22.026   0.225  52.740  1.00  0.00    -0.045 NA
HETATM    5  C3  UNL     1      21.417   1.056  51.780  1.00  0.00     0.719 A 
HETATM    6  N4  UNL     1      21.930   2.049  51.133  1.00  0.00    -0.075 NA
HETATM    7  C4  UNL     1      23.328   2.450  51.350  1.00  0.00     0.263 A 
HETATM    8  C11 UNL     1      23.903   1.552  52.354  1.00  0.00     0.031 A 
HETATM    9  C12 UNL     1      25.153   1.655  52.765  1.00  0.00     0.018 A 
HETATM   10  C13 UNL     1      25.511   0.639  53.778  1.00  0.00     0.139 A 
ENDROOT
BRANCH   7  11
HETATM   11  N5  UNL     1      23.982   2.377  50.070  1.00  0.00    -0.360 N 
HETATM   12  H7  UNL     1      23.867   1.563  49.454  1.00  0.00     0.162 HD
BRANCH  11  13
HETATM   13  C5  UNL     1      24.811   3.448  49.635  1.00  0.00     0.069 A 
HETATM   14  C6  UNL     1      24.320   4.671  49.229  1.00  0.00     0.034 A 
HETATM   15  C7  UNL     1      25.201   5.665  48.820  1.00  0.00     0.026 A 
HETATM   16  C8  UNL     1      26.566   5.501  48.794  1.00  0.00     0.037 A 
HETATM   17 CL1  UNL     1      27.607   6.805  48.264  1.00  0.00    -0.084 Cl
HETATM   18  C9  UNL     1      27.085   4.289  49.194  1.00  0.00     0.068 A 
HETATM   19  C10 UNL     1      26.190   3.319  49.596  1.00  0.00     0.144 A 
HETATM   20  F1  UNL     1      26.769   2.136  49.983  1.00  0.00    -0.204 F 
ENDBRANCH  11  13
ENDBRANCH   7  11
BRANCH   5  21
HETATM   21  N3  UNL     1      20.041   0.728  51.508  1.00  0.00    -0.231 N 
HETATM   22  H4  UNL     1      19.781  -0.286  51.322  1.00  0.00     0.174 HD
HETATM   23  H5  UNL     1      19.046   1.037  51.389  1.00  0.00     0.174 HD
ENDBRANCH   5  21
BRANCH  10  24
HETATM   24  C14 UNL     1      26.693  -0.146  53.422  1.00  0.00    -0.050 C 
HETATM   25  C15 UNL     1      26.668  -1.406  53.019  1.00  0.00     0.005 C 
HETATM   26  C16 UNL     1      27.673  -2.382  52.619  1.00  0.00     0.000 C 
HETATM   27  C17 UNL     1      28.969  -2.295  52.920  1.00  0.00    -0.000 C 
HETATM   28  C18 UNL     1      29.666  -1.244  53.693  1.00  0.00    -0.004 C 
HETATM   29  C19 UNL     1      29.132  -0.053  53.895  1.00  0.00    -0.022 C 
HETATM   30  C20 UNL     1      27.900   0.707  53.572  1.00  0.00     0.063 C 
ENDBRANCH  10  24
TORSDOF 4
ENDMDL
MODEL 2
REMARK VINA RESULT:      -8.8      2.769      6.793
REMARK  4 active torsions:
REMARK  status: ('A' for Active; 'I' for Inactive)
REMARK    1  A    between atoms: C3_5  and  N3_6 
REMARK    2  A    between atoms: C4_8  and  N5_9 
REMARK    3  A    between atoms: N5_9  and  C5_10 
REMARK    4  A    between atoms: C13_20  and  C14_21 
ROOT
HETATM    1  C1  UNL     1      22.835   5.681  48.950  1.00  0.00     0.152 C 
HETATM    2  N1  UNL     1      23.894   4.775  49.383  1.00  0.00    -0.357 N 
HETATM    3  C2  UNL     1      23.472   3.823  50.386  1.00  0.00     0.155 A 
HETATM    4  N2  UNL     1      22.428   3.494  51.072  1.00  0.00    -0.045 NA
HETATM    5  C3  UNL     1      22.508   2.428  51.988  1.00  0.00     0.719 A 
HETATM    6  N4  UNL     1      23.524   1.681  52.268  1.00  0.00    -0.075 NA
HETATM    7  C4  UNL     1      24.818   1.886  51.600  1.00  0.00     0.263 A 
HETATM    8  C11 UNL     1      24.670   3.003  50.665  1.00  0.00     0.031 A 
HETATM    9  C12 UNL     1      25.665   3.434  49.912  1.00  0.00     0.018 A 
HETATM   10  C13 UNL     1      25.281   4.573  49.050  1.00  0.00     0.139 A 
ENDROOT
BRANCH   7  11
HETATM   11  N5  UNL     1      25.785   2.128  52.639  1.00  0.00    -0.360 N 
HETATM   12  H7  UNL     1      25.766   2.989  53.198  1.00  0.00     0.162 HD
BRANCH  11  13
HETATM   13  C5  UNL     1      26.794   1.164  52.906  1.00  0.00     0.069 A 
HETATM   14  C6  UNL     1      26.662  -0.176  52.609  1.00  0.00     0.034 A 
HETATM   15  C7  UNL     1      27.699  -1.053  52.904  1.00  0.00     0.026 A 
HETATM   16  C8  UNL     1      28.881  -0.657  53.487  1.00  0.00     0.037 A 
HETATM   17 CL1  UNL     1      30.139  -1.826  53.825  1.00  0.00    -0.084 Cl
HETATM   18  C9  UNL     1      29.042   0.676  53.794  1.00  0.00     0.068 A 
HETATM   19  C10 UNL     1      27.997   1.526  53.492  1.00  0.00     0.144 A 
HETATM   20  F1  UNL     1      28.219   2.840  53.822  1.00  0.00    -0.204 F 
ENDBRANCH  11  13
ENDBRANCH   7  11
BRANCH   5  21
HETATM   21  N3  UNL     1      21.278   2.161  52.688  1.00  0.00    -0.231 N 
HETATM   22  H4  UNL     1      20.903   2.889  53.366  1.00  0.00     0.174 HD
HETATM   23  H5  UNL     1      20.469   1.522  52.880  1.00  0.00     0.174 HD
ENDBRANCH   5  21
BRANCH  10  24
HETATM   24  C14 UNL     1      26.151   5.739  49.206  1.00  0.00    -0.050 C 
HETATM   25  C15 UNL     1      25.804   6.863  49.809  1.00  0.00     0.005 C 
HETATM   26  C16 UNL     1      26.464   8.133  50.087  1.00  0.00     0.000 C 
HETATM   27  C17 UNL     1      27.541   8.578  49.442  1.00  0.00    -0.000 C 
HETATM   28  C18 UNL     1      28.290   7.929  48.343  1.00  0.00    -0.004 C 
HETATM   29  C19 UNL     1      28.183   6.638  48.090  1.00  0.00    -0.022 C 
HETATM   30  C20 UNL     1      27.472   5.438  48.597  1.00  0.00     0.063 C 
ENDBRANCH  10  24
TORSDOF 4
ENDMDL
MODEL 3
REMARK VINA RESULT:      -8.5      2.414      6.211
REMARK  4 active torsions:
REMARK  status: ('A' for Active; 'I' for Inactive)
REMARK    1  A    between atoms: C3_5  and  N3_6 
REMARK    2  A    between atoms: C4_8  and  N5_9 
REMARK    3  A    between atoms: N5_9  and  C5_10 
REMARK    4  A    between atoms: C13_20  and  C14_21 
ROOT
HETATM    1  C1  UNL     1      21.253   4.204  49.590  1.00  0.00     0.152 C 
HETATM    2  N1  UNL     1      22.363   3.389  50.074  1.00  0.00    -0.357 N 
HETATM    3  C2  UNL     1      21.977   2.410  51.066  1.00  0.00     0.155 A 
HETATM    4  N2  UNL     1      20.935   2.000  51.709  1.00  0.00    -0.045 NA
HETATM    5  C3  UNL     1      21.062   0.947  52.636  1.00  0.00     0.719 A 
HETATM    6  N4  UNL     1      22.122   0.287  52.964  1.00  0.00    -0.075 NA
HETATM    7  C4  UNL     1      23.423   0.594  52.350  1.00  0.00     0.263 A 
HETATM    8  C11 UNL     1      23.225   1.692  51.401  1.00  0.00     0.031 A 
HETATM    9  C12 UNL     1      24.213   2.200  50.688  1.00  0.00     0.018 A 
HETATM   10  C13 UNL     1      23.775   3.300  49.802  1.00  0.00     0.139 A 
ENDROOT
BRANCH   7  11
HETATM   11  N5  UNL     1      24.322   0.919  53.427  1.00  0.00    -0.360 N 
HETATM   12  H7  UNL     1      24.018   1.486  54.227  1.00  0.00     0.162 HD
BRANCH  11  13
HETATM   13  C5  UNL     1      25.664   0.451  53.395  1.00  0.00     0.069 A 
HETATM   14  C6  UNL     1      26.016  -0.821  52.996  1.00  0.00     0.034 A 
HETATM   15  C7  UNL     1      27.354  -1.197  52.994  1.00  0.00     0.026 A 
HETATM   16  C8  UNL     1      28.375  -0.359  53.375  1.00  0.00     0.037 A 
HETATM   17 CL1  UNL     1      30.035  -0.911  53.343  1.00  0.00    -0.084 Cl
HETATM   18  C9  UNL     1      28.054   0.919  53.778  1.00  0.00     0.068 A 
HETATM   19  C10 UNL     1      26.718   1.268  53.771  1.00  0.00     0.144 A 
HETATM   20  F1  UNL     1      26.464   2.552  54.183  1.00  0.00    -0.204 F 
ENDBRANCH  11  13
ENDBRANCH   7  11
BRANCH   5  21
HETATM   21  N3  UNL     1      19.829   0.583  53.284  1.00  0.00    -0.231 N 
HETATM   22  H4  UNL     1      19.773   0.628  54.345  1.00  0.00     0.174 HD
HETATM   23  H5  UNL     1      18.835   0.255  53.215  1.00  0.00     0.174 HD
ENDBRANCH   5  21
BRANCH  10  24
HETATM   24  C14 UNL     1      24.540   4.534  49.986  1.00  0.00    -0.050 C 
HETATM   25  C15 UNL     1      24.091   5.613  50.606  1.00  0.00     0.005 C 
HETATM   26  C16 UNL     1      24.637   6.929  50.912  1.00  0.00     0.000 C 
HETATM   27  C17 UNL     1      25.677   7.478  50.284  1.00  0.00    -0.000 C 
HETATM   28  C18 UNL     1      26.487   6.916  49.181  1.00  0.00    -0.004 C 
HETATM   29  C19 UNL     1      26.494   5.625  48.905  1.00  0.00    -0.022 C 
HETATM   30  C20 UNL     1      25.886   4.360  49.384  1.00  0.00     0.063 C 
ENDBRANCH  10  24
TORSDOF 4
ENDMDL
MODEL 4
REMARK VINA RESULT:      -8.4      2.835      6.242
REMARK  4 active torsions:
REMARK  status: ('A' for Active; 'I' for Inactive)
REMARK    1  A    between atoms: C3_5  and  N3_6 
REMARK    2  A    between atoms: C4_8  and  N5_9 
REMARK    3  A    between atoms: N5_9  and  C5_10 
REMARK    4  A    between atoms: C13_20  and  C14_21 
ROOT
HETATM    1  C1  UNL     1      21.556   1.233  48.865  1.00  0.00     0.152 C 
HETATM    2  N1  UNL     1      21.830   1.818  50.174  1.00  0.00    -0.357 N 
HETATM    3  C2  UNL     1      23.157   2.380  50.294  1.00  0.00     0.155 A 
HETATM    4  N2  UNL     1      24.238   2.539  49.606  1.00  0.00    -0.045 NA
HETATM    5  C3  UNL     1      25.342   3.192  50.190  1.00  0.00     0.719 A 
HETATM    6  N4  UNL     1      25.448   3.687  51.377  1.00  0.00    -0.075 NA
HETATM    7  C4  UNL     1      24.329   3.614  52.329  1.00  0.00     0.263 A 
HETATM    8  C11 UNL     1      23.218   2.927  51.666  1.00  0.00     0.031 A 
HETATM    9  C12 UNL     1      22.064   2.703  52.266  1.00  0.00     0.018 A 
HETATM   10  C13 UNL     1      21.097   1.992  51.402  1.00  0.00     0.139 A 
ENDROOT
BRANCH   7  11
HETATM   11  N5  UNL     1      24.821   2.922  53.492  1.00  0.00    -0.360 N 
HETATM   12  H7  UNL     1      24.648   3.277  54.440  1.00  0.00     0.162 HD
BRANCH  11  13
HETATM   13  C5  UNL     1      25.566   1.721  53.340  1.00  0.00     0.069 A 
HETATM   14  C6  UNL     1      24.994   0.509  53.015  1.00  0.00     0.034 A 
HETATM   15  C7  UNL     1      25.796  -0.619  52.885  1.00  0.00     0.026 A 
HETATM   16  C8  UNL     1      27.160  -0.601  53.063  1.00  0.00     0.037 A 
HETATM   17 CL1  UNL     1      28.099  -2.066  52.880  1.00  0.00    -0.084 Cl
HETATM   18  C9  UNL     1      27.759   0.597  53.387  1.00  0.00     0.068 A 
HETATM   19  C10 UNL     1      26.941   1.701  53.511  1.00  0.00     0.144 A 
HETATM   20  F1  UNL     1      27.598   2.862  53.836  1.00  0.00    -0.204 F 
ENDBRANCH  11  13
ENDBRANCH   7  11
BRANCH   5  21
HETATM   21  N3  UNL     1      26.484   3.305  49.320  1.00  0.00    -0.231 N 
HETATM   22  H4  UNL     1      27.443   3.468  49.749  1.00  0.00     0.174 HD
HETATM   23  H5  UNL     1      26.884   3.306  48.351  1.00  0.00     0.174 HD
ENDBRANCH   5  21
BRANCH  10  24
HETATM   24  C14 UNL     1      20.565   0.771  52.007  1.00  0.00    -0.050 C 
HETATM   25  C15 UNL     1      19.278   0.490  52.132  1.00  0.00     0.005 C 
HETATM   26  C16 UNL     1      18.513  -0.622  52.682  1.00  0.00     0.000 C 
HETATM   27  C17 UNL     1      18.997  -1.515  53.544  1.00  0.00    -0.000 C 
HETATM   28  C18 UNL     1      20.355  -1.593  54.125  1.00  0.00    -0.004 C 
HETATM   29  C19 UNL     1      21.385  -0.967  53.584  1.00  0.00    -0.022 C 
HETATM   30  C20 UNL     1      21.699  -0.089  52.431  1.00  0.00     0.063 C 
ENDBRANCH  10  24
TORSDOF 4
ENDMDL
MODEL 5
REMARK VINA RESULT:      -8.2      2.870      4.103
REMARK  4 active torsions:
REMARK  status: ('A' for Active; 'I' for Inactive)
REMARK    1  A    between atoms: C3_5  and  N3_6 
REMARK    2  A    between atoms: C4_8  and  N5_9 
REMARK    3  A    between atoms: N5_9  and  C5_10 
REMARK    4  A    between atoms: C13_20  and  C14_21 
ROOT
HETATM    1  C1  UNL     1      21.948  -1.291  55.034  1.00  0.00     0.152 C 
HETATM    2  N1  UNL     1      21.662  -0.277  54.024  1.00  0.00    -0.357 N 
HETATM    3  C2  UNL     1      20.353  -0.406  53.424  1.00  0.00     0.155 A 
HETATM    4  N2  UNL     1      19.304  -1.159  53.471  1.00  0.00    -0.045 NA
HETATM    5  C3  UNL     1      18.204  -0.868  52.641  1.00  0.00     0.719 A 
HETATM    6  N4  UNL     1      18.071   0.091  51.787  1.00  0.00    -0.075 NA
HETATM    7  C4  UNL     1      19.151   1.066  51.573  1.00  0.00     0.263 A 
HETATM    8  C11 UNL     1      20.261   0.711  52.460  1.00  0.00     0.031 A 
HETATM    9  C12 UNL     1      21.386   1.401  52.500  1.00  0.00     0.018 A 
HETATM   10  C13 UNL     1      22.361   0.854  53.468  1.00  0.00     0.139 A 
ENDROOT
BRANCH   7  11
HETATM   11  N5  UNL     1      19.491   1.006  50.175  1.00  0.00    -0.360 N 
HETATM   12  H7  UNL     1      19.179   0.230  49.580  1.00  0.00     0.162 HD
BRANCH  11  13
HETATM   13  C5  UNL     1      20.276   2.038  49.592  1.00  0.00     0.069 A 
HETATM   14  C6  UNL     1      20.025   3.381  49.780  1.00  0.00     0.034 A 
HETATM   15  C7  UNL     1      20.844   4.326  49.172  1.00  0.00     0.026 A 
HETATM   16  C8  UNL     1      21.915   3.997  48.375  1.00  0.00     0.037 A 
HETATM   17 CL1  UNL     1      22.897   5.249  47.647  1.00  0.00    -0.084 Cl
HETATM   18  C9  UNL     1      22.190   2.663  48.170  1.00  0.00     0.068 A 
HETATM   19  C10 UNL     1      21.362   1.745  48.784  1.00  0.00     0.144 A 
HETATM   20  F1  UNL     1      21.688   0.434  48.540  1.00  0.00    -0.204 F 
ENDBRANCH  11  13
ENDBRANCH   7  11
BRANCH   5  21
HETATM   21  N3  UNL     1      17.100  -1.780  52.790  1.00  0.00    -0.231 N 
HETATM   22  H4  UNL     1      16.569  -1.799  53.711  1.00  0.00     0.174 HD
HETATM   23  H5  UNL     1      16.485  -2.528  52.385  1.00  0.00     0.174 HD
ENDBRANCH   5  21
BRANCH  10  24
HETATM   24  C14 UNL     1      23.669   0.569  52.878  1.00  0.00    -0.050 C 
HETATM   25  C15 UNL     1      24.501  -0.365  53.306  1.00  0.00     0.005 C 
HETATM   26  C16 UNL     1      25.822  -0.834  52.905  1.00  0.00     0.000 C 
HETATM   27  C17 UNL     1      26.676  -0.132  52.161  1.00  0.00    -0.000 C 
HETATM   28  C18 UNL     1      26.503   1.223  51.592  1.00  0.00    -0.004 C 
HETATM   29  C19 UNL     1      25.314   1.781  51.462  1.00  0.00    -0.022 C 
HETATM   30  C20 UNL     1      23.885   1.481  51.725  1.00  0.00     0.063 C 
ENDBRANCH  10  24
TORSDOF 4
ENDMDL
MODEL 6
REMARK VINA RESULT:      -8.2      2.846      4.353
REMARK  4 active torsions:
REMARK  status: ('A' for Active; 'I' for Inactive)
REMARK    1  A    between atoms: C3_5  and  N3_6 
REMARK    2  A    between atoms: C4_8  and  N5_9 
REMARK    3  A    between atoms: N5_9  and  C5_10 
REMARK    4  A    between atoms: C13_20  and  C14_21 
ROOT
HETATM    1  C1  UNL     1      19.598   1.019  50.270  1.00  0.00     0.152 C 
HETATM    2  N1  UNL     1      20.626   1.894  50.825  1.00  0.00    -0.357 N 
HETATM    3  C2  UNL     1      21.295   2.707  49.834  1.00  0.00     0.155 A 
HETATM    4  N2  UNL     1      21.300   2.923  48.560  1.00  0.00    -0.045 NA
HETATM    5  C3  UNL     1      22.190   3.873  48.022  1.00  0.00     0.719 A 
HETATM    6  N4  UNL     1      23.054   4.608  48.640  1.00  0.00    -0.075 NA
HETATM    7  C4  UNL     1      23.214   4.519  50.099  1.00  0.00     0.263 A 
HETATM    8  C11 UNL     1      22.267   3.519  50.596  1.00  0.00     0.031 A 
HETATM    9  C12 UNL     1      22.170   3.208  51.875  1.00  0.00     0.018 A 
HETATM   10  C13 UNL     1      21.149   2.171  52.138  1.00  0.00     0.139 A 
ENDROOT
BRANCH   7  11
HETATM   11  N5  UNL     1      24.592   4.179  50.343  1.00  0.00    -0.360 N 
HETATM   12  H7  UNL     1      24.850   3.395  50.953  1.00  0.00     0.162 HD
BRANCH  11  13
HETATM   13  C5  UNL     1      25.627   4.938  49.733  1.00  0.00     0.069 A 
HETATM   14  C6  UNL     1      25.628   6.316  49.679  1.00  0.00     0.034 A 
HETATM   15  C7  UNL     1      26.682   6.980  49.062  1.00  0.00     0.026 A 
HETATM   16  C8  UNL     1      27.752   6.333  48.489  1.00  0.00     0.037 A 
HETATM   17 CL1  UNL     1      29.040   7.245  47.733  1.00  0.00    -0.084 Cl
HETATM   18  C9  UNL     1      27.779   4.956  48.529  1.00  0.00     0.068 A 
HETATM   19  C10 UNL     1      26.720   4.320  49.146  1.00  0.00     0.144 A 
HETATM   20  F1  UNL     1      26.806   2.950  49.153  1.00  0.00    -0.204 F 
ENDBRANCH  11  13
ENDBRANCH   7  11
BRANCH   5  21
HETATM   21  N3  UNL     1      22.096   4.022  46.593  1.00  0.00    -0.231 N 
HETATM   22  H4  UNL     1      22.990   4.138  46.028  1.00  0.00     0.174 HD
HETATM   23  H5  UNL     1      21.506   4.078  45.727  1.00  0.00     0.174 HD
ENDBRANCH   5  21
BRANCH  10  24
HETATM   24  C14 UNL     1      21.667   1.018  52.875  1.00  0.00    -0.050 C 
HETATM   25  C15 UNL     1      21.018   0.385  53.838  1.00  0.00     0.005 C 
HETATM   26  C16 UNL     1      21.306  -0.753  54.702  1.00  0.00     0.000 C 
HETATM   27  C17 UNL     1      22.528  -1.226  54.942  1.00  0.00    -0.000 C 
HETATM   28  C18 UNL     1      23.824  -0.737  54.419  1.00  0.00    -0.004 C 
HETATM   29  C19 UNL     1      23.901   0.037  53.353  1.00  0.00    -0.022 C 
HETATM   30  C20 UNL     1      23.015   0.679  52.351  1.00  0.00     0.063 C 
ENDBRANCH  10  24
TORSDOF 4
ENDMDL
MODEL 7
REMARK VINA RESULT:      -8.2      2.451      5.737
REMARK  4 active torsions:
REMARK  status: ('A' for Active; 'I' for Inactive)
REMARK    1  A    between atoms: C3_5  and  N3_6 
REMARK    2  A    between atoms: C4_8  and  N5_9 
REMARK    3  A    between atoms: N5_9  and  C5_10 
REMARK    4  A    between atoms: C13_20  and  C14_21 
ROOT
HETATM    1  C1  UNL     1      21.740  -1.618  53.784  1.00  0.00     0.152 C 
HETATM    2  N1  UNL     1      22.354  -0.590  52.950  1.00  0.00    -0.357 N 
HETATM    3  C2  UNL     1      23.684  -0.213  53.374  1.00  0.00     0.155 A 
HETATM    4  N2  UNL     1      24.551  -0.482  54.292  1.00  0.00    -0.045 NA
HETATM    5  C3  UNL     1      25.791   0.186  54.292  1.00  0.00     0.719 A 
HETATM    6  N4  UNL     1      26.223   1.081  53.468  1.00  0.00    -0.075 NA
HETATM    7  C4  UNL     1      25.392   1.536  52.343  1.00  0.00     0.263 A 
HETATM    8  C11 UNL     1      24.122   0.808  52.399  1.00  0.00     0.031 A 
HETATM    9  C12 UNL     1      23.157   0.998  51.519  1.00  0.00     0.018 A 
HETATM   10  C13 UNL     1      21.970   0.155  51.777  1.00  0.00     0.139 A 
ENDROOT
BRANCH   7  11
HETATM   11  N5  UNL     1      25.245   2.961  52.489  1.00  0.00    -0.360 N 
HETATM   12  H7  UNL     1      25.395   3.426  53.391  1.00  0.00     0.162 HD
BRANCH  11  13
HETATM   13  C5  UNL     1      24.885   3.754  51.365  1.00  0.00     0.069 A 
HETATM   14  C6  UNL     1      25.526   3.680  50.146  1.00  0.00     0.034 A 
HETATM   15  C7  UNL     1      25.109   4.492  49.098  1.00  0.00     0.026 A 
HETATM   16  C8  UNL     1      24.070   5.388  49.203  1.00  0.00     0.037 A 
HETATM   17 CL1  UNL     1      23.607   6.375  47.835  1.00  0.00    -0.084 Cl
HETATM   18  C9  UNL     1      23.411   5.484  50.409  1.00  0.00     0.068 A 
HETATM   19  C10 UNL     1      23.844   4.667  51.434  1.00  0.00     0.144 A 
HETATM   20  F1  UNL     1      23.148   4.809  52.608  1.00  0.00    -0.204 F 
ENDBRANCH  11  13
ENDBRANCH   7  11
BRANCH   5  21
HETATM   21  N3  UNL     1      26.668  -0.204  55.366  1.00  0.00    -0.231 N 
HETATM   22  H4  UNL     1      26.594   0.301  56.299  1.00  0.00     0.174 HD
HETATM   23  H5  UNL     1      27.439  -0.818  55.724  1.00  0.00     0.174 HD
ENDBRANCH   5  21
BRANCH  10  24
HETATM   24  C14 UNL     1      20.727   0.919  51.885  1.00  0.00    -0.050 C 
HETATM   25  C15 UNL     1      19.532   0.468  51.538  1.00  0.00     0.005 C 
HETATM   26  C16 UNL     1      18.181   1.013  51.546  1.00  0.00     0.000 C 
HETATM   27  C17 UNL     1      17.894   2.314  51.602  1.00  0.00    -0.000 C 
HETATM   28  C18 UNL     1      18.827   3.461  51.665  1.00  0.00    -0.004 C 
HETATM   29  C19 UNL     1      20.088   3.317  52.028  1.00  0.00    -0.022 C 
HETATM   30  C20 UNL     1      21.032   2.256  52.456  1.00  0.00     0.063 C 
ENDBRANCH  10  24
TORSDOF 4
ENDMDL
MODEL 8
REMARK VINA RESULT:      -8.2      2.410      3.878
REMARK  4 active torsions:
REMARK  status: ('A' for Active; 'I' for Inactive)
REMARK    1  A    between atoms: C3_5  and  N3_6 
REMARK    2  A    between atoms: C4_8  and  N5_9 
REMARK    3  A    between atoms: N5_9  and  C5_10 
REMARK    4  A    between atoms: C13_20  and  C14_21 
ROOT
HETATM    1  C1  UNL     1      22.289   1.371  50.328  1.00  0.00     0.152 C 
HETATM    2  N1  UNL     1      22.754   2.449  51.194  1.00  0.00    -0.357 N 
HETATM    3  C2  UNL     1      22.575   3.768  50.629  1.00  0.00     0.155 A 
HETATM    4  N2  UNL     1      22.132   4.343  49.561  1.00  0.00    -0.045 NA
HETATM    5  C3  UNL     1      22.166   5.748  49.465  1.00  0.00     0.719 A 
HETATM    6  N4  UNL     1      22.597   6.604  50.330  1.00  0.00    -0.075 NA
HETATM    7  C4  UNL     1      23.147   6.161  51.620  1.00  0.00     0.263 A 
HETATM    8  C11 UNL     1      23.085   4.699  51.658  1.00  0.00     0.031 A 
HETATM    9  C12 UNL     1      23.510   3.997  52.692  1.00  0.00     0.018 A 
HETATM   10  C13 UNL     1      23.349   2.539  52.503  1.00  0.00     0.139 A 
ENDROOT
BRANCH   7  11
HETATM   11  N5  UNL     1      24.487   6.683  51.698  1.00  0.00    -0.360 N 
HETATM   12  H7  UNL     1      24.967   6.797  52.599  1.00  0.00     0.162 HD
BRANCH  11  13
HETATM   13  C5  UNL     1      25.174   7.052  50.509  1.00  0.00     0.069 A 
HETATM   14  C6  UNL     1      25.208   8.341  50.021  1.00  0.00     0.034 A 
HETATM   15  C7  UNL     1      25.904   8.616  48.850  1.00  0.00     0.026 A 
HETATM   16  C8  UNL     1      26.578   7.658  48.129  1.00  0.00     0.037 A 
HETATM   17 CL1  UNL     1      27.431   8.087  46.662  1.00  0.00    -0.084 Cl
HETATM   18  C9  UNL     1      26.561   6.360  48.592  1.00  0.00     0.068 A 
HETATM   19  C10 UNL     1      25.863   6.114  49.757  1.00  0.00     0.144 A 
HETATM   20  F1  UNL     1      25.884   4.803  50.166  1.00  0.00    -0.204 F 
ENDBRANCH  11  13
ENDBRANCH   7  11
BRANCH   5  21
HETATM   21  N3  UNL     1      21.643   6.265  48.226  1.00  0.00    -0.231 N 
HETATM   22  H4  UNL     1      22.322   6.628  47.493  1.00  0.00     0.174 HD
HETATM   23  H5  UNL     1      20.819   6.486  47.617  1.00  0.00     0.174 HD
ENDBRANCH   5  21
BRANCH  10  24
HETATM   24  C14 UNL     1      24.591   1.788  52.693  1.00  0.00    -0.050 C 
HETATM   25  C15 UNL     1      25.788   2.202  52.311  1.00  0.00     0.005 C 
HETATM   26  C16 UNL     1      27.138   1.659  52.380  1.00  0.00     0.000 C 
HETATM   27  C17 UNL     1      27.423   0.370  52.566  1.00  0.00    -0.000 C 
HETATM   28  C18 UNL     1      26.488  -0.764  52.736  1.00  0.00    -0.004 C 
HETATM   29  C19 UNL     1      25.225  -0.585  53.076  1.00  0.00    -0.022 C 
HETATM   30  C20 UNL     1      24.280   0.515  53.391  1.00  0.00     0.063 C 
ENDBRANCH  10  24
TORSDOF 4
ENDMDL
MODEL 9
REMARK VINA RESULT:      -8.2      3.192      4.939
REMARK  4 active torsions:
REMARK  status: ('A' for Active; 'I' for Inactive)
REMARK    1  A    between atoms: C3_5  and  N3_6 
REMARK    2  A    between atoms: C4_8  and  N5_9 
REMARK    3  A    between atoms: N5_9  and  C5_10 
REMARK    4  A    between atoms: C13_20  and  C14_21 
ROOT
HETATM    1  C1  UNL     1      19.878   1.288  49.639  1.00  0.00     0.152 C 
HETATM    2  N1  UNL     1      20.302   2.246  50.655  1.00  0.00    -0.357 N 
HETATM    3  C2  UNL     1      20.709   3.524  50.116  1.00  0.00     0.155 A 
HETATM    4  N2  UNL     1      20.843   4.132  48.983  1.00  0.00    -0.045 NA
HETATM    5  C3  UNL     1      21.304   5.463  48.961  1.00  0.00     0.719 A 
HETATM    6  N4  UNL     1      21.635   6.217  49.955  1.00  0.00    -0.075 NA
HETATM    7  C4  UNL     1      21.559   5.720  51.338  1.00  0.00     0.263 A 
HETATM    8  C11 UNL     1      21.076   4.338  51.294  1.00  0.00     0.031 A 
HETATM    9  C12 UNL     1      20.902   3.613  52.383  1.00  0.00     0.018 A 
HETATM   10  C13 UNL     1      20.411   2.249  52.092  1.00  0.00     0.139 A 
ENDROOT
BRANCH   7  11
HETATM   11  N5  UNL     1      22.880   5.851  51.897  1.00  0.00    -0.360 N 
HETATM   12  H7  UNL     1      23.024   6.141  52.871  1.00  0.00     0.162 HD
BRANCH  11  13
HETATM   13  C5  UNL     1      24.019   5.576  51.092  1.00  0.00     0.069 A 
HETATM   14  C6  UNL     1      24.445   4.300  50.789  1.00  0.00     0.034 A 
HETATM   15  C7  UNL     1      25.570   4.120  49.993  1.00  0.00     0.026 A 
HETATM   16  C8  UNL     1      26.305   5.162  49.477  1.00  0.00     0.037 A 
HETATM   17 CL1  UNL     1      27.711   4.850  48.483  1.00  0.00    -0.084 Cl
HETATM   18  C9  UNL     1      25.903   6.448  49.763  1.00  0.00     0.068 A 
HETATM   19  C10 UNL     1      24.783   6.600  50.555  1.00  0.00     0.144 A 
HETATM   20  F1  UNL     1      24.435   7.904  50.803  1.00  0.00    -0.204 F 
ENDBRANCH  11  13
ENDBRANCH   7  11
BRANCH   5  21
HETATM   21  N3  UNL     1      21.407   6.026  47.640  1.00  0.00    -0.231 N 
HETATM   22  H4  UNL     1      20.516   6.256  47.107  1.00  0.00     0.174 HD
HETATM   23  H5  UNL     1      22.004   6.363  46.846  1.00  0.00     0.174 HD
ENDBRANCH   5  21
BRANCH  10  24
HETATM   24  C14 UNL     1      21.245   1.195  52.671  1.00  0.00    -0.050 C 
HETATM   25  C15 UNL     1      20.894   0.433  53.694  1.00  0.00     0.005 C 
HETATM   26  C16 UNL     1      21.523  -0.651  54.437  1.00  0.00     0.000 C 
HETATM   27  C17 UNL     1      22.833  -0.898  54.445  1.00  0.00    -0.000 C 
HETATM   28  C18 UNL     1      23.912  -0.169  53.740  1.00  0.00    -0.004 C 
HETATM   29  C19 UNL     1      23.665   0.628  52.718  1.00  0.00    -0.022 C 
HETATM   30  C20 UNL     1      22.520   1.119  51.913  1.00  0.00     0.063 C 
ENDBRANCH  10  24
TORSDOF 4
ENDMDL
