MODEL 1
REMARK VINA RESULT:      -8.8      0.000      0.000
REMARK  6 active torsions:
REMARK  status: ('A' for Active; 'I' for Inactive)
REMARK    1  A    between atoms: C4_5  and  N2_6 
REMARK    2  A    between atoms: N2_6  and  C5_7 
REMARK    3  A    between atoms: C5_7  and  C6_8 
REMARK    4  A    between atoms: C7_9  and  C8_11 
REMARK    5  A    between atoms: C11_15  and  O1_16 
REMARK    6  A    between atoms: O1_16  and  C12_17 
ROOT
HETATM    1  C1  UNL     1      25.965   5.134  48.978  1.00  0.00     0.047 C 
HETATM    2  C2  UNL     1      24.654   5.336  49.715  1.00  0.00    -0.044 C 
HETATM    3  C3  UNL     1      24.625   5.119  51.045  1.00  0.00     0.089 C 
HETATM    4  N1  UNL     1      23.968   5.070  52.301  1.00  0.00    -0.367 N 
HETATM    5  C4  UNL     1      23.790   3.766  52.984  1.00  0.00     0.345 C 
HETATM    6  C10 UNL     1      23.098   2.767  52.153  1.00  0.00     0.062 C 
HETATM    7  C11 UNL     1      22.466   1.743  51.612  1.00  0.00     0.058 C 
HETATM    8  C17 UNL     1      21.985   1.484  50.194  1.00  0.00     0.160 C 
HETATM    9  C18 UNL     1      22.298   2.670  49.457  1.00  0.00    -0.077 C 
HETATM   10  C19 UNL     1      22.540   3.637  48.877  1.00  0.00     0.009 C 
HETATM   11  N3  UNL     1      22.799   4.762  48.209  1.00  0.00    -0.329 N 
HETATM   12  C20 UNL     1      22.337   5.082  46.881  1.00  0.00     0.163 C 
HETATM   13  C21 UNL     1      21.998   6.566  46.833  1.00  0.00     0.290 C 
HETATM   14  N4  UNL     1      23.182   7.376  46.976  1.00  0.00     0.087 N 
HETATM   15  C22 UNL     1      24.194   6.718  47.776  1.00  0.00     0.300 C 
HETATM   16  C23 UNL     1      23.587   5.783  48.812  1.00  0.00     0.151 C 
HETATM   17  H5  UNL     1      23.701   6.055  52.544  1.00  0.00     0.161 HD
HETATM   18  H31 UNL     1      22.911   8.254  47.468  1.00  0.00     0.316 HD
ENDROOT
BRANCH   5  19
HETATM   19  N2  UNL     1      25.120   3.289  53.291  1.00  0.00     0.111 N 
HETATM   20  H7  UNL     1      25.785   4.091  53.398  1.00  0.00     0.319 HD
BRANCH  19  21
HETATM   21  C5  UNL     1      25.616   2.321  52.322  1.00  0.00     0.297 C 
BRANCH  21  22
HETATM   22  C6  UNL     1      26.564   1.477  53.038  1.00  0.00     0.141 A 
HETATM   23  C7  UNL     1      27.386   0.684  53.614  1.00  0.00     0.027 A 
HETATM   24 CL1  UNL     1      26.984  -0.372  52.282  1.00  0.00    -0.176 Cl
BRANCH  23  25
HETATM   25  C8  UNL     1      28.337   0.011  54.459  1.00  0.00     0.207 C 
HETATM   26  C9  UNL     1      29.290  -0.840  53.623  1.00  0.00     0.051 C 
HETATM   27  F1  UNL     1      29.091   0.916  55.217  1.00  0.00    -0.244 F 
ENDBRANCH  23  25
ENDBRANCH  21  22
ENDBRANCH  19  21
ENDBRANCH   5  19
BRANCH   7  28
HETATM   28  O1  UNL     1      22.388   0.995  52.749  1.00  0.00    -0.349 OA
BRANCH  28  29
HETATM   29  C12 UNL     1      22.564  -0.370  52.928  1.00  0.00     0.132 C 
HETATM   30  C13 UNL     1      21.288  -1.151  53.084  1.00  0.00     0.058 C 
HETATM   31  C14 UNL     1      20.941  -1.487  54.500  1.00  0.00     0.170 C 
HETATM   32  O2  UNL     1      22.046  -2.150  55.051  1.00  0.00    -0.391 OA
HETATM   33  C15 UNL     1      23.019  -1.200  55.269  1.00  0.00     0.170 C 
HETATM   34  C16 UNL     1      23.579  -0.643  53.979  1.00  0.00     0.058 C 
ENDBRANCH  28  29
ENDBRANCH   7  28
TORSDOF 6
ENDMDL
MODEL 2
REMARK VINA RESULT:      -8.6      3.774      8.066
REMARK  6 active torsions:
REMARK  status: ('A' for Active; 'I' for Inactive)
REMARK    1  A    between atoms: C4_5  and  N2_6 
REMARK    2  A    between atoms: N2_6  and  C5_7 
REMARK    3  A    between atoms: C5_7  and  C6_8 
REMARK    4  A    between atoms: C7_9  and  C8_11 
REMARK    5  A    between atoms: C11_15  and  O1_16 
REMARK    6  A    between atoms: O1_16  and  C12_17 
ROOT
HETATM    1  C1  UNL     1      24.201  -0.182  53.016  1.00  0.00     0.047 C 
HETATM    2  C2  UNL     1      24.686   1.240  53.225  1.00  0.00    -0.044 C 
HETATM    3  C3  UNL     1      23.828   2.253  52.988  1.00  0.00     0.089 C 
HETATM    4  N1  UNL     1      23.485   3.627  52.928  1.00  0.00    -0.367 N 
HETATM    5  C4  UNL     1      23.192   4.253  51.616  1.00  0.00     0.345 C 
HETATM    6  C10 UNL     1      24.283   4.089  50.641  1.00  0.00     0.062 C 
HETATM    7  C11 UNL     1      25.136   4.103  49.635  1.00  0.00     0.058 C 
HETATM    8  C17 UNL     1      26.443   3.363  49.405  1.00  0.00     0.160 C 
HETATM    9  C18 UNL     1      26.674   2.607  50.598  1.00  0.00    -0.077 C 
HETATM   10  C19 UNL     1      26.858   2.015  51.570  1.00  0.00     0.009 C 
HETATM   11  N3  UNL     1      27.084   1.346  52.702  1.00  0.00    -0.329 N 
HETATM   12  C20 UNL     1      28.305   0.662  53.050  1.00  0.00     0.163 C 
HETATM   13  C21 UNL     1      28.558   0.855  54.539  1.00  0.00     0.290 C 
HETATM   14  N4  UNL     1      27.562   0.176  55.329  1.00  0.00     0.087 N 
HETATM   15  C22 UNL     1      26.288   0.100  54.644  1.00  0.00     0.300 C 
HETATM   16  C23 UNL     1      26.073   1.275  53.702  1.00  0.00     0.151 C 
HETATM   17  H5  UNL     1      23.502   3.988  53.913  1.00  0.00     0.161 HD
HETATM   18  H31 UNL     1      27.418   0.726  56.203  1.00  0.00     0.316 HD
ENDROOT
BRANCH   5  19
HETATM   19  N2  UNL     1      22.005   3.597  51.115  1.00  0.00     0.111 N 
HETATM   20  H7  UNL     1      21.876   3.795  50.095  1.00  0.00     0.319 HD
BRANCH  19  21
HETATM   21  C5  UNL     1      20.806   3.934  51.871  1.00  0.00     0.297 C 
BRANCH  21  22
HETATM   22  C6  UNL     1      19.966   2.743  51.854  1.00  0.00     0.141 A 
HETATM   23  C7  UNL     1      19.271   1.670  51.893  1.00  0.00     0.027 A 
HETATM   24 CL1  UNL     1      20.404   1.225  53.147  1.00  0.00    -0.176 Cl
BRANCH  23  25
HETATM   25  C8  UNL     1      18.333   0.591  51.723  1.00  0.00     0.207 C 
HETATM   26  C9  UNL     1      17.923   0.463  50.258  1.00  0.00     0.051 C 
HETATM   27  F1  UNL     1      18.865  -0.632  52.150  1.00  0.00    -0.244 F 
ENDBRANCH  23  25
ENDBRANCH  21  22
ENDBRANCH  19  21
ENDBRANCH   5  19
BRANCH   7  28
HETATM   28  O1  UNL     1      24.454   5.003  48.869  1.00  0.00    -0.349 OA
BRANCH  28  29
HETATM   29  C12 UNL     1      24.786   6.304  48.520  1.00  0.00     0.132 C 
HETATM   30  C13 UNL     1      26.107   6.780  49.060  1.00  0.00     0.058 C 
HETATM   31  C14 UNL     1      25.999   7.636  50.282  1.00  0.00     0.170 C 
HETATM   32  O2  UNL     1      25.134   8.694  49.971  1.00  0.00    -0.391 OA
HETATM   33  C15 UNL     1      23.859   8.175  49.938  1.00  0.00     0.170 C 
HETATM   34  C16 UNL     1      23.652   7.230  48.776  1.00  0.00     0.058 C 
ENDBRANCH  28  29
ENDBRANCH   7  28
TORSDOF 6
ENDMDL
MODEL 3
REMARK VINA RESULT:      -8.4      3.625      8.116
REMARK  6 active torsions:
REMARK  status: ('A' for Active; 'I' for Inactive)
REMARK    1  A    between atoms: C4_5  and  N2_6 
REMARK    2  A    between atoms: N2_6  and  C5_7 
REMARK    3  A    between atoms: C5_7  and  C6_8 
REMARK    4  A    between atoms: C7_9  and  C8_11 
REMARK    5  A    between atoms: C11_15  and  O1_16 
REMARK    6  A    between atoms: O1_16  and  C12_17 
ROOT
HETATM    1  C1  UNL     1      23.487   0.606  52.842  1.00  0.00     0.047 C 
HETATM    2  C2  UNL     1      24.359   1.819  53.107  1.00  0.00    -0.044 C 
HETATM    3  C3  UNL     1      23.813   3.045  52.972  1.00  0.00     0.089 C 
HETATM    4  N1  UNL     1      23.868   4.461  53.009  1.00  0.00    -0.367 N 
HETATM    5  C4  UNL     1      23.720   5.233  51.751  1.00  0.00     0.345 C 
HETATM    6  C10 UNL     1      24.688   4.840  50.714  1.00  0.00     0.062 C 
HETATM    7  C11 UNL     1      25.477   4.685  49.668  1.00  0.00     0.058 C 
HETATM    8  C17 UNL     1      26.516   3.629  49.331  1.00  0.00     0.160 C 
HETATM    9  C18 UNL     1      26.563   2.757  50.465  1.00  0.00    -0.077 C 
HETATM   10  C19 UNL     1      26.605   2.072  51.391  1.00  0.00     0.009 C 
HETATM   11  N3  UNL     1      26.672   1.290  52.470  1.00  0.00    -0.329 N 
HETATM   12  C20 UNL     1      27.662   0.270  52.715  1.00  0.00     0.163 C 
HETATM   13  C21 UNL     1      28.008   0.282  54.198  1.00  0.00     0.290 C 
HETATM   14  N4  UNL     1      26.887  -0.145  54.998  1.00  0.00     0.087 N 
HETATM   15  C22 UNL     1      25.622   0.183  54.375  1.00  0.00     0.300 C 
HETATM   16  C23 UNL     1      25.715   1.434  53.514  1.00  0.00     0.151 C 
HETATM   17  H5  UNL     1      24.017   4.734  54.011  1.00  0.00     0.161 HD
HETATM   18  H31 UNL     1      26.933   0.361  55.908  1.00  0.00     0.316 HD
ENDROOT
BRANCH   5  19
HETATM   19  N2  UNL     1      22.380   4.970  51.275  1.00  0.00     0.111 N 
HETATM   20  H7  UNL     1      21.777   4.604  52.050  1.00  0.00     0.319 HD
BRANCH  19  21
HETATM   21  C5  UNL     1      22.350   4.080  50.122  1.00  0.00     0.297 C 
BRANCH  21  22
HETATM   22  C6  UNL     1      21.429   3.003  50.462  1.00  0.00     0.141 A 
HETATM   23  C7  UNL     1      20.664   2.011  50.721  1.00  0.00     0.027 A 
HETATM   24 CL1  UNL     1      21.810   1.132  49.737  1.00  0.00    -0.176 Cl
BRANCH  23  25
HETATM   25  C8  UNL     1      19.647   1.094  51.165  1.00  0.00     0.207 C 
HETATM   26  C9  UNL     1      18.602   0.881  50.073  1.00  0.00     0.051 C 
HETATM   27  F1  UNL     1      20.187  -0.149  51.519  1.00  0.00    -0.244 F 
ENDBRANCH  23  25
ENDBRANCH  21  22
ENDBRANCH  19  21
ENDBRANCH   5  19
BRANCH   7  28
HETATM   28  O1  UNL     1      25.051   5.790  48.991  1.00  0.00    -0.349 OA
BRANCH  28  29
HETATM   29  C12 UNL     1      25.785   6.781  48.356  1.00  0.00     0.132 C 
HETATM   30  C13 UNL     1      26.934   7.324  49.162  1.00  0.00     0.058 C 
HETATM   31  C14 UNL     1      26.648   8.627  49.839  1.00  0.00     0.170 C 
HETATM   32  O2  UNL     1      26.216   9.522  48.851  1.00  0.00    -0.391 OA
HETATM   33  C15 UNL     1      24.935   9.154  48.506  1.00  0.00     0.170 C 
HETATM   34  C16 UNL     1      24.892   7.824  47.787  1.00  0.00     0.058 C 
ENDBRANCH  28  29
ENDBRANCH   7  28
TORSDOF 6
ENDMDL
MODEL 4
REMARK VINA RESULT:      -8.4      3.779      5.611
REMARK  6 active torsions:
REMARK  status: ('A' for Active; 'I' for Inactive)
REMARK    1  A    between atoms: C4_5  and  N2_6 
REMARK    2  A    between atoms: N2_6  and  C5_7 
REMARK    3  A    between atoms: C5_7  and  C6_8 
REMARK    4  A    between atoms: C7_9  and  C8_11 
REMARK    5  A    between atoms: C11_15  and  O1_16 
REMARK    6  A    between atoms: O1_16  and  C12_17 
ROOT
HETATM    1  C1  UNL     1      19.757   3.077  48.369  1.00  0.00     0.047 C 
HETATM    2  C2  UNL     1      20.139   3.745  49.677  1.00  0.00    -0.044 C 
HETATM    3  C3  UNL     1      21.431   4.074  49.877  1.00  0.00     0.089 C 
HETATM    4  N1  UNL     1      22.490   4.619  50.647  1.00  0.00    -0.367 N 
HETATM    5  C4  UNL     1      23.565   3.730  51.149  1.00  0.00     0.345 C 
HETATM    6  C10 UNL     1      23.056   2.600  51.945  1.00  0.00     0.062 C 
HETATM    7  C11 UNL     1      22.833   1.552  52.715  1.00  0.00     0.058 C 
HETATM    8  C17 UNL     1      21.551   0.833  53.100  1.00  0.00     0.160 C 
HETATM    9  C18 UNL     1      20.493   1.574  52.486  1.00  0.00    -0.077 C 
HETATM   10  C19 UNL     1      19.647   2.189  51.999  1.00  0.00     0.009 C 
HETATM   11  N3  UNL     1      18.665   2.909  51.456  1.00  0.00    -0.329 N 
HETATM   12  C20 UNL     1      17.255   2.749  51.715  1.00  0.00     0.163 C 
HETATM   13  C21 UNL     1      16.609   4.127  51.742  1.00  0.00     0.290 C 
HETATM   14  N4  UNL     1      16.639   4.742  50.438  1.00  0.00     0.087 N 
HETATM   15  C22 UNL     1      17.780   4.307  49.661  1.00  0.00     0.300 C 
HETATM   16  C23 UNL     1      18.972   3.955  50.540  1.00  0.00     0.151 C 
HETATM   17  H5  UNL     1      22.305   5.649  50.732  1.00  0.00     0.161 HD
HETATM   18  H31 UNL     1      16.721   5.773  50.573  1.00  0.00     0.316 HD
ENDROOT
BRANCH   5  19
HETATM   19  N2  UNL     1      24.241   3.219  49.978  1.00  0.00     0.111 N 
HETATM   20  H7  UNL     1      23.945   2.234  49.780  1.00  0.00     0.319 HD
BRANCH  19  21
HETATM   21  C5  UNL     1      25.692   3.323  50.067  1.00  0.00     0.297 C 
BRANCH  21  22
HETATM   22  C6  UNL     1      26.048   4.595  49.453  1.00  0.00     0.141 A 
HETATM   23  C7  UNL     1      26.426   5.682  48.894  1.00  0.00     0.027 A 
HETATM   24 CL1  UNL     1      27.877   4.767  48.562  1.00  0.00    -0.176 Cl
BRANCH  23  25
HETATM   25  C8  UNL     1      26.587   7.006  48.351  1.00  0.00     0.207 C 
HETATM   26  C9  UNL     1      27.968   7.162  47.719  1.00  0.00     0.051 C 
HETATM   27  F1  UNL     1      25.615   7.292  47.385  1.00  0.00    -0.244 F 
ENDBRANCH  23  25
ENDBRANCH  21  22
ENDBRANCH  19  21
ENDBRANCH   5  19
BRANCH   7  28
HETATM   28  O1  UNL     1      24.136   1.330  53.050  1.00  0.00    -0.349 OA
BRANCH  28  29
HETATM   29  C12 UNL     1      24.865   0.149  53.048  1.00  0.00     0.132 C 
HETATM   30  C13 UNL     1      25.077  -0.459  54.408  1.00  0.00     0.058 C 
HETATM   31  C14 UNL     1      26.421  -0.182  55.003  1.00  0.00     0.170 C 
HETATM   32  O2  UNL     1      27.381  -0.602  54.072  1.00  0.00    -0.391 OA
HETATM   33  C15 UNL     1      27.384   0.322  53.051  1.00  0.00     0.170 C 
HETATM   34  C16 UNL     1      26.106   0.291  52.243  1.00  0.00     0.058 C 
ENDBRANCH  28  29
ENDBRANCH   7  28
TORSDOF 6
ENDMDL
MODEL 5
REMARK VINA RESULT:      -8.3      4.045      8.573
REMARK  6 active torsions:
REMARK  status: ('A' for Active; 'I' for Inactive)
REMARK    1  A    between atoms: C4_5  and  N2_6 
REMARK    2  A    between atoms: N2_6  and  C5_7 
REMARK    3  A    between atoms: C5_7  and  C6_8 
REMARK    4  A    between atoms: C7_9  and  C8_11 
REMARK    5  A    between atoms: C11_15  and  O1_16 
REMARK    6  A    between atoms: O1_16  and  C12_17 
ROOT
HETATM    1  C1  UNL     1      23.623   0.513  52.771  1.00  0.00     0.047 C 
HETATM    2  C2  UNL     1      24.431   1.756  53.095  1.00  0.00    -0.044 C 
HETATM    3  C3  UNL     1      23.841   2.960  52.953  1.00  0.00     0.089 C 
HETATM    4  N1  UNL     1      23.835   4.377  53.013  1.00  0.00    -0.367 N 
HETATM    5  C4  UNL     1      23.713   5.163  51.762  1.00  0.00     0.345 C 
HETATM    6  C10 UNL     1      24.743   4.828  50.765  1.00  0.00     0.062 C 
HETATM    7  C11 UNL     1      25.585   4.724  49.755  1.00  0.00     0.058 C 
HETATM    8  C17 UNL     1      26.681   3.716  49.450  1.00  0.00     0.160 C 
HETATM    9  C18 UNL     1      26.713   2.829  50.573  1.00  0.00    -0.077 C 
HETATM   10  C19 UNL     1      26.741   2.130  51.489  1.00  0.00     0.009 C 
HETATM   11  N3  UNL     1      26.790   1.334  52.558  1.00  0.00    -0.329 N 
HETATM   12  C20 UNL     1      27.810   0.351  52.834  1.00  0.00     0.163 C 
HETATM   13  C21 UNL     1      28.087   0.352  54.331  1.00  0.00     0.290 C 
HETATM   14  N4  UNL     1      26.950  -0.135  55.072  1.00  0.00     0.087 N 
HETATM   15  C22 UNL     1      25.702   0.152  54.396  1.00  0.00     0.300 C 
HETATM   16  C23 UNL     1      25.782   1.420  53.558  1.00  0.00     0.151 C 
HETATM   17  H5  UNL     1      23.927   4.639  54.025  1.00  0.00     0.161 HD
HETATM   18  H31 UNL     1      26.932   0.358  55.991  1.00  0.00     0.316 HD
ENDROOT
BRANCH   5  19
HETATM   19  N2  UNL     1      22.409   4.853  51.220  1.00  0.00     0.111 N 
HETATM   20  H7  UNL     1      22.417   3.918  50.749  1.00  0.00     0.319 HD
BRANCH  19  21
HETATM   21  C5  UNL     1      21.903   5.886  50.325  1.00  0.00     0.297 C 
BRANCH  21  22
HETATM   22  C6  UNL     1      21.527   5.208  49.091  1.00  0.00     0.141 A 
HETATM   23  C7  UNL     1      21.243   4.659  47.972  1.00  0.00     0.027 A 
HETATM   24 CL1  UNL     1      22.369   5.836  47.340  1.00  0.00    -0.176 Cl
BRANCH  23  25
HETATM   25  C8  UNL     1      20.746   3.869  46.875  1.00  0.00     0.207 C 
HETATM   26  C9  UNL     1      21.802   3.749  45.779  1.00  0.00     0.051 C 
HETATM   27  F1  UNL     1      20.377   2.583  47.286  1.00  0.00    -0.244 F 
ENDBRANCH  23  25
ENDBRANCH  21  22
ENDBRANCH  19  21
ENDBRANCH   5  19
BRANCH   7  28
HETATM   28  O1  UNL     1      25.144   5.821  49.075  1.00  0.00    -0.349 OA
BRANCH  28  29
HETATM   29  C12 UNL     1      25.670   7.104  49.023  1.00  0.00     0.132 C 
HETATM   30  C13 UNL     1      24.688   8.197  49.347  1.00  0.00     0.058 C 
HETATM   31  C14 UNL     1      24.120   8.888  48.148  1.00  0.00     0.170 C 
HETATM   32  O2  UNL     1      25.202   9.348  47.384  1.00  0.00    -0.391 OA
HETATM   33  C15 UNL     1      25.761   8.247  46.774  1.00  0.00     0.170 C 
HETATM   34  C16 UNL     1      26.428   7.318  47.763  1.00  0.00     0.058 C 
ENDBRANCH  28  29
ENDBRANCH   7  28
TORSDOF 6
ENDMDL
MODEL 6
REMARK VINA RESULT:      -8.3      2.490      3.093
REMARK  6 active torsions:
REMARK  status: ('A' for Active; 'I' for Inactive)
REMARK    1  A    between atoms: C4_5  and  N2_6 
REMARK    2  A    between atoms: N2_6  and  C5_7 
REMARK    3  A    between atoms: C5_7  and  C6_8 
REMARK    4  A    between atoms: C7_9  and  C8_11 
REMARK    5  A    between atoms: C11_15  and  O1_16 
REMARK    6  A    between atoms: O1_16  and  C12_17 
ROOT
HETATM    1  C1  UNL     1      25.359   3.716  49.420  1.00  0.00     0.047 C 
HETATM    2  C2  UNL     1      24.750   4.107  50.754  1.00  0.00    -0.044 C 
HETATM    3  C3  UNL     1      24.571   3.147  51.684  1.00  0.00     0.089 C 
HETATM    4  N1  UNL     1      24.154   2.689  52.959  1.00  0.00    -0.367 N 
HETATM    5  C4  UNL     1      23.005   1.757  53.063  1.00  0.00     0.345 C 
HETATM    6  C10 UNL     1      21.783   2.272  52.424  1.00  0.00     0.062 C 
HETATM    7  C11 UNL     1      20.578   2.548  51.961  1.00  0.00     0.058 C 
HETATM    8  C17 UNL     1      20.071   3.658  51.055  1.00  0.00     0.160 C 
HETATM    9  C18 UNL     1      21.205   4.491  50.793  1.00  0.00    -0.077 C 
HETATM   10  C19 UNL     1      22.121   5.164  50.602  1.00  0.00     0.009 C 
HETATM   11  N3  UNL     1      23.173   5.957  50.397  1.00  0.00    -0.329 N 
HETATM   12  C20 UNL     1      23.145   7.256  49.772  1.00  0.00     0.163 C 
HETATM   13  C21 UNL     1      24.137   8.160  50.491  1.00  0.00     0.290 C 
HETATM   14  N4  UNL     1      25.493   7.719  50.276  1.00  0.00     0.087 N 
HETATM   15  C22 UNL     1      25.571   6.287  50.079  1.00  0.00     0.300 C 
HETATM   16  C23 UNL     1      24.469   5.545  50.821  1.00  0.00     0.151 C 
HETATM   17  H5  UNL     1      24.791   3.132  53.665  1.00  0.00     0.161 HD
HETATM   18  H31 UNL     1      26.044   7.952  51.131  1.00  0.00     0.316 HD
ENDROOT
BRANCH   5  19
HETATM   19  N2  UNL     1      23.413   0.541  52.396  1.00  0.00     0.111 N 
HETATM   20  H7  UNL     1      22.659   0.201  51.753  1.00  0.00     0.319 HD
BRANCH  19  21
HETATM   21  C5  UNL     1      23.827  -0.505  53.321  1.00  0.00     0.297 C 
BRANCH  21  22
HETATM   22  C6  UNL     1      25.283  -0.463  53.359  1.00  0.00     0.141 A 
HETATM   23  C7  UNL     1      26.557  -0.415  53.466  1.00  0.00     0.027 A 
HETATM   24 CL1  UNL     1      26.201  -0.155  55.156  1.00  0.00    -0.176 Cl
BRANCH  23  25
HETATM   25  C8  UNL     1      27.986  -0.407  53.294  1.00  0.00     0.207 C 
HETATM   26  C9  UNL     1      28.670   0.193  54.520  1.00  0.00     0.051 C 
HETATM   27  F1  UNL     1      28.492  -1.696  53.083  1.00  0.00    -0.244 F 
ENDBRANCH  23  25
ENDBRANCH  21  22
ENDBRANCH  19  21
ENDBRANCH   5  19
BRANCH   7  28
HETATM   28  O1  UNL     1      19.941   1.506  52.567  1.00  0.00    -0.349 OA
BRANCH  28  29
HETATM   29  C12 UNL     1      19.658   0.236  52.084  1.00  0.00     0.132 C 
HETATM   30  C13 UNL     1      18.510   0.176  51.113  1.00  0.00     0.058 C 
HETATM   31  C14 UNL     1      17.219  -0.279  51.716  1.00  0.00     0.170 C 
HETATM   32  O2  UNL     1      17.462  -1.512  52.336  1.00  0.00    -0.391 OA
HETATM   33  C15 UNL     1      18.175  -1.252  53.485  1.00  0.00     0.170 C 
HETATM   34  C16 UNL     1      19.572  -0.749  53.194  1.00  0.00     0.058 C 
ENDBRANCH  28  29
ENDBRANCH   7  28
TORSDOF 6
ENDMDL
MODEL 7
REMARK VINA RESULT:      -8.2      3.614      7.056
REMARK  6 active torsions:
REMARK  status: ('A' for Active; 'I' for Inactive)
REMARK    1  A    between atoms: C4_5  and  N2_6 
REMARK    2  A    between atoms: N2_6  and  C5_7 
REMARK    3  A    between atoms: C5_7  and  C6_8 
REMARK    4  A    between atoms: C7_9  and  C8_11 
REMARK    5  A    between atoms: C11_15  and  O1_16 
REMARK    6  A    between atoms: O1_16  and  C12_17 
ROOT
HETATM    1  C1  UNL     1      24.931  -0.532  53.214  1.00  0.00     0.047 C 
HETATM    2  C2  UNL     1      25.074   0.969  53.386  1.00  0.00    -0.044 C 
HETATM    3  C3  UNL     1      23.981   1.741  53.225  1.00  0.00     0.089 C 
HETATM    4  N1  UNL     1      23.312   2.991  53.199  1.00  0.00    -0.367 N 
HETATM    5  C4  UNL     1      22.770   3.506  51.918  1.00  0.00     0.345 C 
HETATM    6  C10 UNL     1      23.784   3.593  50.854  1.00  0.00     0.062 C 
HETATM    7  C11 UNL     1      24.523   3.795  49.780  1.00  0.00     0.058 C 
HETATM    8  C17 UNL     1      25.947   3.387  49.439  1.00  0.00     0.160 C 
HETATM    9  C18 UNL     1      26.450   2.729  50.606  1.00  0.00    -0.077 C 
HETATM   10  C19 UNL     1      26.851   2.216  51.558  1.00  0.00     0.009 C 
HETATM   11  N3  UNL     1      27.324   1.641  52.664  1.00  0.00    -0.329 N 
HETATM   12  C20 UNL     1      28.699   1.276  52.906  1.00  0.00     0.163 C 
HETATM   13  C21 UNL     1      29.019   1.550  54.369  1.00  0.00     0.290 C 
HETATM   14  N4  UNL     1      28.284   0.665  55.238  1.00  0.00     0.087 N 
HETATM   15  C22 UNL     1      27.015   0.273  54.662  1.00  0.00     0.300 C 
HETATM   16  C23 UNL     1      26.446   1.346  53.745  1.00  0.00     0.151 C 
HETATM   17  H5  UNL     1      23.322   3.363  54.180  1.00  0.00     0.161 HD
HETATM   18  H31 UNL     1      28.085   1.180  56.123  1.00  0.00     0.316 HD
ENDROOT
BRANCH   5  19
HETATM   19  N2  UNL     1      21.739   2.575  51.517  1.00  0.00     0.111 N 
HETATM   20  H7  UNL     1      21.366   2.823  50.570  1.00  0.00     0.319 HD
BRANCH  19  21
HETATM   21  C5  UNL     1      20.663   2.461  52.492  1.00  0.00     0.297 C 
BRANCH  21  22
HETATM   22  C6  UNL     1      20.637   1.065  52.908  1.00  0.00     0.141 A 
HETATM   23  C7  UNL     1      20.554  -0.170  53.230  1.00  0.00     0.027 A 
HETATM   24 CL1  UNL     1      19.178  -0.149  52.153  1.00  0.00    -0.176 Cl
BRANCH  23  25
HETATM   25  C8  UNL     1      20.698  -1.502  53.759  1.00  0.00     0.207 C 
HETATM   26  C9  UNL     1      21.708  -1.519  54.903  1.00  0.00     0.051 C 
HETATM   27  F1  UNL     1      19.479  -2.008  54.228  1.00  0.00    -0.244 F 
ENDBRANCH  23  25
ENDBRANCH  21  22
ENDBRANCH  19  21
ENDBRANCH   5  19
BRANCH   7  28
HETATM   28  O1  UNL     1      23.583   4.490  49.077  1.00  0.00    -0.349 OA
BRANCH  28  29
HETATM   29  C12 UNL     1      22.807   4.093  47.998  1.00  0.00     0.132 C 
HETATM   30  C13 UNL     1      21.441   4.722  47.944  1.00  0.00     0.058 C 
HETATM   31  C14 UNL     1      20.340   3.848  48.454  1.00  0.00     0.170 C 
HETATM   32  O2  UNL     1      20.404   2.643  47.742  1.00  0.00    -0.391 OA
HETATM   33  C15 UNL     1      21.492   1.949  48.221  1.00  0.00     0.170 C 
HETATM   34  C16 UNL     1      22.803   2.613  47.861  1.00  0.00     0.058 C 
ENDBRANCH  28  29
ENDBRANCH   7  28
TORSDOF 6
ENDMDL
MODEL 8
REMARK VINA RESULT:      -8.2      4.603      8.869
REMARK  6 active torsions:
REMARK  status: ('A' for Active; 'I' for Inactive)
REMARK    1  A    between atoms: C4_5  and  N2_6 
REMARK    2  A    between atoms: N2_6  and  C5_7 
REMARK    3  A    between atoms: C5_7  and  C6_8 
REMARK    4  A    between atoms: C7_9  and  C8_11 
REMARK    5  A    between atoms: C11_15  and  O1_16 
REMARK    6  A    between atoms: O1_16  and  C12_17 
ROOT
HETATM    1  C1  UNL     1      23.757   1.026  52.655  1.00  0.00     0.047 C 
HETATM    2  C2  UNL     1      24.519   2.313  52.911  1.00  0.00    -0.044 C 
HETATM    3  C3  UNL     1      23.884   3.486  52.714  1.00  0.00     0.089 C 
HETATM    4  N1  UNL     1      23.826   4.903  52.704  1.00  0.00    -0.367 N 
HETATM    5  C4  UNL     1      23.666   5.620  51.416  1.00  0.00     0.345 C 
HETATM    6  C10 UNL     1      24.702   5.274  50.429  1.00  0.00     0.062 C 
HETATM    7  C11 UNL     1      25.542   5.151  49.419  1.00  0.00     0.058 C 
HETATM    8  C17 UNL     1      26.672   4.171  49.155  1.00  0.00     0.160 C 
HETATM    9  C18 UNL     1      26.744   3.342  50.320  1.00  0.00    -0.077 C 
HETATM   10  C19 UNL     1      26.804   2.691  51.270  1.00  0.00     0.009 C 
HETATM   11  N3  UNL     1      26.890   1.951  52.376  1.00  0.00    -0.329 N 
HETATM   12  C20 UNL     1      27.947   1.022  52.692  1.00  0.00     0.163 C 
HETATM   13  C21 UNL     1      28.233   1.108  54.185  1.00  0.00     0.290 C 
HETATM   14  N4  UNL     1      27.119   0.617  54.958  1.00  0.00     0.087 N 
HETATM   15  C22 UNL     1      25.857   0.823  54.279  1.00  0.00     0.300 C 
HETATM   16  C23 UNL     1      25.885   2.051  53.379  1.00  0.00     0.151 C 
HETATM   17  H5  UNL     1      23.914   5.218  53.701  1.00  0.00     0.161 HD
HETATM   18  H31 UNL     1      27.089   1.154  55.852  1.00  0.00     0.316 HD
ENDROOT
BRANCH   5  19
HETATM   19  N2  UNL     1      22.372   5.236  50.901  1.00  0.00     0.111 N 
HETATM   20  H7  UNL     1      22.431   5.016  49.878  1.00  0.00     0.319 HD
BRANCH  19  21
HETATM   21  C5  UNL     1      21.336   6.226  51.165  1.00  0.00     0.297 C 
BRANCH  21  22
HETATM   22  C6  UNL     1      21.626   7.361  50.298  1.00  0.00     0.141 A 
HETATM   23  C7  UNL     1      21.813   8.384  49.554  1.00  0.00     0.027 A 
HETATM   24 CL1  UNL     1      20.208   8.816  50.094  1.00  0.00    -0.176 Cl
BRANCH  23  25
HETATM   25  C8  UNL     1      22.286   9.411  48.663  1.00  0.00     0.207 C 
HETATM   26  C9  UNL     1      22.387   8.878  47.236  1.00  0.00     0.051 C 
HETATM   27  F1  UNL     1      21.443  10.530  48.666  1.00  0.00    -0.244 F 
ENDBRANCH  23  25
ENDBRANCH  21  22
ENDBRANCH  19  21
ENDBRANCH   5  19
BRANCH   7  28
HETATM   28  O1  UNL     1      25.056   6.196  48.689  1.00  0.00    -0.349 OA
BRANCH  28  29
HETATM   29  C12 UNL     1      25.649   7.409  48.371  1.00  0.00     0.132 C 
HETATM   30  C13 UNL     1      26.988   7.293  47.695  1.00  0.00     0.058 C 
HETATM   31  C14 UNL     1      28.157   7.497  48.605  1.00  0.00     0.170 C 
HETATM   32  O2  UNL     1      27.980   8.736  49.236  1.00  0.00    -0.391 OA
HETATM   33  C15 UNL     1      26.983   8.574  50.171  1.00  0.00     0.170 C 
HETATM   34  C16 UNL     1      25.632   8.332  49.536  1.00  0.00     0.058 C 
ENDBRANCH  28  29
ENDBRANCH   7  28
TORSDOF 6
ENDMDL
MODEL 9
REMARK VINA RESULT:      -7.9      4.883      7.925
REMARK  6 active torsions:
REMARK  status: ('A' for Active; 'I' for Inactive)
REMARK    1  A    between atoms: C4_5  and  N2_6 
REMARK    2  A    between atoms: N2_6  and  C5_7 
REMARK    3  A    between atoms: C5_7  and  C6_8 
REMARK    4  A    between atoms: C7_9  and  C8_11 
REMARK    5  A    between atoms: C11_15  and  O1_16 
REMARK    6  A    between atoms: O1_16  and  C12_17 
ROOT
HETATM    1  C1  UNL     1      24.136   3.163  53.036  1.00  0.00     0.047 C 
HETATM    2  C2  UNL     1      23.887   1.910  52.217  1.00  0.00    -0.044 C 
HETATM    3  C3  UNL     1      22.837   1.893  51.372  1.00  0.00     0.089 C 
HETATM    4  N1  UNL     1      22.005   1.273  50.405  1.00  0.00    -0.367 N 
HETATM    5  C4  UNL     1      20.598   0.952  50.744  1.00  0.00     0.345 C 
HETATM    6  C10 UNL     1      20.471   0.116  51.949  1.00  0.00     0.062 C 
HETATM    7  C11 UNL     1      20.125  -0.656  52.962  1.00  0.00     0.058 C 
HETATM    8  C17 UNL     1      20.920  -1.207  54.133  1.00  0.00     0.160 C 
HETATM    9  C18 UNL     1      22.267  -0.769  53.926  1.00  0.00    -0.077 C 
HETATM   10  C19 UNL     1      23.352  -0.424  53.740  1.00  0.00     0.009 C 
HETATM   11  N3  UNL     1      24.610  -0.045  53.516  1.00  0.00    -0.329 N 
HETATM   12  C20 UNL     1      25.772  -0.502  54.239  1.00  0.00     0.163 C 
HETATM   13  C21 UNL     1      26.924  -0.653  53.254  1.00  0.00     0.290 C 
HETATM   14  N4  UNL     1      27.338   0.627  52.737  1.00  0.00     0.087 N 
HETATM   15  C22 UNL     1      26.241   1.571  52.688  1.00  0.00     0.300 C 
HETATM   16  C23 UNL     1      24.901   0.882  52.476  1.00  0.00     0.151 C 
HETATM   17  H5  UNL     1      22.589   1.140  49.543  1.00  0.00     0.161 HD
HETATM   18  H31 UNL     1      27.676   0.483  51.761  1.00  0.00     0.316 HD
ENDROOT
BRANCH   5  19
HETATM   19  N2  UNL     1      19.943   2.220  50.975  1.00  0.00     0.111 N 
HETATM   20  H7  UNL     1      19.505   2.243  51.926  1.00  0.00     0.319 HD
BRANCH  19  21
HETATM   21  C5  UNL     1      18.971   2.555  49.942  1.00  0.00     0.297 C 
BRANCH  21  22
HETATM   22  C6  UNL     1      17.751   2.941  50.640  1.00  0.00     0.141 A 
HETATM   23  C7  UNL     1      16.644   3.229  51.212  1.00  0.00     0.027 A 
HETATM   24 CL1  UNL     1      16.009   1.997  50.147  1.00  0.00    -0.176 Cl
BRANCH  23  25
HETATM   25  C8  UNL     1      15.561   3.747  52.006  1.00  0.00     0.207 C 
HETATM   26  C9  UNL     1      14.844   2.617  52.739  1.00  0.00     0.051 C 
HETATM   27  F1  UNL     1      16.009   4.682  52.948  1.00  0.00    -0.244 F 
ENDBRANCH  23  25
ENDBRANCH  21  22
ENDBRANCH  19  21
ENDBRANCH   5  19
BRANCH   7  28
HETATM   28  O1  UNL     1      18.815  -0.793  52.608  1.00  0.00    -0.349 OA
BRANCH  28  29
HETATM   29  C12 UNL     1      17.729  -1.208  53.365  1.00  0.00     0.132 C 
HETATM   30  C13 UNL     1      17.782  -2.647  53.801  1.00  0.00     0.058 C 
HETATM   31  C14 UNL     1      16.956  -3.574  52.968  1.00  0.00     0.170 C 
HETATM   32  O2  UNL     1      15.650  -3.066  52.954  1.00  0.00    -0.391 OA
HETATM   33  C15 UNL     1      15.656  -1.960  52.134  1.00  0.00     0.170 C 
HETATM   34  C16 UNL     1      16.448  -0.813  52.721  1.00  0.00     0.058 C 
ENDBRANCH  28  29
ENDBRANCH   7  28
TORSDOF 6
ENDMDL
