MODEL 1
REMARK VINA RESULT:      -9.4      0.000      0.000
REMARK  6 active torsions:
REMARK  status: ('A' for Active; 'I' for Inactive)
REMARK    1  A    between atoms: C2_2  and  N1_3 
REMARK    2  A    between atoms: C8_9  and  C9_10 
REMARK    3  A    between atoms: C9_10  and  N2_11 
REMARK    4  A    between atoms: C13_16  and  N3_17 
REMARK    5  A    between atoms: C17_23  and  N5_24 
REMARK    6  A    between atoms: N5_24  and  C18_25 
ROOT
HETATM    1  N1  UNL     1      21.532   1.600  52.103  1.00  0.00    -0.348 N 
HETATM    2  C3  UNL     1      21.408   0.205  51.568  1.00  0.00     0.168 C 
HETATM    3  C4  UNL     1      21.657  -0.691  52.781  1.00  0.00     0.006 C 
HETATM    4  C5  UNL     1      22.888  -1.295  52.999  1.00  0.00     0.021 C 
HETATM    5  C6  UNL     1      23.360  -0.503  54.144  1.00  0.00    -0.041 C 
HETATM    6  C7  UNL     1      24.190   0.508  53.948  1.00  0.00    -0.011 C 
HETATM    7  C8  UNL     1      24.946   1.264  52.899  1.00  0.00     0.046 C 
HETATM    8  C14 UNL     1      24.229   2.632  52.708  1.00  0.00     0.113 C 
HETATM    9  C15 UNL     1      22.809   2.097  52.392  1.00  0.00     0.220 C 
HETATM   10  O2  UNL     1      23.474   1.150  52.162  1.00  0.00    -0.273 OA
HETATM   11  C16 UNL     1      22.650  -1.246  55.187  1.00  0.00     0.189 C 
HETATM   12  N4  UNL     1      21.308  -1.639  54.699  1.00  0.00    -0.268 NA
HETATM   13  C17 UNL     1      20.701  -0.926  53.843  1.00  0.00     0.131 C 
ENDROOT
BRANCH   7  14
HETATM   14  C9  UNL     1      26.353   1.552  53.429  1.00  0.00     0.284 C 
BRANCH  14  15
HETATM   15  N2  UNL     1      27.386   0.775  52.719  1.00  0.00     0.126 N 
HETATM   16  C10 UNL     1      26.693  -0.424  52.261  1.00  0.00     0.301 C 
HETATM   17  C11 UNL     1      27.133  -1.667  52.945  1.00  0.00     0.198 C 
HETATM   18  O1  UNL     1      28.522  -1.771  52.683  1.00  0.00    -0.385 OA
HETATM   19  C12 UNL     1      29.095  -0.865  53.545  1.00  0.00     0.235 C 
HETATM   20  C13 UNL     1      28.346   0.407  53.757  1.00  0.00     0.474 C 
BRANCH  20  21
HETATM   21  N3  UNL     1      29.353   1.444  53.908  1.00  0.00     0.114 N 
HETATM   22  H20 UNL     1      28.891   2.189  54.501  1.00  0.00     0.315 HD
HETATM   23  H21 UNL     1      30.201   1.086  54.405  1.00  0.00     0.315 HD
ENDBRANCH  20  21
ENDBRANCH  14  15
ENDBRANCH   7  14
BRANCH   1  24
HETATM   24  C2  UNL     1      20.772   2.765  52.416  1.00  0.00     0.121 C 
HETATM   25  C1  UNL     1      19.348   2.707  51.889  1.00  0.00     0.026 C 
ENDBRANCH   1  24
BRANCH  13  26
HETATM   26  N5  UNL     1      19.399  -0.423  53.752  1.00  0.00    -0.341 N 
HETATM   27  H26 UNL     1      19.265   0.595  53.885  1.00  0.00     0.167 HD
BRANCH  26  28
HETATM   28  C18 UNL     1      18.352  -1.322  53.467  1.00  0.00     0.033 A 
HETATM   29  C19 UNL     1      17.379  -0.773  52.656  1.00  0.00     0.030 A 
HETATM   30  C20 UNL     1      16.290  -1.527  52.266  1.00  0.00     0.009 A 
HETATM   31  C21 UNL     1      16.080  -2.830  52.629  1.00  0.00    -0.062 A 
HETATM   32  C22 UNL     1      14.886  -3.542  52.134  1.00  0.00     0.048 C 
HETATM   33  C23 UNL     1      17.055  -3.375  53.441  1.00  0.00     0.009 A 
HETATM   34  C24 UNL     1      18.135  -2.621  53.826  1.00  0.00     0.030 A 
ENDBRANCH  26  28
ENDBRANCH  13  26
TORSDOF 6
ENDMDL
MODEL 2
REMARK VINA RESULT:      -8.9      2.833      9.006
REMARK  6 active torsions:
REMARK  status: ('A' for Active; 'I' for Inactive)
REMARK    1  A    between atoms: C2_2  and  N1_3 
REMARK    2  A    between atoms: C8_9  and  C9_10 
REMARK    3  A    between atoms: C9_10  and  N2_11 
REMARK    4  A    between atoms: C13_16  and  N3_17 
REMARK    5  A    between atoms: C17_23  and  N5_24 
REMARK    6  A    between atoms: N5_24  and  C18_25 
ROOT
HETATM    1  N1  UNL     1      21.012   1.137  51.210  1.00  0.00    -0.348 N 
HETATM    2  C3  UNL     1      21.380   1.884  52.457  1.00  0.00     0.168 C 
HETATM    3  C4  UNL     1      21.708   0.790  53.472  1.00  0.00     0.006 C 
HETATM    4  C5  UNL     1      20.791   0.397  54.439  1.00  0.00     0.021 C 
HETATM    5  C6  UNL     1      20.425  -0.927  53.916  1.00  0.00    -0.041 C 
HETATM    6  C7  UNL     1      19.324  -1.069  53.195  1.00  0.00    -0.011 C 
HETATM    7  C8  UNL     1      18.146  -0.334  52.633  1.00  0.00     0.046 C 
HETATM    8  C14 UNL     1      18.380  -0.192  51.101  1.00  0.00     0.113 C 
HETATM    9  C15 UNL     1      19.764   0.504  51.151  1.00  0.00     0.220 C 
HETATM   10  O2  UNL     1      19.354   0.718  52.236  1.00  0.00    -0.273 OA
HETATM   11  C16 UNL     1      21.554  -1.669  54.480  1.00  0.00     0.189 C 
HETATM   12  N4  UNL     1      22.783  -0.845  54.406  1.00  0.00    -0.268 NA
HETATM   13  C17 UNL     1      22.928   0.011  53.481  1.00  0.00     0.131 C 
ENDROOT
BRANCH   7  14
HETATM   14  C9  UNL     1      16.898  -1.198  52.829  1.00  0.00     0.284 C 
BRANCH  14  15
HETATM   15  N2  UNL     1      15.760  -0.724  52.019  1.00  0.00     0.126 N 
HETATM   16  C10 UNL     1      15.322   0.499  52.683  1.00  0.00     0.301 C 
HETATM   17  C11 UNL     1      13.990   0.384  53.331  1.00  0.00     0.198 C 
HETATM   18  O1  UNL     1      13.092   0.039  52.290  1.00  0.00    -0.385 OA
HETATM   19  C12 UNL     1      13.320  -1.301  52.080  1.00  0.00     0.235 C 
HETATM   20  C13 UNL     1      14.737  -1.753  52.186  1.00  0.00     0.474 C 
BRANCH  20  21
HETATM   21  N3  UNL     1      14.899  -2.798  51.189  1.00  0.00     0.114 N 
HETATM   22  H20 UNL     1      13.958  -3.281  51.145  1.00  0.00     0.315 HD
HETATM   23  H21 UNL     1      15.125  -2.399  50.248  1.00  0.00     0.315 HD
ENDBRANCH  20  21
ENDBRANCH  14  15
ENDBRANCH   7  14
BRANCH   1  24
HETATM   24  C2  UNL     1      21.470   0.833  49.894  1.00  0.00     0.121 C 
HETATM   25  C1  UNL     1      20.795   1.669  48.820  1.00  0.00     0.026 C 
ENDBRANCH   1  24
BRANCH  13  26
HETATM   26  N5  UNL     1      23.970   0.313  52.598  1.00  0.00    -0.341 N 
HETATM   27  H26 UNL     1      23.719   0.611  51.639  1.00  0.00     0.167 HD
BRANCH  26  28
HETATM   28  C18 UNL     1      25.296   0.212  53.066  1.00  0.00     0.033 A 
HETATM   29  C19 UNL     1      25.994  -0.825  52.480  1.00  0.00     0.030 A 
HETATM   30  C20 UNL     1      27.314  -1.052  52.814  1.00  0.00     0.009 A 
HETATM   31  C21 UNL     1      28.025  -0.307  53.715  1.00  0.00    -0.062 A 
HETATM   32  C22 UNL     1      29.440  -0.632  53.978  1.00  0.00     0.048 C 
HETATM   33  C23 UNL     1      27.323   0.730  54.300  1.00  0.00     0.009 A 
HETATM   34  C24 UNL     1      26.010   0.950  53.965  1.00  0.00     0.030 A 
ENDBRANCH  26  28
ENDBRANCH  13  26
TORSDOF 6
ENDMDL
MODEL 3
REMARK VINA RESULT:      -8.9      1.498      1.846
REMARK  6 active torsions:
REMARK  status: ('A' for Active; 'I' for Inactive)
REMARK    1  A    between atoms: C2_2  and  N1_3 
REMARK    2  A    between atoms: C8_9  and  C9_10 
REMARK    3  A    between atoms: C9_10  and  N2_11 
REMARK    4  A    between atoms: C13_16  and  N3_17 
REMARK    5  A    between atoms: C17_23  and  N5_24 
REMARK    6  A    between atoms: N5_24  and  C18_25 
ROOT
HETATM    1  N1  UNL     1      21.789   2.205  50.431  1.00  0.00    -0.348 N 
HETATM    2  C3  UNL     1      21.551   0.741  50.214  1.00  0.00     0.168 C 
HETATM    3  C4  UNL     1      21.276   0.189  51.613  1.00  0.00     0.006 C 
HETATM    4  C5  UNL     1      22.258  -0.470  52.341  1.00  0.00     0.021 C 
HETATM    5  C6  UNL     1      22.538   0.545  53.366  1.00  0.00    -0.041 C 
HETATM    6  C7  UNL     1      23.569   1.362  53.220  1.00  0.00    -0.011 C 
HETATM    7  C8  UNL     1      24.718   1.708  52.323  1.00  0.00     0.046 C 
HETATM    8  C14 UNL     1      24.360   3.045  51.611  1.00  0.00     0.113 C 
HETATM    9  C15 UNL     1      23.007   2.611  50.990  1.00  0.00     0.220 C 
HETATM   10  O2  UNL     1      23.514   1.567  51.203  1.00  0.00    -0.273 OA
HETATM   11  C16 UNL     1      21.438   0.204  54.270  1.00  0.00     0.189 C 
HETATM   12  N4  UNL     1      20.233  -0.150  53.483  1.00  0.00    -0.268 NA
HETATM   13  C17 UNL     1      20.037   0.365  52.340  1.00  0.00     0.131 C 
ENDROOT
BRANCH   7  14
HETATM   14  C9  UNL     1      25.950   1.967  53.193  1.00  0.00     0.284 C 
BRANCH  14  15
HETATM   15  N2  UNL     1      27.162   1.326  52.647  1.00  0.00     0.126 N 
HETATM   16  C10 UNL     1      26.743  -0.034  52.325  1.00  0.00     0.301 C 
HETATM   17  C11 UNL     1      27.358  -1.071  53.192  1.00  0.00     0.198 C 
HETATM   18  O1  UNL     1      28.757  -0.931  53.015  1.00  0.00    -0.385 OA
HETATM   19  C12 UNL     1      29.083   0.171  53.772  1.00  0.00     0.235 C 
HETATM   20  C13 UNL     1      28.094   1.287  53.771  1.00  0.00     0.474 C 
BRANCH  20  21
HETATM   21  N3  UNL     1      28.874   2.512  53.828  1.00  0.00     0.114 N 
HETATM   22  H20 UNL     1      28.188   3.257  54.136  1.00  0.00     0.315 HD
HETATM   23  H21 UNL     1      29.646   2.443  54.530  1.00  0.00     0.315 HD
ENDBRANCH  20  21
ENDBRANCH  14  15
ENDBRANCH   7  14
BRANCH   1  24
HETATM   24  C2  UNL     1      21.212   3.491  50.215  1.00  0.00     0.121 C 
HETATM   25  C1  UNL     1      20.772   4.170  51.501  1.00  0.00     0.026 C 
ENDBRANCH   1  24
BRANCH  13  26
HETATM   26  N5  UNL     1      18.934   0.971  51.729  1.00  0.00    -0.341 N 
HETATM   27  H26 UNL     1      19.006   1.977  51.492  1.00  0.00     0.167 HD
BRANCH  26  28
HETATM   28  C18 UNL     1      17.801   0.179  51.457  1.00  0.00     0.033 A 
HETATM   29  C19 UNL     1      17.446   0.191  50.123  1.00  0.00     0.030 A 
HETATM   30  C20 UNL     1      16.367  -0.548  49.683  1.00  0.00     0.009 A 
HETATM   31  C21 UNL     1      15.582  -1.329  50.487  1.00  0.00    -0.062 A 
HETATM   32  C22 UNL     1      14.464  -2.092  49.899  1.00  0.00     0.048 C 
HETATM   33  C23 UNL     1      15.940  -1.338  51.822  1.00  0.00     0.009 A 
HETATM   34  C24 UNL     1      17.013  -0.600  52.254  1.00  0.00     0.030 A 
ENDBRANCH  26  28
ENDBRANCH  13  26
TORSDOF 6
ENDMDL
MODEL 4
REMARK VINA RESULT:      -8.6      3.946      8.630
REMARK  6 active torsions:
REMARK  status: ('A' for Active; 'I' for Inactive)
REMARK    1  A    between atoms: C2_2  and  N1_3 
REMARK    2  A    between atoms: C8_9  and  C9_10 
REMARK    3  A    between atoms: C9_10  and  N2_11 
REMARK    4  A    between atoms: C13_16  and  N3_17 
REMARK    5  A    between atoms: C17_23  and  N5_24 
REMARK    6  A    between atoms: N5_24  and  C18_25 
ROOT
HETATM    1  N1  UNL     1      24.511   4.383  50.630  1.00  0.00    -0.348 N 
HETATM    2  C3  UNL     1      23.813   4.648  51.931  1.00  0.00     0.168 C 
HETATM    3  C4  UNL     1      23.418   3.262  52.439  1.00  0.00     0.006 C 
HETATM    4  C5  UNL     1      22.127   2.772  52.287  1.00  0.00     0.021 C 
HETATM    5  C6  UNL     1      22.363   1.752  51.255  1.00  0.00    -0.041 C 
HETATM    6  C7  UNL     1      22.121   2.032  49.985  1.00  0.00    -0.011 C 
HETATM    7  C8  UNL     1      21.633   3.101  49.055  1.00  0.00     0.046 C 
HETATM    8  C14 UNL     1      22.873   3.646  48.289  1.00  0.00     0.113 C 
HETATM    9  C15 UNL     1      23.740   4.033  49.514  1.00  0.00     0.220 C 
HETATM   10  O2  UNL     1      22.663   3.987  49.993  1.00  0.00    -0.273 OA
HETATM   11  C16 UNL     1      22.816   0.685  52.149  1.00  0.00     0.189 C 
HETATM   12  N4  UNL     1      23.651   1.257  53.231  1.00  0.00    -0.268 NA
HETATM   13  C17 UNL     1      24.333   2.308  53.030  1.00  0.00     0.131 C 
ENDROOT
BRANCH   7  14
HETATM   14  C9  UNL     1      20.702   2.459  48.024  1.00  0.00     0.284 C 
BRANCH  14  15
HETATM   15  N2  UNL     1      19.318   2.957  48.138  1.00  0.00     0.126 N 
HETATM   16  C10 UNL     1      19.454   4.408  48.185  1.00  0.00     0.301 C 
HETATM   17  C11 UNL     1      19.098   5.000  49.500  1.00  0.00     0.198 C 
HETATM   18  O1  UNL     1      17.752   4.623  49.733  1.00  0.00    -0.385 OA
HETATM   19  C12 UNL     1      17.836   3.308  50.130  1.00  0.00     0.235 C 
HETATM   20  C13 UNL     1      18.862   2.475  49.440  1.00  0.00     0.474 C 
BRANCH  20  21
HETATM   21  N3  UNL     1      18.281   1.148  49.316  1.00  0.00     0.114 N 
HETATM   22  H20 UNL     1      18.886   0.652  48.602  1.00  0.00     0.315 HD
HETATM   23  H21 UNL     1      18.320   0.626  50.222  1.00  0.00     0.315 HD
ENDBRANCH  20  21
ENDBRANCH  14  15
ENDBRANCH   7  14
BRANCH   1  24
HETATM   24  C2  UNL     1      25.793   4.405  50.007  1.00  0.00     0.121 C 
HETATM   25  C1  UNL     1      26.368   3.017  49.779  1.00  0.00     0.026 C 
ENDBRANCH   1  24
BRANCH  13  26
HETATM   26  N5  UNL     1      25.660   2.664  53.291  1.00  0.00    -0.341 N 
HETATM   27  H26 UNL     1      25.863   3.661  53.486  1.00  0.00     0.167 HD
BRANCH  26  28
HETATM   28  C18 UNL     1      26.638   1.649  53.291  1.00  0.00     0.033 A 
HETATM   29  C19 UNL     1      27.854   2.077  53.785  1.00  0.00     0.030 A 
HETATM   30  C20 UNL     1      28.918   1.201  53.871  1.00  0.00     0.009 A 
HETATM   31  C21 UNL     1      28.872  -0.114  53.494  1.00  0.00    -0.062 A 
HETATM   32  C22 UNL     1      30.069  -0.962  53.651  1.00  0.00     0.048 C 
HETATM   33  C23 UNL     1      27.653  -0.538  53.000  1.00  0.00     0.009 A 
HETATM   34  C24 UNL     1      26.599   0.338  52.916  1.00  0.00     0.030 A 
ENDBRANCH  26  28
ENDBRANCH  13  26
TORSDOF 6
ENDMDL
MODEL 5
REMARK VINA RESULT:      -8.5      3.569      6.228
REMARK  6 active torsions:
REMARK  status: ('A' for Active; 'I' for Inactive)
REMARK    1  A    between atoms: C2_2  and  N1_3 
REMARK    2  A    between atoms: C8_9  and  C9_10 
REMARK    3  A    between atoms: C9_10  and  N2_11 
REMARK    4  A    between atoms: C13_16  and  N3_17 
REMARK    5  A    between atoms: C17_23  and  N5_24 
REMARK    6  A    between atoms: N5_24  and  C18_25 
ROOT
HETATM    1  N1  UNL     1      21.807   1.338  51.858  1.00  0.00    -0.348 N 
HETATM    2  C3  UNL     1      21.854   2.817  52.103  1.00  0.00     0.168 C 
HETATM    3  C4  UNL     1      23.069   3.295  51.310  1.00  0.00     0.006 C 
HETATM    4  C5  UNL     1      24.289   3.542  51.927  1.00  0.00     0.021 C 
HETATM    5  C6  UNL     1      25.064   2.400  51.420  1.00  0.00    -0.041 C 
HETATM    6  C7  UNL     1      25.207   1.317  52.168  1.00  0.00    -0.011 C 
HETATM    7  C8  UNL     1      24.862   0.711  53.494  1.00  0.00     0.046 C 
HETATM    8  C14 UNL     1      23.776  -0.373  53.236  1.00  0.00     0.113 C 
HETATM    9  C15 UNL     1      22.738   0.520  52.509  1.00  0.00     0.220 C 
HETATM   10  O2  UNL     1      23.390   1.327  53.070  1.00  0.00    -0.273 OA
HETATM   11  C16 UNL     1      25.435   2.985  50.131  1.00  0.00     0.189 C 
HETATM   12  N4  UNL     1      24.301   3.771  49.591  1.00  0.00    -0.268 NA
HETATM   13  C17 UNL     1      23.106   3.452  49.872  1.00  0.00     0.131 C 
ENDROOT
BRANCH   7  14
HETATM   14  C9  UNL     1      26.102  -0.001  54.038  1.00  0.00     0.284 C 
BRANCH  14  15
HETATM   15  N2  UNL     1      27.318   0.337  53.274  1.00  0.00     0.126 N 
HETATM   16  C10 UNL     1      27.965  -0.948  53.027  1.00  0.00     0.301 C 
HETATM   17  C11 UNL     1      29.244  -1.124  53.761  1.00  0.00     0.198 C 
HETATM   18  O1  UNL     1      30.077  -0.062  53.329  1.00  0.00    -0.385 OA
HETATM   19  C12 UNL     1      29.610   1.033  54.018  1.00  0.00     0.235 C 
HETATM   20  C13 UNL     1      28.133   1.112  54.206  1.00  0.00     0.474 C 
BRANCH  20  21
HETATM   21  N3  UNL     1      27.794   2.523  54.125  1.00  0.00     0.114 N 
HETATM   22  H20 UNL     1      28.619   2.973  53.637  1.00  0.00     0.315 HD
HETATM   23  H21 UNL     1      26.931   2.678  53.555  1.00  0.00     0.315 HD
ENDBRANCH  20  21
ENDBRANCH  14  15
ENDBRANCH   7  14
BRANCH   1  24
HETATM   24  C2  UNL     1      21.063   0.325  51.183  1.00  0.00     0.121 C 
HETATM   25  C1  UNL     1      19.623   0.227  51.658  1.00  0.00     0.026 C 
ENDBRANCH   1  24
BRANCH  13  26
HETATM   26  N5  UNL     1      21.946   3.283  49.108  1.00  0.00    -0.341 N 
HETATM   27  H26 UNL     1      21.164   2.749  49.529  1.00  0.00     0.167 HD
BRANCH  26  28
HETATM   28  C18 UNL     1      21.899   3.860  47.824  1.00  0.00     0.033 A 
HETATM   29  C19 UNL     1      21.893   5.241  47.856  1.00  0.00     0.030 A 
HETATM   30  C20 UNL     1      21.868   5.964  46.681  1.00  0.00     0.009 A 
HETATM   31  C21 UNL     1      21.849   5.411  45.429  1.00  0.00    -0.062 A 
HETATM   32  C22 UNL     1      21.842   6.287  44.242  1.00  0.00     0.048 C 
HETATM   33  C23 UNL     1      21.854   4.029  45.401  1.00  0.00     0.009 A 
HETATM   34  C24 UNL     1      21.879   3.315  46.573  1.00  0.00     0.030 A 
ENDBRANCH  26  28
ENDBRANCH  13  26
TORSDOF 6
ENDMDL
MODEL 6
REMARK VINA RESULT:      -8.4      2.905      8.884
REMARK  6 active torsions:
REMARK  status: ('A' for Active; 'I' for Inactive)
REMARK    1  A    between atoms: C2_2  and  N1_3 
REMARK    2  A    between atoms: C8_9  and  C9_10 
REMARK    3  A    between atoms: C9_10  and  N2_11 
REMARK    4  A    between atoms: C13_16  and  N3_17 
REMARK    5  A    between atoms: C17_23  and  N5_24 
REMARK    6  A    between atoms: N5_24  and  C18_25 
ROOT
HETATM    1  N1  UNL     1      22.327   2.419  50.697  1.00  0.00    -0.348 N 
HETATM    2  C3  UNL     1      22.487   2.816  52.134  1.00  0.00     0.168 C 
HETATM    3  C4  UNL     1      22.617   1.489  52.882  1.00  0.00     0.006 C 
HETATM    4  C5  UNL     1      21.542   0.925  53.556  1.00  0.00     0.021 C 
HETATM    5  C6  UNL     1      21.251  -0.207  52.665  1.00  0.00    -0.041 C 
HETATM    6  C7  UNL     1      20.289  -0.104  51.762  1.00  0.00    -0.011 C 
HETATM    7  C8  UNL     1      19.237   0.813  51.218  1.00  0.00     0.046 C 
HETATM    8  C14 UNL     1      19.734   1.311  49.830  1.00  0.00     0.113 C 
HETATM    9  C15 UNL     1      21.099   1.893  50.278  1.00  0.00     0.220 C 
HETATM   10  O2  UNL     1      20.511   1.858  51.300  1.00  0.00    -0.273 OA
HETATM   11  C16 UNL     1      22.254  -1.128  53.201  1.00  0.00     0.189 C 
HETATM   12  N4  UNL     1      23.490  -0.384  53.538  1.00  0.00    -0.268 NA
HETATM   13  C17 UNL     1      23.806   0.663  52.894  1.00  0.00     0.131 C 
ENDROOT
BRANCH   7  14
HETATM   14  C9  UNL     1      17.961   0.001  50.984  1.00  0.00     0.284 C 
BRANCH  14  15
HETATM   15  N2  UNL     1      16.910   0.794  50.317  1.00  0.00     0.126 N 
HETATM   16  C10 UNL     1      16.324   1.596  51.385  1.00  0.00     0.301 C 
HETATM   17  C11 UNL     1      14.929   1.214  51.724  1.00  0.00     0.198 C 
HETATM   18  O1  UNL     1      14.191   1.375  50.524  1.00  0.00    -0.385 OA
HETATM   19  C12 UNL     1      14.518   0.266  49.778  1.00  0.00     0.235 C 
HETATM   20  C13 UNL     1      15.933  -0.195  49.869  1.00  0.00     0.474 C 
BRANCH  20  21
HETATM   21  N3  UNL     1      16.279  -0.688  48.546  1.00  0.00     0.114 N 
HETATM   22  H20 UNL     1      15.526  -0.305  47.908  1.00  0.00     0.315 HD
HETATM   23  H21 UNL     1      17.211  -0.329  48.234  1.00  0.00     0.315 HD
ENDBRANCH  20  21
ENDBRANCH  14  15
ENDBRANCH   7  14
BRANCH   1  24
HETATM   24  C2  UNL     1      23.001   2.420  49.440  1.00  0.00     0.121 C 
HETATM   25  C1  UNL     1      24.246   3.291  49.433  1.00  0.00     0.026 C 
ENDBRANCH   1  24
BRANCH  13  26
HETATM   26  N5  UNL     1      24.989   1.111  52.298  1.00  0.00    -0.341 N 
HETATM   27  H26 UNL     1      24.933   1.934  51.672  1.00  0.00     0.167 HD
BRANCH  26  28
HETATM   28  C18 UNL     1      26.188   0.431  52.594  1.00  0.00     0.033 A 
HETATM   29  C19 UNL     1      27.162   1.262  53.109  1.00  0.00     0.030 A 
HETATM   30  C20 UNL     1      28.393   0.751  53.470  1.00  0.00     0.009 A 
HETATM   31  C21 UNL     1      28.749  -0.565  53.359  1.00  0.00    -0.062 A 
HETATM   32  C22 UNL     1      30.090  -0.999  53.796  1.00  0.00     0.048 C 
HETATM   33  C23 UNL     1      27.771  -1.393  52.842  1.00  0.00     0.009 A 
HETATM   34  C24 UNL     1      26.550  -0.880  52.484  1.00  0.00     0.030 A 
ENDBRANCH  26  28
ENDBRANCH  13  26
TORSDOF 6
ENDMDL
MODEL 7
REMARK VINA RESULT:      -8.4      2.482      3.409
REMARK  6 active torsions:
REMARK  status: ('A' for Active; 'I' for Inactive)
REMARK    1  A    between atoms: C2_2  and  N1_3 
REMARK    2  A    between atoms: C8_9  and  C9_10 
REMARK    3  A    between atoms: C9_10  and  N2_11 
REMARK    4  A    between atoms: C13_16  and  N3_17 
REMARK    5  A    between atoms: C17_23  and  N5_24 
REMARK    6  A    between atoms: N5_24  and  C18_25 
ROOT
HETATM    1  N1  UNL     1      22.201   2.655  49.839  1.00  0.00    -0.348 N 
HETATM    2  C3  UNL     1      21.734   1.251  49.598  1.00  0.00     0.168 C 
HETATM    3  C4  UNL     1      21.148   0.809  50.938  1.00  0.00     0.006 C 
HETATM    4  C5  UNL     1      21.867   0.011  51.818  1.00  0.00     0.021 C 
HETATM    5  C6  UNL     1      22.165   0.996  52.868  1.00  0.00    -0.041 C 
HETATM    6  C7  UNL     1      23.338   1.608  52.883  1.00  0.00    -0.011 C 
HETATM    7  C8  UNL     1      24.656   1.709  52.179  1.00  0.00     0.046 C 
HETATM    8  C14 UNL     1      24.665   3.061  51.409  1.00  0.00     0.113 C 
HETATM    9  C15 UNL     1      23.370   2.856  50.583  1.00  0.00     0.220 C 
HETATM   10  O2  UNL     1      23.637   1.746  50.882  1.00  0.00    -0.273 OA
HETATM   11  C16 UNL     1      20.893   0.892  53.586  1.00  0.00     0.189 C 
HETATM   12  N4  UNL     1      19.782   0.732  52.620  1.00  0.00    -0.268 NA
HETATM   13  C17 UNL     1      19.865   1.232  51.457  1.00  0.00     0.131 C 
ENDROOT
BRANCH   7  14
HETATM   14  C9  UNL     1      25.765   1.773  53.233  1.00  0.00     0.284 C 
BRANCH  14  15
HETATM   15  N2  UNL     1      27.038   1.218  52.736  1.00  0.00     0.126 N 
HETATM   16  C10 UNL     1      26.683  -0.092  52.201  1.00  0.00     0.301 C 
HETATM   17  C11 UNL     1      27.230  -1.227  52.988  1.00  0.00     0.198 C 
HETATM   18  O1  UNL     1      28.636  -1.054  52.974  1.00  0.00    -0.385 OA
HETATM   19  C12 UNL     1      28.860  -0.057  53.895  1.00  0.00     0.235 C 
HETATM   20  C13 UNL     1      27.853   1.041  53.936  1.00  0.00     0.474 C 
BRANCH  20  21
HETATM   21  N3  UNL     1      28.597   2.255  54.229  1.00  0.00     0.114 N 
HETATM   22  H20 UNL     1      27.858   2.978  54.460  1.00  0.00     0.315 HD
HETATM   23  H21 UNL     1      29.226   2.130  55.055  1.00  0.00     0.315 HD
ENDBRANCH  20  21
ENDBRANCH  14  15
ENDBRANCH   7  14
BRANCH   1  24
HETATM   24  C2  UNL     1      21.910   4.015  49.524  1.00  0.00     0.121 C 
HETATM   25  C1  UNL     1      22.826   4.588  48.455  1.00  0.00     0.026 C 
ENDBRANCH   1  24
BRANCH  13  26
HETATM   26  N5  UNL     1      19.001   2.004  50.673  1.00  0.00    -0.341 N 
HETATM   27  H26 UNL     1      19.332   2.300  49.737  1.00  0.00     0.167 HD
BRANCH  26  28
HETATM   28  C18 UNL     1      17.728   2.318  51.190  1.00  0.00     0.033 A 
HETATM   29  C19 UNL     1      17.579   3.663  51.467  1.00  0.00     0.030 A 
HETATM   30  C20 UNL     1      16.384   4.143  51.963  1.00  0.00     0.009 A 
HETATM   31  C21 UNL     1      15.283   3.371  52.216  1.00  0.00    -0.062 A 
HETATM   32  C22 UNL     1      14.051   4.000  52.729  1.00  0.00     0.048 C 
HETATM   33  C23 UNL     1      15.436   2.026  51.938  1.00  0.00     0.009 A 
HETATM   34  C24 UNL     1      16.627   1.554  51.445  1.00  0.00     0.030 A 
ENDBRANCH  26  28
ENDBRANCH  13  26
TORSDOF 6
ENDMDL
MODEL 8
REMARK VINA RESULT:      -8.2      3.335      8.440
REMARK  6 active torsions:
REMARK  status: ('A' for Active; 'I' for Inactive)
REMARK    1  A    between atoms: C2_2  and  N1_3 
REMARK    2  A    between atoms: C8_9  and  C9_10 
REMARK    3  A    between atoms: C9_10  and  N2_11 
REMARK    4  A    between atoms: C13_16  and  N3_17 
REMARK    5  A    between atoms: C17_23  and  N5_24 
REMARK    6  A    between atoms: N5_24  and  C18_25 
ROOT
HETATM    1  N1  UNL     1      21.214   0.578  52.734  1.00  0.00    -0.348 N 
HETATM    2  C3  UNL     1      22.134   0.082  51.659  1.00  0.00     0.168 C 
HETATM    3  C4  UNL     1      23.108   1.237  51.429  1.00  0.00     0.006 C 
HETATM    4  C5  UNL     1      22.958   2.114  50.363  1.00  0.00     0.021 C 
HETATM    5  C6  UNL     1      22.520   3.317  51.085  1.00  0.00    -0.041 C 
HETATM    6  C7  UNL     1      21.232   3.608  51.160  1.00  0.00    -0.011 C 
HETATM    7  C8  UNL     1      19.865   3.154  50.746  1.00  0.00     0.046 C 
HETATM    8  C14 UNL     1      19.168   2.578  52.013  1.00  0.00     0.113 C 
HETATM    9  C15 UNL     1      20.240   1.527  52.399  1.00  0.00     0.220 C 
HETATM   10  O2  UNL     1      20.498   1.720  51.264  1.00  0.00    -0.273 OA
HETATM   11  C16 UNL     1      23.849   3.793  51.476  1.00  0.00     0.189 C 
HETATM   12  N4  UNL     1      24.709   2.641  51.835  1.00  0.00    -0.268 NA
HETATM   13  C17 UNL     1      24.199   1.583  52.315  1.00  0.00     0.131 C 
ENDROOT
BRANCH   7  14
HETATM   14  C9  UNL     1      19.064   4.378  50.297  1.00  0.00     0.284 C 
BRANCH  14  15
HETATM   15  N2  UNL     1      18.659   4.289  48.881  1.00  0.00     0.126 N 
HETATM   16  C10 UNL     1      19.374   3.125  48.368  1.00  0.00     0.301 C 
HETATM   17  C11 UNL     1      20.434   3.460  47.383  1.00  0.00     0.198 C 
HETATM   18  O1  UNL     1      19.771   4.136  46.329  1.00  0.00    -0.385 OA
HETATM   19  C12 UNL     1      19.560   5.402  46.822  1.00  0.00     0.235 C 
HETATM   20  C13 UNL     1      19.208   5.496  48.268  1.00  0.00     0.474 C 
BRANCH  20  21
HETATM   21  N3  UNL     1      18.263   6.596  48.378  1.00  0.00     0.114 N 
HETATM   22  H20 UNL     1      17.610   6.317  49.163  1.00  0.00     0.315 HD
HETATM   23  H21 UNL     1      18.744   7.490  48.631  1.00  0.00     0.315 HD
ENDBRANCH  20  21
ENDBRANCH  14  15
ENDBRANCH   7  14
BRANCH   1  24
HETATM   24  C2  UNL     1      20.875   0.398  54.108  1.00  0.00     0.121 C 
HETATM   25  C1  UNL     1      21.494  -0.851  54.714  1.00  0.00     0.026 C 
ENDBRANCH   1  24
BRANCH  13  26
HETATM   26  N5  UNL     1      24.510   0.772  53.412  1.00  0.00    -0.341 N 
HETATM   27  H26 UNL     1      23.730   0.464  54.020  1.00  0.00     0.167 HD
BRANCH  26  28
HETATM   28  C18 UNL     1      25.856   0.408  53.616  1.00  0.00     0.033 A 
HETATM   29  C19 UNL     1      26.298  -0.540  52.715  1.00  0.00     0.030 A 
HETATM   30  C20 UNL     1      27.600  -0.994  52.765  1.00  0.00     0.009 A 
HETATM   31  C21 UNL     1      28.536  -0.568  53.668  1.00  0.00    -0.062 A 
HETATM   32  C22 UNL     1      29.906  -1.112  53.613  1.00  0.00     0.048 C 
HETATM   33  C23 UNL     1      28.090   0.380  54.569  1.00  0.00     0.009 A 
HETATM   34  C24 UNL     1      26.793   0.828  54.515  1.00  0.00     0.030 A 
ENDBRANCH  26  28
ENDBRANCH  13  26
TORSDOF 6
ENDMDL
MODEL 9
REMARK VINA RESULT:      -8.0      3.162      8.956
REMARK  6 active torsions:
REMARK  status: ('A' for Active; 'I' for Inactive)
REMARK    1  A    between atoms: C2_2  and  N1_3 
REMARK    2  A    between atoms: C8_9  and  C9_10 
REMARK    3  A    between atoms: C9_10  and  N2_11 
REMARK    4  A    between atoms: C13_16  and  N3_17 
REMARK    5  A    between atoms: C17_23  and  N5_24 
REMARK    6  A    between atoms: N5_24  and  C18_25 
ROOT
HETATM    1  N1  UNL     1      21.502   0.309  52.927  1.00  0.00    -0.348 N 
HETATM    2  C3  UNL     1      22.535   0.168  51.849  1.00  0.00     0.168 C 
HETATM    3  C4  UNL     1      23.228   1.529  51.805  1.00  0.00     0.006 C 
HETATM    4  C5  UNL     1      22.908   2.478  50.843  1.00  0.00     0.021 C 
HETATM    5  C6  UNL     1      22.192   3.454  51.677  1.00  0.00    -0.041 C 
HETATM    6  C7  UNL     1      20.870   3.440  51.719  1.00  0.00    -0.011 C 
HETATM    7  C8  UNL     1      19.652   2.749  51.187  1.00  0.00     0.046 C 
HETATM    8  C14 UNL     1      19.074   1.880  52.340  1.00  0.00     0.113 C 
HETATM    9  C15 UNL     1      20.346   1.053  52.656  1.00  0.00     0.220 C 
HETATM   10  O2  UNL     1      20.580   1.438  51.565  1.00  0.00    -0.273 OA
HETATM   11  C16 UNL     1      23.369   4.160  52.187  1.00  0.00     0.189 C 
HETATM   12  N4  UNL     1      24.459   3.192  52.452  1.00  0.00    -0.268 NA
HETATM   13  C17 UNL     1      24.191   1.996  52.780  1.00  0.00     0.131 C 
ENDROOT
BRANCH   7  14
HETATM   14  C9  UNL     1      18.605   3.811  50.843  1.00  0.00     0.284 C 
BRANCH  14  15
HETATM   15  N2  UNL     1      17.273   3.223  50.603  1.00  0.00     0.126 N 
HETATM   16  C10 UNL     1      17.230   2.988  49.164  1.00  0.00     0.301 C 
HETATM   17  C11 UNL     1      16.270   3.863  48.443  1.00  0.00     0.198 C 
HETATM   18  O1  UNL     1      15.005   3.596  49.024  1.00  0.00    -0.385 OA
HETATM   19  C12 UNL     1      15.033   4.282  50.217  1.00  0.00     0.235 C 
HETATM   20  C13 UNL     1      16.335   4.290  50.943  1.00  0.00     0.474 C 
BRANCH  20  21
HETATM   21  N3  UNL     1      16.004   4.245  52.358  1.00  0.00     0.114 N 
HETATM   22  H20 UNL     1      16.746   4.836  52.829  1.00  0.00     0.315 HD
HETATM   23  H21 UNL     1      15.062   4.660  52.545  1.00  0.00     0.315 HD
ENDBRANCH  20  21
ENDBRANCH  14  15
ENDBRANCH   7  14
BRANCH   1  24
HETATM   24  C2  UNL     1      21.181  -0.112  54.251  1.00  0.00     0.121 C 
HETATM   25  C1  UNL     1      21.549  -1.562  54.519  1.00  0.00     0.026 C 
ENDBRANCH   1  24
BRANCH  13  26
HETATM   26  N5  UNL     1      24.652   1.143  53.789  1.00  0.00    -0.341 N 
HETATM   27  H26 UNL     1      24.064   1.034  54.634  1.00  0.00     0.167 HD
BRANCH  26  28
HETATM   28  C18 UNL     1      25.874   0.471  53.592  1.00  0.00     0.033 A 
HETATM   29  C19 UNL     1      26.843   0.841  54.503  1.00  0.00     0.030 A 
HETATM   30  C20 UNL     1      28.096   0.262  54.462  1.00  0.00     0.009 A 
HETATM   31  C21 UNL     1      28.480  -0.690  53.557  1.00  0.00    -0.062 A 
HETATM   32  C22 UNL     1      29.843  -1.251  53.622  1.00  0.00     0.048 C 
HETATM   33  C23 UNL     1      27.508  -1.057  52.646  1.00  0.00     0.009 A 
HETATM   34  C24 UNL     1      26.265  -0.478  52.691  1.00  0.00     0.030 A 
ENDBRANCH  26  28
ENDBRANCH  13  26
TORSDOF 6
ENDMDL
