MODEL 1
REMARK VINA RESULT:      -9.3      0.000      0.000
REMARK  2 active torsions:
REMARK  status: ('A' for Active; 'I' for Inactive)
REMARK    1  A    between atoms: C7_9  and  N2_10 
REMARK    2  A    between atoms: N2_10  and  C8_11 
ROOT
HETATM    1  O1  UNL     1      16.310  -1.474  52.856  1.00  0.00     0.000 OA
HETATM    2  C1  UNL     1      17.451  -0.917  52.424  1.00  0.00    -0.044 A 
HETATM    3  C2  UNL     1      17.761  -1.673  53.510  1.00  0.00     0.056 A 
HETATM    4  C3  UNL     1      19.129  -1.751  53.962  1.00  0.00     0.298 C 
HETATM    5  N1  UNL     1      20.276  -1.369  53.709  1.00  0.00    -0.438 NA
HETATM    6  C4  UNL     1      21.469  -1.667  54.418  1.00  0.00     0.131 C 
HETATM    7  C5  UNL     1      22.612  -0.895  53.980  1.00  0.00     0.010 C 
HETATM    8  C6  UNL     1      22.797  -0.037  52.972  1.00  0.00     0.048 A 
HETATM    9  C7  UNL     1      24.156   0.340  53.153  1.00  0.00     0.143 A 
HETATM   10  N3  UNL     1      24.704   1.221  52.316  1.00  0.00    -0.212 NA
HETATM   11  C14 UNL     1      24.072   1.783  51.317  1.00  0.00     0.301 A 
HETATM   12  N4  UNL     1      23.052   1.105  51.679  1.00  0.00    -0.398 NA
HETATM   13  C15 UNL     1      22.042   0.489  51.967  1.00  0.00     0.122 A 
HETATM   14  C16 UNL     1      20.893   0.637  51.373  1.00  0.00     0.045 C 
HETATM   15  C17 UNL     1      19.552   0.210  51.539  1.00  0.00     0.004 C 
HETATM   16  C18 UNL     1      18.348  -0.138  51.638  1.00  0.00     0.008 C 
HETATM   17  H1  UNL     1      15.400  -1.420  52.428  1.00  0.00     0.000 HD
ENDROOT
BRANCH   9  18
HETATM   18  N2  UNL     1      25.086  -0.094  54.205  1.00  0.00    -0.340 N 
HETATM   19  H7  UNL     1      25.062  -0.357  55.207  1.00  0.00     0.167 HD
BRANCH  18  20
HETATM   20  C8  UNL     1      26.477  -0.259  53.915  1.00  0.00     0.035 A 
HETATM   21  C9  UNL     1      26.989  -1.357  53.216  1.00  0.00     0.029 A 
HETATM   22  C10 UNL     1      28.373  -1.364  52.994  1.00  0.00     0.004 A 
HETATM   23  C11 UNL     1      29.200  -0.361  53.431  1.00  0.00     0.024 A 
HETATM   24  C12 UNL     1      28.711   0.734  54.127  1.00  0.00     0.036 A 
HETATM   25 CL1  UNL     1      29.653   2.065  54.733  1.00  0.00    -0.084 Cl
HETATM   26  C13 UNL     1      27.326   0.736  54.344  1.00  0.00     0.053 A 
ENDBRANCH  18  20
ENDBRANCH   9  18
TORSDOF 2
ENDMDL
MODEL 2
REMARK VINA RESULT:      -9.1      1.434      2.757
REMARK  2 active torsions:
REMARK  status: ('A' for Active; 'I' for Inactive)
REMARK    1  A    between atoms: C7_9  and  N2_10 
REMARK    2  A    between atoms: N2_10  and  C8_11 
ROOT
HETATM    1  O1  UNL     1      16.633  -0.745  51.606  1.00  0.00     0.000 OA
HETATM    2  C1  UNL     1      17.734  -0.879  52.360  1.00  0.00    -0.044 A 
HETATM    3  C2  UNL     1      18.079  -0.132  51.277  1.00  0.00     0.056 A 
HETATM    4  C3  UNL     1      19.431   0.352  51.142  1.00  0.00     0.298 C 
HETATM    5  N1  UNL     1      20.532   0.374  51.700  1.00  0.00    -0.438 NA
HETATM    6  C4  UNL     1      21.726   0.994  51.246  1.00  0.00     0.131 C 
HETATM    7  C5  UNL     1      22.890   0.658  52.036  1.00  0.00     0.010 C 
HETATM    8  C6  UNL     1      23.052  -0.032  53.169  1.00  0.00     0.048 A 
HETATM    9  C7  UNL     1      24.460   0.037  53.357  1.00  0.00     0.143 A 
HETATM   10  N3  UNL     1      25.006  -0.569  54.412  1.00  0.00    -0.212 NA
HETATM   11  C14 UNL     1      24.331  -1.241  55.310  1.00  0.00     0.301 A 
HETATM   12  N4  UNL     1      23.287  -0.949  54.633  1.00  0.00    -0.398 NA
HETATM   13  C15 UNL     1      22.252  -0.708  54.040  1.00  0.00     0.122 A 
HETATM   14  C16 UNL     1      21.084  -1.180  54.373  1.00  0.00     0.045 C 
HETATM   15  C17 UNL     1      19.768  -1.216  53.848  1.00  0.00     0.004 C 
HETATM   16  C18 UNL     1      18.585  -1.279  53.430  1.00  0.00     0.008 C 
HETATM   17  H1  UNL     1      15.701  -1.062  51.819  1.00  0.00     0.000 HD
ENDROOT
BRANCH   9  18
HETATM   18  N2  UNL     1      25.460   0.680  52.494  1.00  0.00    -0.340 N 
HETATM   19  H7  UNL     1      25.520   1.102  51.549  1.00  0.00     0.167 HD
BRANCH  18  20
HETATM   20  C8  UNL     1      26.803   0.860  52.956  1.00  0.00     0.035 A 
HETATM   21  C9  UNL     1      27.320   2.100  53.342  1.00  0.00     0.029 A 
HETATM   22  C10 UNL     1      28.648   2.109  53.789  1.00  0.00     0.004 A 
HETATM   23  C11 UNL     1      29.418   0.976  53.852  1.00  0.00     0.024 A 
HETATM   24  C12 UNL     1      28.922  -0.262  53.473  1.00  0.00     0.036 A 
HETATM   25 CL1  UNL     1      29.795  -1.767  53.505  1.00  0.00    -0.084 Cl
HETATM   26  C13 UNL     1      27.593  -0.265  53.028  1.00  0.00     0.053 A 
ENDBRANCH  18  20
ENDBRANCH   9  18
TORSDOF 2
ENDMDL
MODEL 3
REMARK VINA RESULT:      -8.9      3.573      5.495
REMARK  2 active torsions:
REMARK  status: ('A' for Active; 'I' for Inactive)
REMARK    1  A    between atoms: C7_9  and  N2_10 
REMARK    2  A    between atoms: N2_10  and  C8_11 
ROOT
HETATM    1  O1  UNL     1      19.712  -1.643  54.201  1.00  0.00     0.000 OA
HETATM    2  C1  UNL     1      20.948  -1.133  54.106  1.00  0.00    -0.044 A 
HETATM    3  C2  UNL     1      20.227  -0.626  53.071  1.00  0.00     0.056 A 
HETATM    4  C3  UNL     1      20.847   0.293  52.148  1.00  0.00     0.298 C 
HETATM    5  N1  UNL     1      21.900   0.889  51.905  1.00  0.00    -0.438 NA
HETATM    6  C4  UNL     1      22.169   1.781  50.834  1.00  0.00     0.131 C 
HETATM    7  C5  UNL     1      23.564   2.147  50.721  1.00  0.00     0.010 C 
HETATM    8  C6  UNL     1      24.633   1.901  51.484  1.00  0.00     0.048 A 
HETATM    9  C7  UNL     1      25.667   2.560  50.763  1.00  0.00     0.143 A 
HETATM   10  N3  UNL     1      26.916   2.517  51.230  1.00  0.00    -0.212 NA
HETATM   11  C14 UNL     1      27.273   1.898  52.327  1.00  0.00     0.301 A 
HETATM   12  N4  UNL     1      26.045   1.570  52.453  1.00  0.00    -0.398 NA
HETATM   13  C15 UNL     1      24.893   1.222  52.637  1.00  0.00     0.122 A 
HETATM   14  C16 UNL     1      24.504   0.439  53.602  1.00  0.00     0.045 C 
HETATM   15  C17 UNL     1      23.329  -0.244  54.003  1.00  0.00     0.004 C 
HETATM   16  C18 UNL     1      22.317  -0.871  54.404  1.00  0.00     0.008 C 
HETATM   17  H1  UNL     1      19.344  -2.229  54.932  1.00  0.00     0.000 HD
ENDROOT
BRANCH   9  18
HETATM   18  N2  UNL     1      25.564   3.289  49.491  1.00  0.00    -0.340 N 
HETATM   19  H7  UNL     1      25.271   3.113  48.513  1.00  0.00     0.167 HD
BRANCH  18  20
HETATM   20  C8  UNL     1      25.933   4.670  49.420  1.00  0.00     0.035 A 
HETATM   21  C9  UNL     1      27.059   5.127  48.729  1.00  0.00     0.029 A 
HETATM   22  C10 UNL     1      27.275   6.511  48.736  1.00  0.00     0.004 A 
HETATM   23  C11 UNL     1      26.442   7.389  49.380  1.00  0.00     0.024 A 
HETATM   24  C12 UNL     1      25.321   6.955  50.072  1.00  0.00     0.036 A 
HETATM   25 CL1  UNL     1      24.192   7.964  50.928  1.00  0.00    -0.084 Cl
HETATM   26  C13 UNL     1      25.110   5.569  50.060  1.00  0.00     0.053 A 
ENDBRANCH  18  20
ENDBRANCH   9  18
TORSDOF 2
ENDMDL
MODEL 4
REMARK VINA RESULT:      -8.8      1.812      2.298
REMARK  2 active torsions:
REMARK  status: ('A' for Active; 'I' for Inactive)
REMARK    1  A    between atoms: C7_9  and  N2_10 
REMARK    2  A    between atoms: N2_10  and  C8_11 
ROOT
HETATM    1  O1  UNL     1      17.409  -0.351  51.652  1.00  0.00     0.000 OA
HETATM    2  C1  UNL     1      18.565   0.184  51.236  1.00  0.00    -0.044 A 
HETATM    3  C2  UNL     1      18.780  -0.308  52.485  1.00  0.00     0.056 A 
HETATM    4  C3  UNL     1      20.086  -0.193  53.086  1.00  0.00     0.298 C 
HETATM    5  N1  UNL     1      21.235   0.208  52.881  1.00  0.00    -0.438 NA
HETATM    6  C4  UNL     1      22.348   0.148  53.761  1.00  0.00     0.131 C 
HETATM    7  C5  UNL     1      23.498   0.892  53.292  1.00  0.00     0.010 C 
HETATM    8  C6  UNL     1      23.761   1.535  52.150  1.00  0.00     0.048 A 
HETATM    9  C7  UNL     1      25.070   2.036  52.391  1.00  0.00     0.143 A 
HETATM   10  N3  UNL     1      25.672   2.763  51.448  1.00  0.00    -0.212 NA
HETATM   11  C14 UNL     1      25.137   3.060  50.291  1.00  0.00     0.301 A 
HETATM   12  N4  UNL     1      24.114   2.401  50.679  1.00  0.00    -0.398 NA
HETATM   13  C15 UNL     1      23.107   1.788  50.982  1.00  0.00     0.122 A 
HETATM   14  C16 UNL     1      22.032   1.728  50.250  1.00  0.00     0.045 C 
HETATM   15  C17 UNL     1      20.702   1.250  50.360  1.00  0.00     0.004 C 
HETATM   16  C18 UNL     1      19.513   0.846  50.402  1.00  0.00     0.008 C 
HETATM   17  H1  UNL     1      16.554  -0.451  51.129  1.00  0.00     0.000 HD
ENDROOT
BRANCH   9  18
HETATM   18  N2  UNL     1      25.887   1.896  53.604  1.00  0.00    -0.340 N 
HETATM   19  H7  UNL     1      25.863   2.185  54.599  1.00  0.00     0.167 HD
BRANCH  18  20
HETATM   20  C8  UNL     1      27.113   1.158  53.566  1.00  0.00     0.035 A 
HETATM   21  C9  UNL     1      28.357   1.724  53.862  1.00  0.00     0.029 A 
HETATM   22  C10 UNL     1      29.463   0.865  53.798  1.00  0.00     0.004 A 
HETATM   23  C11 UNL     1      29.355  -0.461  53.466  1.00  0.00     0.024 A 
HETATM   24  C12 UNL     1      28.130  -1.039  53.169  1.00  0.00     0.036 A 
HETATM   25 CL1  UNL     1      27.863  -2.702  52.733  1.00  0.00    -0.084 Cl
HETATM   26  C13 UNL     1      27.028  -0.175  53.235  1.00  0.00     0.053 A 
ENDBRANCH  18  20
ENDBRANCH   9  18
TORSDOF 2
ENDMDL
MODEL 5
REMARK VINA RESULT:      -8.5      4.061      6.040
REMARK  2 active torsions:
REMARK  status: ('A' for Active; 'I' for Inactive)
REMARK    1  A    between atoms: C7_9  and  N2_10 
REMARK    2  A    between atoms: N2_10  and  C8_11 
ROOT
HETATM    1  O1  UNL     1      23.083  -1.930  56.052  1.00  0.00     0.000 OA
HETATM    2  C1  UNL     1      22.795  -1.203  54.963  1.00  0.00    -0.044 A 
HETATM    3  C2  UNL     1      24.143  -1.150  55.134  1.00  0.00     0.056 A 
HETATM    4  C3  UNL     1      24.955  -0.407  54.202  1.00  0.00     0.298 C 
HETATM    5  N1  UNL     1      24.907   0.270  53.172  1.00  0.00    -0.438 NA
HETATM    6  C4  UNL     1      25.984   0.886  52.483  1.00  0.00     0.131 C 
HETATM    7  C5  UNL     1      25.561   1.778  51.424  1.00  0.00     0.010 C 
HETATM    8  C6  UNL     1      24.367   2.056  50.893  1.00  0.00     0.048 A 
HETATM    9  C7  UNL     1      24.702   3.022  49.904  1.00  0.00     0.143 A 
HETATM   10  N3  UNL     1      23.733   3.555  49.160  1.00  0.00    -0.212 NA
HETATM   11  C14 UNL     1      22.464   3.253  49.272  1.00  0.00     0.301 A 
HETATM   12  N4  UNL     1      22.815   2.453  50.204  1.00  0.00    -0.398 NA
HETATM   13  C15 UNL     1      23.076   1.670  51.099  1.00  0.00     0.122 A 
HETATM   14  C16 UNL     1      22.187   1.010  51.785  1.00  0.00     0.045 C 
HETATM   15  C17 UNL     1      22.139   0.173  52.927  1.00  0.00     0.004 C 
HETATM   16  C18 UNL     1      22.038  -0.574  53.933  1.00  0.00     0.008 C 
HETATM   17  H1  UNL     1      22.449  -2.482  56.608  1.00  0.00     0.000 HD
ENDROOT
BRANCH   9  18
HETATM   18  N2  UNL     1      26.026   3.577  49.591  1.00  0.00    -0.340 N 
HETATM   19  H7  UNL     1      26.988   3.242  49.401  1.00  0.00     0.167 HD
BRANCH  18  20
HETATM   20  C8  UNL     1      26.204   4.992  49.470  1.00  0.00     0.035 A 
HETATM   21  C9  UNL     1      25.446   5.924  50.184  1.00  0.00     0.029 A 
HETATM   22  C10 UNL     1      25.754   7.274  49.969  1.00  0.00     0.004 A 
HETATM   23  C11 UNL     1      26.740   7.683  49.108  1.00  0.00     0.024 A 
HETATM   24  C12 UNL     1      27.501   6.773  48.389  1.00  0.00     0.036 A 
HETATM   25 CL1  UNL     1      28.774   7.164  47.270  1.00  0.00    -0.084 Cl
HETATM   26  C13 UNL     1      27.189   5.424  48.610  1.00  0.00     0.053 A 
ENDBRANCH  18  20
ENDBRANCH   9  18
TORSDOF 2
ENDMDL
MODEL 6
REMARK VINA RESULT:      -8.5      4.233      8.224
REMARK  2 active torsions:
REMARK  status: ('A' for Active; 'I' for Inactive)
REMARK    1  A    between atoms: C7_9  and  N2_10 
REMARK    2  A    between atoms: N2_10  and  C8_11 
ROOT
HETATM    1  O1  UNL     1      29.446   1.742  53.189  1.00  0.00     0.000 OA
HETATM    2  C1  UNL     1      28.345   1.021  53.445  1.00  0.00    -0.044 A 
HETATM    3  C2  UNL     1      27.939   2.170  52.843  1.00  0.00     0.056 A 
HETATM    4  C3  UNL     1      26.535   2.391  52.595  1.00  0.00     0.298 C 
HETATM    5  N1  UNL     1      25.418   1.878  52.711  1.00  0.00    -0.438 NA
HETATM    6  C4  UNL     1      24.165   2.422  52.326  1.00  0.00     0.131 C 
HETATM    7  C5  UNL     1      23.032   1.650  52.788  1.00  0.00     0.010 C 
HETATM    8  C6  UNL     1      22.927   0.472  53.412  1.00  0.00     0.048 A 
HETATM    9  C7  UNL     1      21.518   0.342  53.558  1.00  0.00     0.143 A 
HETATM   10  N3  UNL     1      21.025  -0.738  54.168  1.00  0.00    -0.212 NA
HETATM   11  C14 UNL     1      21.754  -1.709  54.656  1.00  0.00     0.301 A 
HETATM   12  N4  UNL     1      22.770  -1.050  54.248  1.00  0.00    -0.398 NA
HETATM   13  C15 UNL     1      23.781  -0.477  53.887  1.00  0.00     0.122 A 
HETATM   14  C16 UNL     1      24.991  -0.888  54.138  1.00  0.00     0.045 C 
HETATM   15  C17 UNL     1      26.320  -0.415  53.999  1.00  0.00     0.004 C 
HETATM   16  C18 UNL     1      27.518  -0.046  53.900  1.00  0.00     0.008 C 
HETATM   17  H1  UNL     1      30.405   1.472  53.335  1.00  0.00     0.000 HD
ENDROOT
BRANCH   9  18
HETATM   18  N2  UNL     1      20.472   1.288  53.149  1.00  0.00    -0.340 N 
HETATM   19  H7  UNL     1      20.139   2.239  53.396  1.00  0.00     0.167 HD
BRANCH  18  20
HETATM   20  C8  UNL     1      19.561   0.947  52.100  1.00  0.00     0.035 A 
HETATM   21  C9  UNL     1      19.675   1.438  50.796  1.00  0.00     0.029 A 
HETATM   22  C10 UNL     1      18.715   0.995  49.876  1.00  0.00     0.004 A 
HETATM   23  C11 UNL     1      17.708   0.128  50.215  1.00  0.00     0.024 A 
HETATM   24  C12 UNL     1      17.577  -0.369  51.503  1.00  0.00     0.036 A 
HETATM   25 CL1  UNL     1      16.348  -1.468  52.056  1.00  0.00    -0.084 Cl
HETATM   26  C13 UNL     1      18.542   0.077  52.418  1.00  0.00     0.053 A 
ENDBRANCH  18  20
ENDBRANCH   9  18
TORSDOF 2
ENDMDL
MODEL 7
REMARK VINA RESULT:      -8.3      4.193      7.996
REMARK  2 active torsions:
REMARK  status: ('A' for Active; 'I' for Inactive)
REMARK    1  A    between atoms: C7_9  and  N2_10 
REMARK    2  A    between atoms: N2_10  and  C8_11 
ROOT
HETATM    1  O1  UNL     1      27.175   3.641  50.376  1.00  0.00     0.000 OA
HETATM    2  C1  UNL     1      26.631   2.652  51.100  1.00  0.00    -0.044 A 
HETATM    3  C2  UNL     1      25.611   3.442  50.672  1.00  0.00     0.056 A 
HETATM    4  C3  UNL     1      24.251   3.110  51.023  1.00  0.00     0.298 C 
HETATM    5  N1  UNL     1      23.560   2.278  51.617  1.00  0.00    -0.438 NA
HETATM    6  C4  UNL     1      22.149   2.265  51.766  1.00  0.00     0.131 C 
HETATM    7  C5  UNL     1      21.673   1.262  52.694  1.00  0.00     0.010 C 
HETATM    8  C6  UNL     1      22.283   0.274  53.356  1.00  0.00     0.048 A 
HETATM    9  C7  UNL     1      21.204  -0.302  54.083  1.00  0.00     0.143 A 
HETATM   10  N3  UNL     1      21.443  -1.337  54.891  1.00  0.00    -0.212 NA
HETATM   11  C14 UNL     1      22.622  -1.875  55.072  1.00  0.00     0.301 A 
HETATM   12  N4  UNL     1      23.063  -1.004  54.249  1.00  0.00    -0.398 NA
HETATM   13  C15 UNL     1      23.553  -0.204  53.473  1.00  0.00     0.122 A 
HETATM   14  C16 UNL     1      24.826  -0.112  53.215  1.00  0.00     0.045 C 
HETATM   15  C17 UNL     1      25.704   0.751  52.512  1.00  0.00     0.004 C 
HETATM   16  C18 UNL     1      26.527   1.482  51.906  1.00  0.00     0.008 C 
HETATM   17  H1  UNL     1      28.143   3.754  50.120  1.00  0.00     0.000 HD
ENDROOT
BRANCH   9  18
HETATM   18  N2  UNL     1      19.797   0.121  54.106  1.00  0.00    -0.340 N 
HETATM   19  H7  UNL     1      19.221   0.894  54.486  1.00  0.00     0.167 HD
BRANCH  18  20
HETATM   20  C8  UNL     1      18.799  -0.659  53.440  1.00  0.00     0.035 A 
HETATM   21  C9  UNL     1      18.353  -1.897  53.911  1.00  0.00     0.029 A 
HETATM   22  C10 UNL     1      17.357  -2.529  53.155  1.00  0.00     0.004 A 
HETATM   23  C11 UNL     1      16.833  -1.983  52.012  1.00  0.00     0.024 A 
HETATM   24  C12 UNL     1      17.264  -0.757  51.528  1.00  0.00     0.036 A 
HETATM   25 CL1  UNL     1      16.682   0.039  50.095  1.00  0.00    -0.084 Cl
HETATM   26  C13 UNL     1      18.260  -0.129  52.289  1.00  0.00     0.053 A 
ENDBRANCH  18  20
ENDBRANCH   9  18
TORSDOF 2
ENDMDL
MODEL 8
REMARK VINA RESULT:      -8.0      4.286      8.084
REMARK  2 active torsions:
REMARK  status: ('A' for Active; 'I' for Inactive)
REMARK    1  A    between atoms: C7_9  and  N2_10 
REMARK    2  A    between atoms: N2_10  and  C8_11 
ROOT
HETATM    1  O1  UNL     1      30.352   0.025  53.549  1.00  0.00     0.000 OA
HETATM    2  C1  UNL     1      29.237   0.755  53.408  1.00  0.00    -0.044 A 
HETATM    3  C2  UNL     1      28.849  -0.536  53.587  1.00  0.00     0.056 A 
HETATM    4  C3  UNL     1      27.445  -0.866  53.606  1.00  0.00     0.298 C 
HETATM    5  N1  UNL     1      26.314  -0.377  53.533  1.00  0.00    -0.438 NA
HETATM    6  C4  UNL     1      25.067  -1.053  53.600  1.00  0.00     0.131 C 
HETATM    7  C5  UNL     1      23.935  -0.212  53.274  1.00  0.00     0.010 C 
HETATM    8  C6  UNL     1      23.814   1.096  53.029  1.00  0.00     0.048 A 
HETATM    9  C7  UNL     1      22.420   1.221  52.780  1.00  0.00     0.143 A 
HETATM   10  N3  UNL     1      21.918   2.419  52.477  1.00  0.00    -0.212 NA
HETATM   11  C14 UNL     1      22.627   3.516  52.387  1.00  0.00     0.301 A 
HETATM   12  N4  UNL     1      23.640   2.796  52.681  1.00  0.00    -0.398 NA
HETATM   13  C15 UNL     1      24.648   2.172  52.958  1.00  0.00     0.122 A 
HETATM   14  C16 UNL     1      25.848   2.678  52.973  1.00  0.00     0.045 C 
HETATM   15  C17 UNL     1      27.185   2.228  53.103  1.00  0.00     0.004 C 
HETATM   16  C18 UNL     1      28.389   1.884  53.213  1.00  0.00     0.008 C 
HETATM   17  H1  UNL     1      31.302   0.357  53.595  1.00  0.00     0.000 HD
ENDROOT
BRANCH   9  18
HETATM   18  N2  UNL     1      21.402   0.162  52.770  1.00  0.00    -0.340 N 
HETATM   19  H7  UNL     1      21.214  -0.745  53.235  1.00  0.00     0.167 HD
BRANCH  18  20
HETATM   20  C8  UNL     1      20.256   0.272  51.919  1.00  0.00     0.035 A 
HETATM   21  C9  UNL     1      20.308   0.806  50.628  1.00  0.00     0.029 A 
HETATM   22  C10 UNL     1      19.102   0.828  49.914  1.00  0.00     0.004 A 
HETATM   23  C11 UNL     1      17.923   0.358  50.433  1.00  0.00     0.024 A 
HETATM   24  C12 UNL     1      17.852  -0.174  51.712  1.00  0.00     0.036 A 
HETATM   25 CL1  UNL     1      16.422  -0.798  52.481  1.00  0.00    -0.084 Cl
HETATM   26  C13 UNL     1      19.061  -0.194  52.421  1.00  0.00     0.053 A 
ENDBRANCH  18  20
ENDBRANCH   9  18
TORSDOF 2
ENDMDL
MODEL 9
REMARK VINA RESULT:      -8.0      4.398      5.995
REMARK  2 active torsions:
REMARK  status: ('A' for Active; 'I' for Inactive)
REMARK    1  A    between atoms: C7_9  and  N2_10 
REMARK    2  A    between atoms: N2_10  and  C8_11 
ROOT
HETATM    1  O1  UNL     1      21.317  -2.024  54.772  1.00  0.00     0.000 OA
HETATM    2  C1  UNL     1      21.082  -0.896  54.087  1.00  0.00    -0.044 A 
HETATM    3  C2  UNL     1      22.405  -0.904  54.401  1.00  0.00     0.056 A 
HETATM    4  C3  UNL     1      23.249   0.186  53.975  1.00  0.00     0.298 C 
HETATM    5  N1  UNL     1      23.249   1.247  53.345  1.00  0.00    -0.438 NA
HETATM    6  C4  UNL     1      24.344   2.119  53.108  1.00  0.00     0.131 C 
HETATM    7  C5  UNL     1      23.962   3.379  52.508  1.00  0.00     0.010 C 
HETATM    8  C6  UNL     1      22.802   3.846  52.033  1.00  0.00     0.048 A 
HETATM    9  C7  UNL     1      23.165   5.153  51.605  1.00  0.00     0.143 A 
HETATM   10  N3  UNL     1      22.233   5.945  51.073  1.00  0.00    -0.212 NA
HETATM   11  C14 UNL     1      20.979   5.606  50.912  1.00  0.00     0.301 A 
HETATM   12  N4  UNL     1      21.295   4.482  51.431  1.00  0.00    -0.398 NA
HETATM   13  C15 UNL     1      21.524   3.389  51.916  1.00  0.00     0.122 A 
HETATM   14  C16 UNL     1      20.620   2.482  52.150  1.00  0.00     0.045 C 
HETATM   15  C17 UNL     1      20.523   1.227  52.801  1.00  0.00     0.004 C 
HETATM   16  C18 UNL     1      20.380   0.112  53.364  1.00  0.00     0.008 C 
HETATM   17  H1  UNL     1      20.671  -2.772  54.963  1.00  0.00     0.000 HD
ENDROOT
BRANCH   9  18
HETATM   18  N2  UNL     1      24.476   5.808  51.703  1.00  0.00    -0.340 N 
HETATM   19  H7  UNL     1      25.134   6.132  52.435  1.00  0.00     0.167 HD
BRANCH  18  20
HETATM   20  C8  UNL     1      25.195   6.164  50.517  1.00  0.00     0.035 A 
HETATM   21  C9  UNL     1      25.775   5.222  49.662  1.00  0.00     0.029 A 
HETATM   22  C10 UNL     1      26.430   5.728  48.531  1.00  0.00     0.004 A 
HETATM   23  C11 UNL     1      26.509   7.070  48.257  1.00  0.00     0.024 A 
HETATM   24  C12 UNL     1      25.941   8.018  49.094  1.00  0.00     0.036 A 
HETATM   25 CL1  UNL     1      25.975   9.741  48.859  1.00  0.00    -0.084 Cl
HETATM   26  C13 UNL     1      25.287   7.505  50.223  1.00  0.00     0.053 A 
ENDBRANCH  18  20
ENDBRANCH   9  18
TORSDOF 2
ENDMDL
