MODEL 1
REMARK VINA RESULT:      -8.2      0.000      0.000
REMARK  4 active torsions:
REMARK  status: ('A' for Active; 'I' for Inactive)
REMARK    1  A    between atoms: C3_3  and  C4_4 
REMARK    2  A    between atoms: C8_8  and  N1_9 
REMARK    3  A    between atoms: N1_9  and  C9_10 
REMARK    4  A    between atoms: C9_10  and  C11_12 
ROOT
HETATM    1  C4  UNL     1      27.547   4.724  48.966  1.00  0.00     0.004 C 
HETATM    2  C5  UNL     1      26.509   4.429  49.732  1.00  0.00    -0.058 C 
HETATM    3  C6  UNL     1      26.326   3.271  50.685  1.00  0.00     0.071 C 
HETATM    4  C7  UNL     1      24.900   3.372  51.129  1.00  0.00     0.177 A 
HETATM    5  C8  UNL     1      24.254   2.121  51.510  1.00  0.00     0.126 A 
HETATM    6  N2  UNL     1      23.239   1.629  50.868  1.00  0.00    -0.225 NA
HETATM    7  C17 UNL     1      22.682   2.300  49.721  1.00  0.00     0.256 A 
HETATM    8  N3  UNL     1      23.182   3.412  49.300  1.00  0.00    -0.169 NA
HETATM    9  N4  UNL     1      24.293   4.008  49.947  1.00  0.00    -0.288 N 
HETATM   10  C18 UNL     1      25.193   5.147  49.895  1.00  0.00     0.179 C 
ENDROOT
BRANCH   5  11
HETATM   11  N1  UNL     1      24.813   1.467  52.642  1.00  0.00    -0.368 N 
HETATM   12  H10 UNL     1      25.022   1.989  53.542  1.00  0.00     0.161 HD
BRANCH  11  13
HETATM   13  C9  UNL     1      25.115   0.028  52.577  1.00  0.00     0.112 C 
HETATM   14  C10 UNL     1      24.229  -0.681  53.580  1.00  0.00     0.037 C 
BRANCH  13  15
HETATM   15  C11 UNL     1      26.526  -0.200  52.889  1.00  0.00    -0.036 A 
HETATM   16  C12 UNL     1      27.361   0.833  53.287  1.00  0.00     0.012 A 
HETATM   17  C13 UNL     1      28.695   0.632  53.584  1.00  0.00     0.043 A 
HETATM   18  C14 UNL     1      29.266  -0.641  53.496  1.00  0.00     0.116 A 
HETATM   19  F1  UNL     1      30.538  -0.954  53.759  1.00  0.00    -0.206 F 
HETATM   20  C15 UNL     1      28.444  -1.693  53.099  1.00  0.00     0.043 A 
HETATM   21  C16 UNL     1      27.100  -1.464  52.803  1.00  0.00     0.012 A 
ENDBRANCH  13  15
ENDBRANCH  11  13
ENDBRANCH   5  11
BRANCH   1  22
HETATM   22  C3  UNL     1      27.547   5.900  48.095  1.00  0.00    -0.004 C 
HETATM   23  C2  UNL     1      28.692   6.487  47.777  1.00  0.00    -0.031 C 
HETATM   24  C1  UNL     1      29.954   5.914  48.328  1.00  0.00     0.036 C 
ENDBRANCH   1  22
TORSDOF 4
ENDMDL
MODEL 2
REMARK VINA RESULT:      -8.1      3.371      6.915
REMARK  4 active torsions:
REMARK  status: ('A' for Active; 'I' for Inactive)
REMARK    1  A    between atoms: C3_3  and  C4_4 
REMARK    2  A    between atoms: C8_8  and  N1_9 
REMARK    3  A    between atoms: N1_9  and  C9_10 
REMARK    4  A    between atoms: C9_10  and  C11_12 
ROOT
HETATM    1  C4  UNL     1      19.118  -0.271  51.762  1.00  0.00     0.004 C 
HETATM    2  C5  UNL     1      20.187   0.099  52.449  1.00  0.00    -0.058 C 
HETATM    3  C6  UNL     1      21.645   0.018  52.063  1.00  0.00     0.071 C 
HETATM    4  C7  UNL     1      22.385   0.422  53.300  1.00  0.00     0.177 A 
HETATM    5  C8  UNL     1      23.720  -0.141  53.464  1.00  0.00     0.126 A 
HETATM    6  N2  UNL     1      24.032  -0.940  54.439  1.00  0.00    -0.225 NA
HETATM    7  C17 UNL     1      23.061  -1.325  55.431  1.00  0.00     0.256 A 
HETATM    8  N3  UNL     1      21.850  -0.885  55.374  1.00  0.00    -0.169 NA
HETATM    9  N4  UNL     1      21.434  -0.013  54.337  1.00  0.00    -0.288 N 
HETATM   10  C18 UNL     1      20.287   0.714  53.823  1.00  0.00     0.179 C 
ENDROOT
BRANCH   5  11
HETATM   11  N1  UNL     1      24.670   0.246  52.480  1.00  0.00    -0.368 N 
HETATM   12  H10 UNL     1      24.659  -0.166  51.501  1.00  0.00     0.161 HD
BRANCH  11  13
HETATM   13  C9  UNL     1      25.703   1.239  52.813  1.00  0.00     0.112 C 
HETATM   14  C10 UNL     1      25.863   2.164  51.626  1.00  0.00     0.037 C 
BRANCH  13  15
HETATM   15  C11 UNL     1      26.966   0.564  53.110  1.00  0.00    -0.036 A 
HETATM   16  C12 UNL     1      27.185  -0.761  52.766  1.00  0.00     0.012 A 
HETATM   17  C13 UNL     1      28.372  -1.411  53.040  1.00  0.00     0.043 A 
HETATM   18  C14 UNL     1      29.420  -0.748  53.685  1.00  0.00     0.116 A 
HETATM   19  F1  UNL     1      30.609  -1.271  54.000  1.00  0.00    -0.206 F 
HETATM   20  C15 UNL     1      29.222   0.584  54.039  1.00  0.00     0.043 A 
HETATM   21  C16 UNL     1      28.013   1.218  53.753  1.00  0.00     0.012 A 
ENDBRANCH  13  15
ENDBRANCH  11  13
ENDBRANCH   5  11
BRANCH   1  22
HETATM   22  C3  UNL     1      17.768  -0.115  52.302  1.00  0.00    -0.004 C 
HETATM   23  C2  UNL     1      17.248  -1.063  53.069  1.00  0.00    -0.031 C 
HETATM   24  C1  UNL     1      18.076  -2.270  53.355  1.00  0.00     0.036 C 
ENDBRANCH   1  22
TORSDOF 4
ENDMDL
MODEL 3
REMARK VINA RESULT:      -8.0      3.048      6.438
REMARK  4 active torsions:
REMARK  status: ('A' for Active; 'I' for Inactive)
REMARK    1  A    between atoms: C3_3  and  C4_4 
REMARK    2  A    between atoms: C8_8  and  N1_9 
REMARK    3  A    between atoms: N1_9  and  C9_10 
REMARK    4  A    between atoms: C9_10  and  C11_12 
ROOT
HETATM    1  C4  UNL     1      19.643  -0.500  53.118  1.00  0.00     0.004 C 
HETATM    2  C5  UNL     1      20.605   0.176  52.511  1.00  0.00    -0.058 C 
HETATM    3  C6  UNL     1      22.063   0.305  52.885  1.00  0.00     0.071 C 
HETATM    4  C7  UNL     1      22.607   1.324  51.932  1.00  0.00     0.177 A 
HETATM    5  C8  UNL     1      23.739   2.111  52.409  1.00  0.00     0.126 A 
HETATM    6  N2  UNL     1      23.680   3.396  52.582  1.00  0.00    -0.225 NA
HETATM    7  C17 UNL     1      22.472   4.133  52.311  1.00  0.00     0.256 A 
HETATM    8  N3  UNL     1      21.412   3.531  51.889  1.00  0.00    -0.169 NA
HETATM    9  N4  UNL     1      21.399   2.129  51.680  1.00  0.00    -0.288 N 
HETATM   10  C18 UNL     1      20.551   1.025  51.265  1.00  0.00     0.179 C 
ENDROOT
BRANCH   5  11
HETATM   11  N1  UNL     1      24.924   1.373  52.674  1.00  0.00    -0.368 N 
HETATM   12  H10 UNL     1      24.894   0.389  53.071  1.00  0.00     0.161 HD
BRANCH  11  13
HETATM   13  C9  UNL     1      26.237   1.979  52.398  1.00  0.00     0.112 C 
HETATM   14  C10 UNL     1      26.329   2.237  50.909  1.00  0.00     0.037 C 
BRANCH  13  15
HETATM   15  C11 UNL     1      27.304   1.074  52.827  1.00  0.00    -0.036 A 
HETATM   16  C12 UNL     1      27.173  -0.303  52.739  1.00  0.00     0.012 A 
HETATM   17  C13 UNL     1      28.172  -1.168  53.141  1.00  0.00     0.043 A 
HETATM   18  C14 UNL     1      29.375  -0.682  53.660  1.00  0.00     0.116 A 
HETATM   19  F1  UNL     1      30.408  -1.420  54.078  1.00  0.00    -0.206 F 
HETATM   20  C15 UNL     1      29.527   0.699  53.757  1.00  0.00     0.043 A 
HETATM   21  C16 UNL     1      28.503   1.552  53.346  1.00  0.00     0.012 A 
ENDBRANCH  13  15
ENDBRANCH  11  13
ENDBRANCH   5  11
BRANCH   1  22
HETATM   22  C3  UNL     1      18.272  -0.510  52.606  1.00  0.00    -0.004 C 
HETATM   23  C2  UNL     1      17.461  -1.514  52.907  1.00  0.00    -0.031 C 
HETATM   24  C1  UNL     1      17.989  -2.611  53.770  1.00  0.00     0.036 C 
ENDBRANCH   1  22
TORSDOF 4
ENDMDL
MODEL 4
REMARK VINA RESULT:      -7.9      2.930      5.966
REMARK  4 active torsions:
REMARK  status: ('A' for Active; 'I' for Inactive)
REMARK    1  A    between atoms: C3_3  and  C4_4 
REMARK    2  A    between atoms: C8_8  and  N1_9 
REMARK    3  A    between atoms: N1_9  and  C9_10 
REMARK    4  A    between atoms: C9_10  and  C11_12 
ROOT
HETATM    1  C4  UNL     1      27.546  -0.243  53.575  1.00  0.00     0.004 C 
HETATM    2  C5  UNL     1      27.024   0.919  53.221  1.00  0.00    -0.058 C 
HETATM    3  C6  UNL     1      25.570   1.311  53.086  1.00  0.00     0.071 C 
HETATM    4  C7  UNL     1      25.605   2.686  52.494  1.00  0.00     0.177 A 
HETATM    5  C8  UNL     1      24.455   3.066  51.682  1.00  0.00     0.126 A 
HETATM    6  N2  UNL     1      24.544   3.328  50.413  1.00  0.00    -0.225 NA
HETATM    7  C17 UNL     1      25.806   3.255  49.721  1.00  0.00     0.256 A 
HETATM    8  N3  UNL     1      26.883   2.924  50.348  1.00  0.00    -0.169 NA
HETATM    9  N4  UNL     1      26.864   2.620  51.732  1.00  0.00    -0.288 N 
HETATM   10  C18 UNL     1      27.706   2.211  52.842  1.00  0.00     0.179 C 
ENDROOT
BRANCH   5  11
HETATM   11  N1  UNL     1      23.216   3.134  52.375  1.00  0.00    -0.368 N 
HETATM   12  H10 UNL     1      23.105   3.698  53.268  1.00  0.00     0.161 HD
BRANCH  11  13
HETATM   13  C9  UNL     1      22.047   2.408  51.852  1.00  0.00     0.112 C 
HETATM   14  C10 UNL     1      20.851   3.334  51.923  1.00  0.00     0.037 C 
BRANCH  13  15
HETATM   15  C11 UNL     1      21.811   1.205  52.650  1.00  0.00    -0.036 A 
HETATM   16  C12 UNL     1      20.909   1.192  53.703  1.00  0.00     0.012 A 
HETATM   17  C13 UNL     1      20.677   0.063  54.464  1.00  0.00     0.043 A 
HETATM   18  C14 UNL     1      21.352  -1.133  54.198  1.00  0.00     0.116 A 
HETATM   19  F1  UNL     1      21.208  -2.283  54.863  1.00  0.00    -0.206 F 
HETATM   20  C15 UNL     1      22.261  -1.141  53.144  1.00  0.00     0.043 A 
HETATM   21  C16 UNL     1      22.480   0.012  52.391  1.00  0.00     0.012 A 
ENDBRANCH  13  15
ENDBRANCH  11  13
ENDBRANCH   5  11
BRANCH   1  22
HETATM   22  C3  UNL     1      28.993  -0.442  53.652  1.00  0.00    -0.004 C 
HETATM   23  C2  UNL     1      29.513  -1.631  53.381  1.00  0.00    -0.031 C 
HETATM   24  C1  UNL     1      28.585  -2.735  53.002  1.00  0.00     0.036 C 
ENDBRANCH   1  22
TORSDOF 4
ENDMDL
MODEL 5
REMARK VINA RESULT:      -7.8      4.541      7.266
REMARK  4 active torsions:
REMARK  status: ('A' for Active; 'I' for Inactive)
REMARK    1  A    between atoms: C3_3  and  C4_4 
REMARK    2  A    between atoms: C8_8  and  N1_9 
REMARK    3  A    between atoms: N1_9  and  C9_10 
REMARK    4  A    between atoms: C9_10  and  C11_12 
ROOT
HETATM    1  C4  UNL     1      27.455   0.017  53.193  1.00  0.00     0.004 C 
HETATM    2  C5  UNL     1      26.238   0.526  53.292  1.00  0.00    -0.058 C 
HETATM    3  C6  UNL     1      24.914  -0.082  52.890  1.00  0.00     0.071 C 
HETATM    4  C7  UNL     1      23.920   1.022  53.083  1.00  0.00     0.177 A 
HETATM    5  C8  UNL     1      22.741   0.982  52.226  1.00  0.00     0.126 A 
HETATM    6  N2  UNL     1      22.475   1.904  51.352  1.00  0.00    -0.225 NA
HETATM    7  C17 UNL     1      23.344   3.039  51.172  1.00  0.00     0.256 A 
HETATM    8  N3  UNL     1      24.416   3.167  51.878  1.00  0.00    -0.169 NA
HETATM    9  N4  UNL     1      24.775   2.198  52.849  1.00  0.00    -0.288 N 
HETATM   10  C18 UNL     1      25.789   1.861  53.832  1.00  0.00     0.179 C 
ENDROOT
BRANCH   5  11
HETATM   11  N1  UNL     1      21.891  -0.142  52.411  1.00  0.00    -0.368 N 
HETATM   12  H10 UNL     1      21.859  -0.940  51.710  1.00  0.00     0.161 HD
BRANCH  11  13
HETATM   13  C9  UNL     1      21.025  -0.213  53.598  1.00  0.00     0.112 C 
HETATM   14  C10 UNL     1      21.609  -1.243  54.542  1.00  0.00     0.037 C 
BRANCH  13  15
HETATM   15  C11 UNL     1      19.668  -0.593  53.204  1.00  0.00    -0.036 A 
HETATM   16  C12 UNL     1      18.993  -1.635  53.820  1.00  0.00     0.012 A 
HETATM   17  C13 UNL     1      17.712  -2.004  53.457  1.00  0.00     0.043 A 
HETATM   18  C14 UNL     1      17.033  -1.330  52.438  1.00  0.00     0.116 A 
HETATM   19  F1  UNL     1      15.798  -1.596  52.005  1.00  0.00    -0.206 F 
HETATM   20  C15 UNL     1      17.693  -0.279  51.806  1.00  0.00     0.043 A 
HETATM   21  C16 UNL     1      18.987   0.074  52.190  1.00  0.00     0.012 A 
ENDBRANCH  13  15
ENDBRANCH  11  13
ENDBRANCH   5  11
BRANCH   1  22
HETATM   22  C3  UNL     1      28.635   0.758  53.640  1.00  0.00    -0.004 C 
HETATM   23  C2  UNL     1      29.795   0.133  53.779  1.00  0.00    -0.031 C 
HETATM   24  C1  UNL     1      29.851  -1.326  53.470  1.00  0.00     0.036 C 
ENDBRANCH   1  22
TORSDOF 4
ENDMDL
MODEL 6
REMARK VINA RESULT:      -7.8      3.066      4.178
REMARK  4 active torsions:
REMARK  status: ('A' for Active; 'I' for Inactive)
REMARK    1  A    between atoms: C3_3  and  C4_4 
REMARK    2  A    between atoms: C8_8  and  N1_9 
REMARK    3  A    between atoms: N1_9  and  C9_10 
REMARK    4  A    between atoms: C9_10  and  C11_12 
ROOT
HETATM    1  C4  UNL     1      27.597   4.919  48.657  1.00  0.00     0.004 C 
HETATM    2  C5  UNL     1      26.471   4.675  49.306  1.00  0.00    -0.058 C 
HETATM    3  C6  UNL     1      25.974   3.377  49.900  1.00  0.00     0.071 C 
HETATM    4  C7  UNL     1      24.578   3.679  50.348  1.00  0.00     0.177 A 
HETATM    5  C8  UNL     1      23.650   2.554  50.364  1.00  0.00     0.126 A 
HETATM    6  N2  UNL     1      22.598   2.499  49.606  1.00  0.00    -0.225 NA
HETATM    7  C17 UNL     1      22.280   3.563  48.688  1.00  0.00     0.256 A 
HETATM    8  N3  UNL     1      23.039   4.601  48.594  1.00  0.00    -0.169 NA
HETATM    9  N4  UNL     1      24.207   4.731  49.386  1.00  0.00    -0.288 N 
HETATM   10  C18 UNL     1      25.336   5.604  49.656  1.00  0.00     0.179 C 
ENDROOT
BRANCH   5  11
HETATM   11  N1  UNL     1      23.974   1.510  51.273  1.00  0.00    -0.368 N 
HETATM   12  H10 UNL     1      24.401   0.595  50.944  1.00  0.00     0.161 HD
BRANCH  11  13
HETATM   13  C9  UNL     1      23.713   1.687  52.710  1.00  0.00     0.112 C 
HETATM   14  C10 UNL     1      25.021   1.505  53.449  1.00  0.00     0.037 C 
BRANCH  13  15
HETATM   15  C11 UNL     1      22.728   0.704  53.163  1.00  0.00    -0.036 A 
HETATM   16  C12 UNL     1      23.094  -0.406  53.908  1.00  0.00     0.012 A 
HETATM   17  C13 UNL     1      22.175  -1.342  54.341  1.00  0.00     0.043 A 
HETATM   18  C14 UNL     1      20.816  -1.205  54.042  1.00  0.00     0.116 A 
HETATM   19  F1  UNL     1      19.841  -2.042  54.407  1.00  0.00    -0.206 F 
HETATM   20  C15 UNL     1      20.427  -0.096  53.295  1.00  0.00     0.043 A 
HETATM   21  C16 UNL     1      21.374   0.834  52.867  1.00  0.00     0.012 A 
ENDBRANCH  13  15
ENDBRANCH  11  13
ENDBRANCH   5  11
BRANCH   1  22
HETATM   22  C3  UNL     1      27.914   6.254  48.147  1.00  0.00    -0.004 C 
HETATM   23  C2  UNL     1      29.160   6.553  47.808  1.00  0.00    -0.031 C 
HETATM   24  C1  UNL     1      30.205   5.500  47.963  1.00  0.00     0.036 C 
ENDBRANCH   1  22
TORSDOF 4
ENDMDL
MODEL 7
REMARK VINA RESULT:      -7.8      5.026      8.186
REMARK  4 active torsions:
REMARK  status: ('A' for Active; 'I' for Inactive)
REMARK    1  A    between atoms: C3_3  and  C4_4 
REMARK    2  A    between atoms: C8_8  and  N1_9 
REMARK    3  A    between atoms: N1_9  and  C9_10 
REMARK    4  A    between atoms: C9_10  and  C11_12 
ROOT
HETATM    1  C4  UNL     1      32.964   3.724  47.390  1.00  0.00     0.004 C 
HETATM    2  C5  UNL     1      32.531   4.776  48.065  1.00  0.00    -0.058 C 
HETATM    3  C6  UNL     1      31.131   5.338  48.162  1.00  0.00     0.071 C 
HETATM    4  C7  UNL     1      31.293   6.618  48.922  1.00  0.00     0.177 A 
HETATM    5  C8  UNL     1      30.312   7.661  48.640  1.00  0.00     0.126 A 
HETATM    6  N2  UNL     1      30.632   8.804  48.113  1.00  0.00    -0.225 NA
HETATM    7  C17 UNL     1      31.996   9.113  47.768  1.00  0.00     0.256 A 
HETATM    8  N3  UNL     1      32.939   8.257  47.973  1.00  0.00    -0.169 NA
HETATM    9  N4  UNL     1      32.666   6.987  48.541  1.00  0.00    -0.288 N 
HETATM   10  C18 UNL     1      33.289   5.739  48.945  1.00  0.00     0.179 C 
ENDROOT
BRANCH   5  11
HETATM   11  N1  UNL     1      28.970   7.345  48.984  1.00  0.00    -0.368 N 
HETATM   12  H10 UNL     1      28.614   7.426  49.982  1.00  0.00     0.161 HD
BRANCH  11  13
HETATM   13  C9  UNL     1      28.038   6.889  47.940  1.00  0.00     0.112 C 
HETATM   14  C10 UNL     1      27.270   8.095  47.441  1.00  0.00     0.037 C 
BRANCH  13  15
HETATM   15  C11 UNL     1      27.122   5.891  48.492  1.00  0.00    -0.036 A 
HETATM   16  C12 UNL     1      25.782   6.172  48.712  1.00  0.00     0.012 A 
HETATM   17  C13 UNL     1      24.906   5.239  49.232  1.00  0.00     0.043 A 
HETATM   18  C14 UNL     1      25.342   3.952  49.562  1.00  0.00     0.116 A 
HETATM   19  F1  UNL     1      24.589   2.972  50.068  1.00  0.00    -0.206 F 
HETATM   20  C15 UNL     1      26.684   3.649  49.348  1.00  0.00     0.043 A 
HETATM   21  C16 UNL     1      27.549   4.609  48.823  1.00  0.00     0.012 A 
ENDBRANCH  13  15
ENDBRANCH  11  13
ENDBRANCH   5  11
BRANCH   1  22
HETATM   22  C3  UNL     1      34.371   3.324  47.414  1.00  0.00    -0.004 C 
HETATM   23  C2  UNL     1      35.125   3.495  46.338  1.00  0.00    -0.031 C 
HETATM   24  C1  UNL     1      34.498   4.099  45.126  1.00  0.00     0.036 C 
ENDBRANCH   1  22
TORSDOF 4
ENDMDL
MODEL 8
REMARK VINA RESULT:      -7.5      3.545      7.276
REMARK  4 active torsions:
REMARK  status: ('A' for Active; 'I' for Inactive)
REMARK    1  A    between atoms: C3_3  and  C4_4 
REMARK    2  A    between atoms: C8_8  and  N1_9 
REMARK    3  A    between atoms: N1_9  and  C9_10 
REMARK    4  A    between atoms: C9_10  and  C11_12 
ROOT
HETATM    1  C4  UNL     1      23.317  -0.240  53.400  1.00  0.00     0.004 C 
HETATM    2  C5  UNL     1      23.270   0.702  52.473  1.00  0.00    -0.058 C 
HETATM    3  C6  UNL     1      24.228   1.844  52.224  1.00  0.00     0.071 C 
HETATM    4  C7  UNL     1      23.565   2.665  51.161  1.00  0.00     0.177 A 
HETATM    5  C8  UNL     1      23.882   4.088  51.156  1.00  0.00     0.126 A 
HETATM    6  N2  UNL     1      22.992   5.008  51.373  1.00  0.00    -0.225 NA
HETATM    7  C17 UNL     1      21.616   4.671  51.637  1.00  0.00     0.256 A 
HETATM    8  N3  UNL     1      21.233   3.439  51.667  1.00  0.00    -0.169 NA
HETATM    9  N4  UNL     1      22.148   2.381  51.443  1.00  0.00    -0.288 N 
HETATM   10  C18 UNL     1      22.256   0.933  51.380  1.00  0.00     0.179 C 
ENDROOT
BRANCH   5  11
HETATM   11  N1  UNL     1      25.242   4.410  50.895  1.00  0.00    -0.368 N 
HETATM   12  H10 UNL     1      25.849   4.898  51.617  1.00  0.00     0.161 HD
BRANCH  11  13
HETATM   13  C9  UNL     1      25.836   4.063  49.595  1.00  0.00     0.112 C 
HETATM   14  C10 UNL     1      26.769   2.889  49.804  1.00  0.00     0.037 C 
BRANCH  13  15
HETATM   15  C11 UNL     1      26.571   5.211  49.061  1.00  0.00    -0.036 A 
HETATM   16  C12 UNL     1      26.007   6.476  49.002  1.00  0.00     0.012 A 
HETATM   17  C13 UNL     1      26.689   7.567  48.501  1.00  0.00     0.043 A 
HETATM   18  C14 UNL     1      27.997   7.439  48.025  1.00  0.00     0.116 A 
HETATM   19  F1  UNL     1      28.752   8.419  47.521  1.00  0.00    -0.206 F 
HETATM   20  C15 UNL     1      28.583   6.176  48.076  1.00  0.00     0.043 A 
HETATM   21  C16 UNL     1      27.873   5.089  48.586  1.00  0.00     0.012 A 
ENDBRANCH  13  15
ENDBRANCH  11  13
ENDBRANCH   5  11
BRANCH   1  22
HETATM   22  C3  UNL     1      22.290  -1.278  53.491  1.00  0.00    -0.004 C 
HETATM   23  C2  UNL     1      21.216  -1.082  54.244  1.00  0.00    -0.031 C 
HETATM   24  C1  UNL     1      21.098   0.210  54.980  1.00  0.00     0.036 C 
ENDBRANCH   1  22
TORSDOF 4
ENDMDL
MODEL 9
REMARK VINA RESULT:      -7.3      5.131      9.172
REMARK  4 active torsions:
REMARK  status: ('A' for Active; 'I' for Inactive)
REMARK    1  A    between atoms: C3_3  and  C4_4 
REMARK    2  A    between atoms: C8_8  and  N1_9 
REMARK    3  A    between atoms: N1_9  and  C9_10 
REMARK    4  A    between atoms: C9_10  and  C11_12 
ROOT
HETATM    1  C4  UNL     1      27.647   5.387  48.548  1.00  0.00     0.004 C 
HETATM    2  C5  UNL     1      28.246   6.485  48.118  1.00  0.00    -0.058 C 
HETATM    3  C6  UNL     1      29.641   6.656  47.562  1.00  0.00     0.071 C 
HETATM    4  C7  UNL     1      29.807   8.136  47.411  1.00  0.00     0.177 A 
HETATM    5  C8  UNL     1      31.170   8.644  47.515  1.00  0.00     0.126 A 
HETATM    6  N2  UNL     1      31.551   9.450  48.459  1.00  0.00    -0.225 NA
HETATM    7  C17 UNL     1      30.635   9.895  49.478  1.00  0.00     0.256 A 
HETATM    8  N3  UNL     1      29.407   9.500  49.479  1.00  0.00    -0.169 NA
HETATM    9  N4  UNL     1      28.919   8.618  48.483  1.00  0.00    -0.288 N 
HETATM   10  C18 UNL     1      27.733   7.902  48.047  1.00  0.00     0.179 C 
ENDROOT
BRANCH   5  11
HETATM   11  N1  UNL     1      32.065   8.198  46.505  1.00  0.00    -0.368 N 
HETATM   12  H10 UNL     1      31.722   7.902  45.545  1.00  0.00     0.161 HD
BRANCH  11  13
HETATM   13  C9  UNL     1      33.509   8.140  46.785  1.00  0.00     0.112 C 
HETATM   14  C10 UNL     1      34.245   8.581  45.538  1.00  0.00     0.037 C 
BRANCH  13  15
HETATM   15  C11 UNL     1      33.891   6.775  47.148  1.00  0.00    -0.036 A 
HETATM   16  C12 UNL     1      33.586   5.691  46.339  1.00  0.00     0.012 A 
HETATM   17  C13 UNL     1      33.940   4.398  46.670  1.00  0.00     0.043 A 
HETATM   18  C14 UNL     1      34.632   4.124  47.854  1.00  0.00     0.116 A 
HETATM   19  F1  UNL     1      35.026   2.919  48.276  1.00  0.00    -0.206 F 
HETATM   20  C15 UNL     1      34.948   5.199  48.681  1.00  0.00     0.043 A 
HETATM   21  C16 UNL     1      34.579   6.496  48.325  1.00  0.00     0.012 A 
ENDBRANCH  13  15
ENDBRANCH  11  13
ENDBRANCH   5  11
BRANCH   1  22
HETATM   22  C3  UNL     1      26.276   5.411  49.058  1.00  0.00    -0.004 C 
HETATM   23  C2  UNL     1      25.737   4.309  49.559  1.00  0.00    -0.031 C 
HETATM   24  C1  UNL     1      26.564   3.068  49.581  1.00  0.00     0.036 C 
ENDBRANCH   1  22
TORSDOF 4
ENDMDL
