MODEL 1
REMARK VINA RESULT:      -8.4      0.000      0.000
REMARK  5 active torsions:
REMARK  status: ('A' for Active; 'I' for Inactive)
REMARK    1  A    between atoms: C2_2  and  N1_3 
REMARK    2  A    between atoms: C2_2  and  C14_20 
REMARK    3  A    between atoms: N1_3  and  C3_4 
REMARK    4  A    between atoms: N4_15  and  C11_16 
REMARK    5  A    between atoms: C11_16  and  C12_17 
ROOT
HETATM    1  C3  UNL     1      22.477   2.925  51.960  1.00  0.00     0.139 A 
HETATM    2  N2  UNL     1      21.161   3.127  51.876  1.00  0.00    -0.224 NA
HETATM    3  C4  UNL     1      20.185   2.356  52.332  1.00  0.00     0.236 A 
HETATM    4  N3  UNL     1      20.611   1.244  52.947  1.00  0.00    -0.234 NA
HETATM    5  C5  UNL     1      21.899   1.014  53.046  1.00  0.00     0.114 A 
HETATM    6  S1  UNL     1      22.718  -0.373  53.804  1.00  0.00    -0.072 SA
HETATM    7  C6  UNL     1      24.381   0.155  53.469  1.00  0.00     0.020 A 
HETATM    8  C7  UNL     1      24.220   1.387  52.784  1.00  0.00    -0.025 A 
HETATM    9  C8  UNL     1      22.940   1.792  52.587  1.00  0.00     0.053 A 
HETATM   10  C9  UNL     1      25.604   1.810  52.521  1.00  0.00     0.071 C 
HETATM   11  C10 UNL     1      26.317   1.813  53.894  1.00  0.00     0.278 C 
HETATM   12  N4  UNL     1      26.614   0.471  54.342  1.00  0.00     0.099 N 
HETATM   13  C13 UNL     1      25.679  -0.494  53.798  1.00  0.00     0.319 C 
ENDROOT
BRANCH   1  14
HETATM   14  N1  UNL     1      23.286   3.935  51.374  1.00  0.00    -0.366 N 
HETATM   15  H5  UNL     1      23.872   4.715  51.699  1.00  0.00     0.161 HD
BRANCH  14  16
HETATM   16  C2  UNL     1      23.456   4.042  49.941  1.00  0.00     0.112 C 
HETATM   17  C1  UNL     1      23.191   2.704  49.293  1.00  0.00     0.037 C 
BRANCH  16  18
HETATM   18  C14 UNL     1      24.722   4.601  49.478  1.00  0.00    -0.036 A 
HETATM   19  C15 UNL     1      24.882   5.874  48.986  1.00  0.00     0.009 A 
HETATM   20  C16 UNL     1      26.112   6.365  48.554  1.00  0.00     0.001 A 
HETATM   21  C17 UNL     1      27.240   5.570  48.606  1.00  0.00     0.000 A 
HETATM   22  C18 UNL     1      27.137   4.304  49.082  1.00  0.00     0.001 A 
HETATM   23  C19 UNL     1      25.912   3.867  49.494  1.00  0.00     0.009 A 
ENDBRANCH  16  18
ENDBRANCH  14  16
ENDBRANCH   1  14
BRANCH  12  24
HETATM   24  C11 UNL     1      27.960   0.083  54.099  1.00  0.00     0.341 C 
BRANCH  24  25
HETATM   25  C12 UNL     1      28.959   1.155  54.170  1.00  0.00     0.261 C 
HETATM   26  O1  UNL     1      29.433   1.954  54.985  1.00  0.00    -0.305 OA
ENDBRANCH  24  25
ENDBRANCH  12  24
TORSDOF 5
ENDMDL
MODEL 2
REMARK VINA RESULT:      -8.1      2.787      6.171
REMARK  5 active torsions:
REMARK  status: ('A' for Active; 'I' for Inactive)
REMARK    1  A    between atoms: C2_2  and  N1_3 
REMARK    2  A    between atoms: C2_2  and  C14_20 
REMARK    3  A    between atoms: N1_3  and  C3_4 
REMARK    4  A    between atoms: N4_15  and  C11_16 
REMARK    5  A    between atoms: C11_16  and  C12_17 
ROOT
HETATM    1  C3  UNL     1      22.364   1.016  51.546  1.00  0.00     0.139 A 
HETATM    2  N2  UNL     1      21.448   1.626  50.790  1.00  0.00    -0.224 NA
HETATM    3  C4  UNL     1      21.608   2.681  50.006  1.00  0.00     0.236 A 
HETATM    4  N3  UNL     1      22.856   3.170  49.996  1.00  0.00    -0.234 NA
HETATM    5  C5  UNL     1      23.780   2.595  50.728  1.00  0.00     0.114 A 
HETATM    6  S1  UNL     1      25.495   3.044  50.895  1.00  0.00    -0.072 SA
HETATM    7  C6  UNL     1      25.938   1.760  52.041  1.00  0.00     0.020 A 
HETATM    8  C7  UNL     1      24.730   1.042  52.239  1.00  0.00    -0.025 A 
HETATM    9  C8  UNL     1      23.652   1.498  51.554  1.00  0.00     0.053 A 
HETATM   10  C9  UNL     1      25.118  -0.017  53.183  1.00  0.00     0.071 C 
HETATM   11  C10 UNL     1      26.317  -0.748  52.535  1.00  0.00     0.278 C 
HETATM   12  N4  UNL     1      27.529   0.035  52.624  1.00  0.00     0.099 N 
HETATM   13  C13 UNL     1      27.246   1.456  52.682  1.00  0.00     0.319 C 
ENDROOT
BRANCH   1  14
HETATM   14  N1  UNL     1      21.895  -0.102  52.286  1.00  0.00    -0.366 N 
HETATM   15  H5  UNL     1      22.050  -1.118  52.297  1.00  0.00     0.161 HD
BRANCH  14  16
HETATM   16  C2  UNL     1      20.941   0.042  53.364  1.00  0.00     0.112 C 
HETATM   17  C1  UNL     1      21.558  -0.424  54.660  1.00  0.00     0.037 C 
BRANCH  16  18
HETATM   18  C14 UNL     1      19.634  -0.576  53.160  1.00  0.00    -0.036 A 
HETATM   19  C15 UNL     1      19.184  -1.691  53.824  1.00  0.00     0.009 A 
HETATM   20  C16 UNL     1      17.928  -2.248  53.596  1.00  0.00     0.001 A 
HETATM   21  C17 UNL     1      17.070  -1.684  52.671  1.00  0.00     0.000 A 
HETATM   22  C18 UNL     1      17.466  -0.581  51.987  1.00  0.00     0.001 A 
HETATM   23  C19 UNL     1      18.705  -0.072  52.245  1.00  0.00     0.009 A 
ENDBRANCH  16  18
ENDBRANCH  14  16
ENDBRANCH   1  14
BRANCH  12  24
HETATM   24  C11 UNL     1      28.380  -0.368  53.690  1.00  0.00     0.341 C 
BRANCH  24  25
HETATM   25  C12 UNL     1      29.207  -1.553  53.436  1.00  0.00     0.261 C 
HETATM   26  O1  UNL     1      29.125  -2.786  53.458  1.00  0.00    -0.305 OA
ENDBRANCH  24  25
ENDBRANCH  12  24
TORSDOF 5
ENDMDL
MODEL 3
REMARK VINA RESULT:      -8.1      1.921      2.841
REMARK  5 active torsions:
REMARK  status: ('A' for Active; 'I' for Inactive)
REMARK    1  A    between atoms: C2_2  and  N1_3 
REMARK    2  A    between atoms: C2_2  and  C14_20 
REMARK    3  A    between atoms: N1_3  and  C3_4 
REMARK    4  A    between atoms: N4_15  and  C11_16 
REMARK    5  A    between atoms: C11_16  and  C12_17 
ROOT
HETATM    1  C3  UNL     1      22.079  -0.240  52.712  1.00  0.00     0.139 A 
HETATM    2  N2  UNL     1      20.907  -0.728  53.125  1.00  0.00    -0.224 NA
HETATM    3  C4  UNL     1      20.641  -1.370  54.252  1.00  0.00     0.236 A 
HETATM    4  N3  UNL     1      21.704  -1.532  55.052  1.00  0.00    -0.234 NA
HETATM    5  C5  UNL     1      22.871  -1.064  54.677  1.00  0.00     0.114 A 
HETATM    6  S1  UNL     1      24.424  -1.147  55.543  1.00  0.00    -0.072 SA
HETATM    7  C6  UNL     1      25.392  -0.292  54.323  1.00  0.00     0.020 A 
HETATM    8  C7  UNL     1      24.460   0.019  53.299  1.00  0.00    -0.025 A 
HETATM    9  C8  UNL     1      23.185  -0.391  53.515  1.00  0.00     0.053 A 
HETATM   10  C9  UNL     1      25.277   0.730  52.304  1.00  0.00     0.071 C 
HETATM   11  C10 UNL     1      25.958   1.892  53.063  1.00  0.00     0.278 C 
HETATM   12  N4  UNL     1      27.044   1.421  53.893  1.00  0.00     0.099 N 
HETATM   13  C13 UNL     1      26.841   0.049  54.313  1.00  0.00     0.319 C 
ENDROOT
BRANCH   1  14
HETATM   14  N1  UNL     1      22.058   0.406  51.447  1.00  0.00    -0.366 N 
HETATM   15  H5  UNL     1      22.291   0.166  50.474  1.00  0.00     0.161 HD
BRANCH  14  16
HETATM   16  C2  UNL     1      21.605   1.771  51.293  1.00  0.00     0.112 C 
HETATM   17  C1  UNL     1      20.521   1.836  50.244  1.00  0.00     0.037 C 
BRANCH  16  18
HETATM   18  C14 UNL     1      22.636   2.771  51.036  1.00  0.00    -0.036 A 
HETATM   19  C15 UNL     1      22.934   3.819  51.873  1.00  0.00     0.009 A 
HETATM   20  C16 UNL     1      23.929   4.752  51.586  1.00  0.00     0.001 A 
HETATM   21  C17 UNL     1      24.666   4.652  50.422  1.00  0.00     0.000 A 
HETATM   22  C18 UNL     1      24.411   3.636  49.560  1.00  0.00     0.001 A 
HETATM   23  C19 UNL     1      23.428   2.747  49.885  1.00  0.00     0.009 A 
ENDBRANCH  16  18
ENDBRANCH  14  16
ENDBRANCH   1  14
BRANCH  12  24
HETATM   24  C11 UNL     1      28.323   1.598  53.298  1.00  0.00     0.341 C 
BRANCH  24  25
HETATM   25  C12 UNL     1      29.392   0.731  53.807  1.00  0.00     0.261 C 
HETATM   26  O1  UNL     1      30.060  -0.249  53.462  1.00  0.00    -0.305 OA
ENDBRANCH  24  25
ENDBRANCH  12  24
TORSDOF 5
ENDMDL
MODEL 4
REMARK VINA RESULT:      -8.1      2.103      5.150
REMARK  5 active torsions:
REMARK  status: ('A' for Active; 'I' for Inactive)
REMARK    1  A    between atoms: C2_2  and  N1_3 
REMARK    2  A    between atoms: C2_2  and  C14_20 
REMARK    3  A    between atoms: N1_3  and  C3_4 
REMARK    4  A    between atoms: N4_15  and  C11_16 
REMARK    5  A    between atoms: C11_16  and  C12_17 
ROOT
HETATM    1  C3  UNL     1      22.789   3.551  50.935  1.00  0.00     0.139 A 
HETATM    2  N2  UNL     1      22.186   4.156  49.910  1.00  0.00    -0.224 NA
HETATM    3  C4  UNL     1      22.734   4.613  48.795  1.00  0.00     0.236 A 
HETATM    4  N3  UNL     1      24.060   4.429  48.722  1.00  0.00    -0.234 NA
HETATM    5  C5  UNL     1      24.684   3.837  49.713  1.00  0.00     0.114 A 
HETATM    6  S1  UNL     1      26.421   3.476  49.866  1.00  0.00    -0.072 SA
HETATM    7  C6  UNL     1      26.335   2.704  51.464  1.00  0.00     0.020 A 
HETATM    8  C7  UNL     1      24.958   2.763  51.803  1.00  0.00    -0.025 A 
HETATM    9  C8  UNL     1      24.148   3.348  50.886  1.00  0.00     0.053 A 
HETATM   10  C9  UNL     1      24.908   2.116  53.123  1.00  0.00     0.071 C 
HETATM   11  C10 UNL     1      25.568   0.728  52.943  1.00  0.00     0.278 C 
HETATM   12  N4  UNL     1      27.006   0.833  52.842  1.00  0.00     0.099 N 
HETATM   13  C13 UNL     1      27.413   2.117  52.305  1.00  0.00     0.319 C 
ENDROOT
BRANCH   1  14
HETATM   14  N1  UNL     1      21.934   3.168  52.004  1.00  0.00    -0.366 N 
HETATM   15  H5  UNL     1      21.721   3.498  52.954  1.00  0.00     0.161 HD
BRANCH  14  16
HETATM   16  C2  UNL     1      21.043   2.033  51.900  1.00  0.00     0.112 C 
HETATM   17  C1  UNL     1      19.618   2.479  52.126  1.00  0.00     0.037 C 
BRANCH  16  18
HETATM   18  C14 UNL     1      21.364   0.878  52.732  1.00  0.00    -0.036 A 
HETATM   19  C15 UNL     1      22.113  -0.197  52.321  1.00  0.00     0.009 A 
HETATM   20  C16 UNL     1      22.394  -1.280  53.152  1.00  0.00     0.001 A 
HETATM   21  C17 UNL     1      21.917  -1.310  54.448  1.00  0.00     0.000 A 
HETATM   22  C18 UNL     1      21.171  -0.273  54.904  1.00  0.00     0.001 A 
HETATM   23  C19 UNL     1      20.922   0.765  54.054  1.00  0.00     0.009 A 
ENDBRANCH  16  18
ENDBRANCH  14  16
ENDBRANCH   1  14
BRANCH  12  24
HETATM   24  C11 UNL     1      27.677   0.544  54.061  1.00  0.00     0.341 C 
BRANCH  24  25
HETATM   25  C12 UNL     1      28.937   1.261  54.285  1.00  0.00     0.261 C 
HETATM   26  O1  UNL     1      29.394   2.181  54.972  1.00  0.00    -0.305 OA
ENDBRANCH  24  25
ENDBRANCH  12  24
TORSDOF 5
ENDMDL
MODEL 5
REMARK VINA RESULT:      -8.0      3.832      6.592
REMARK  5 active torsions:
REMARK  status: ('A' for Active; 'I' for Inactive)
REMARK    1  A    between atoms: C2_2  and  N1_3 
REMARK    2  A    between atoms: C2_2  and  C14_20 
REMARK    3  A    between atoms: N1_3  and  C3_4 
REMARK    4  A    between atoms: N4_15  and  C11_16 
REMARK    5  A    between atoms: C11_16  and  C12_17 
ROOT
HETATM    1  C3  UNL     1      23.581  -0.111  53.558  1.00  0.00     0.139 A 
HETATM    2  N2  UNL     1      23.756  -0.892  54.627  1.00  0.00    -0.224 NA
HETATM    3  C4  UNL     1      22.835  -1.529  55.332  1.00  0.00     0.236 A 
HETATM    4  N3  UNL     1      21.583  -1.343  54.891  1.00  0.00    -0.234 NA
HETATM    5  C5  UNL     1      21.375  -0.581  53.843  1.00  0.00     0.114 A 
HETATM    6  S1  UNL     1      19.827  -0.173  53.063  1.00  0.00    -0.072 SA
HETATM    7  C6  UNL     1      20.501   0.863  51.787  1.00  0.00     0.020 A 
HETATM    8  C7  UNL     1      21.899   0.843  52.028  1.00  0.00    -0.025 A 
HETATM    9  C8  UNL     1      22.307   0.096  53.084  1.00  0.00     0.053 A 
HETATM   10  C9  UNL     1      22.438   1.700  50.961  1.00  0.00     0.071 C 
HETATM   11  C10 UNL     1      21.905   1.112  49.632  1.00  0.00     0.278 C 
HETATM   12  N4  UNL     1      20.508   1.425  49.435  1.00  0.00     0.099 N 
HETATM   13  C13 UNL     1      19.817   1.610  50.696  1.00  0.00     0.319 C 
ENDROOT
BRANCH   1  14
HETATM   14  N1  UNL     1      24.768   0.442  53.008  1.00  0.00    -0.366 N 
HETATM   15  H5  UNL     1      25.083   0.793  52.094  1.00  0.00     0.161 HD
BRANCH  14  16
HETATM   16  C2  UNL     1      25.956   0.650  53.807  1.00  0.00     0.112 C 
HETATM   17  C1  UNL     1      26.411   2.084  53.685  1.00  0.00     0.037 C 
BRANCH  16  18
HETATM   18  C14 UNL     1      27.066  -0.269  53.569  1.00  0.00    -0.036 A 
HETATM   19  C15 UNL     1      26.960  -1.469  52.911  1.00  0.00     0.009 A 
HETATM   20  C16 UNL     1      28.049  -2.315  52.708  1.00  0.00     0.001 A 
HETATM   21  C17 UNL     1      29.301  -1.967  53.174  1.00  0.00     0.000 A 
HETATM   22  C18 UNL     1      29.461  -0.791  53.833  1.00  0.00     0.001 A 
HETATM   23  C19 UNL     1      28.365   0.004  54.007  1.00  0.00     0.009 A 
ENDBRANCH  16  18
ENDBRANCH  14  16
ENDBRANCH   1  14
BRANCH  12  24
HETATM   24  C11 UNL     1      20.297   2.527  48.562  1.00  0.00     0.341 C 
BRANCH  24  25
HETATM   25  C12 UNL     1      21.460   2.954  47.776  1.00  0.00     0.261 C 
HETATM   26  O1  UNL     1      21.803   3.103  46.599  1.00  0.00    -0.305 OA
ENDBRANCH  24  25
ENDBRANCH  12  24
TORSDOF 5
ENDMDL
MODEL 6
REMARK VINA RESULT:      -7.8      2.685      6.099
REMARK  5 active torsions:
REMARK  status: ('A' for Active; 'I' for Inactive)
REMARK    1  A    between atoms: C2_2  and  N1_3 
REMARK    2  A    between atoms: C2_2  and  C14_20 
REMARK    3  A    between atoms: N1_3  and  C3_4 
REMARK    4  A    between atoms: N4_15  and  C11_16 
REMARK    5  A    between atoms: C11_16  and  C12_17 
ROOT
HETATM    1  C3  UNL     1      23.486   0.211  53.075  1.00  0.00     0.139 A 
HETATM    2  N2  UNL     1      23.081  -0.837  53.796  1.00  0.00    -0.224 NA
HETATM    3  C4  UNL     1      21.860  -1.104  54.232  1.00  0.00     0.236 A 
HETATM    4  N3  UNL     1      20.944  -0.188  53.889  1.00  0.00    -0.234 NA
HETATM    5  C5  UNL     1      21.309   0.855  53.181  1.00  0.00     0.114 A 
HETATM    6  S1  UNL     1      20.302   2.204  52.601  1.00  0.00    -0.072 SA
HETATM    7  C6  UNL     1      21.598   3.094  51.774  1.00  0.00     0.020 A 
HETATM    8  C7  UNL     1      22.754   2.298  51.987  1.00  0.00    -0.025 A 
HETATM    9  C8  UNL     1      22.567   1.165  52.709  1.00  0.00     0.053 A 
HETATM   10  C9  UNL     1      23.811   3.047  51.291  1.00  0.00     0.071 C 
HETATM   11  C10 UNL     1      23.308   3.250  49.842  1.00  0.00     0.278 C 
HETATM   12  N4  UNL     1      22.283   4.267  49.773  1.00  0.00     0.099 N 
HETATM   13  C13 UNL     1      21.551   4.376  51.020  1.00  0.00     0.319 C 
ENDROOT
BRANCH   1  14
HETATM   14  N1  UNL     1      24.870   0.228  52.752  1.00  0.00    -0.366 N 
HETATM   15  H5  UNL     1      25.449   0.126  51.908  1.00  0.00     0.161 HD
BRANCH  14  16
HETATM   16  C2  UNL     1      25.886   0.447  53.758  1.00  0.00     0.112 C 
HETATM   17  C1  UNL     1      26.195   1.921  53.863  1.00  0.00     0.037 C 
BRANCH  16  18
HETATM   18  C14 UNL     1      27.113  -0.333  53.621  1.00  0.00    -0.036 A 
HETATM   19  C15 UNL     1      28.347   0.065  54.074  1.00  0.00     0.009 A 
HETATM   20  C16 UNL     1      29.492  -0.713  53.920  1.00  0.00     0.001 A 
HETATM   21  C17 UNL     1      29.424  -1.940  53.290  1.00  0.00     0.000 A 
HETATM   22  C18 UNL     1      28.229  -2.380  52.822  1.00  0.00     0.001 A 
HETATM   23  C19 UNL     1      27.135  -1.584  52.997  1.00  0.00     0.009 A 
ENDBRANCH  16  18
ENDBRANCH  14  16
ENDBRANCH   1  14
BRANCH  12  24
HETATM   24  C11 UNL     1      22.775   5.532  49.348  1.00  0.00     0.341 C 
BRANCH  24  25
HETATM   25  C12 UNL     1      23.115   6.479  50.416  1.00  0.00     0.261 C 
HETATM   26  O1  UNL     1      24.100   6.891  51.037  1.00  0.00    -0.305 OA
ENDBRANCH  24  25
ENDBRANCH  12  24
TORSDOF 5
ENDMDL
MODEL 7
REMARK VINA RESULT:      -7.8      3.435      6.670
REMARK  5 active torsions:
REMARK  status: ('A' for Active; 'I' for Inactive)
REMARK    1  A    between atoms: C2_2  and  N1_3 
REMARK    2  A    between atoms: C2_2  and  C14_20 
REMARK    3  A    between atoms: N1_3  and  C3_4 
REMARK    4  A    between atoms: N4_15  and  C11_16 
REMARK    5  A    between atoms: C11_16  and  C12_17 
ROOT
HETATM    1  C3  UNL     1      24.682   1.868  51.978  1.00  0.00     0.139 A 
HETATM    2  N2  UNL     1      25.568   2.649  51.355  1.00  0.00    -0.224 NA
HETATM    3  C4  UNL     1      25.421   3.299  50.211  1.00  0.00     0.236 A 
HETATM    4  N3  UNL     1      24.222   3.129  49.636  1.00  0.00    -0.234 NA
HETATM    5  C5  UNL     1      23.328   2.368  50.222  1.00  0.00     0.114 A 
HETATM    6  S1  UNL     1      21.679   1.979  49.674  1.00  0.00    -0.072 SA
HETATM    7  C6  UNL     1      21.244   0.932  51.042  1.00  0.00     0.020 A 
HETATM    8  C7  UNL     1      22.403   0.935  51.861  1.00  0.00    -0.025 A 
HETATM    9  C8  UNL     1      23.445   1.678  51.410  1.00  0.00     0.053 A 
HETATM   10  C9  UNL     1      22.022   0.069  52.987  1.00  0.00     0.071 C 
HETATM   11  C10 UNL     1      20.710   0.661  53.556  1.00  0.00     0.278 C 
HETATM   12  N4  UNL     1      19.581   0.367  52.703  1.00  0.00     0.099 N 
HETATM   13  C13 UNL     1      19.983   0.193  51.321  1.00  0.00     0.319 C 
ENDROOT
BRANCH   1  14
HETATM   14  N1  UNL     1      25.127   1.299  53.201  1.00  0.00    -0.366 N 
HETATM   15  H5  UNL     1      25.156   1.571  54.193  1.00  0.00     0.161 HD
BRANCH  14  16
HETATM   16  C2  UNL     1      25.719  -0.019  53.260  1.00  0.00     0.112 C 
HETATM   17  C1  UNL     1      25.069  -0.824  54.359  1.00  0.00     0.037 C 
BRANCH  16  18
HETATM   18  C14 UNL     1      27.174  -0.073  53.368  1.00  0.00    -0.036 A 
HETATM   19  C15 UNL     1      27.976   1.003  53.662  1.00  0.00     0.009 A 
HETATM   20  C16 UNL     1      29.363   0.904  53.754  1.00  0.00     0.001 A 
HETATM   21  C17 UNL     1      29.994  -0.307  53.547  1.00  0.00     0.000 A 
HETATM   22  C18 UNL     1      29.247  -1.401  53.253  1.00  0.00     0.001 A 
HETATM   23  C19 UNL     1      27.893  -1.256  53.174  1.00  0.00     0.009 A 
ENDBRANCH  16  18
ENDBRANCH  14  16
ENDBRANCH   1  14
BRANCH  12  24
HETATM   24  C11 UNL     1      18.805  -0.734  53.160  1.00  0.00     0.341 C 
BRANCH  24  25
HETATM   25  C12 UNL     1      17.432  -0.806  52.650  1.00  0.00     0.261 C 
HETATM   26  O1  UNL     1      16.553  -1.642  52.412  1.00  0.00    -0.305 OA
ENDBRANCH  24  25
ENDBRANCH  12  24
TORSDOF 5
ENDMDL
MODEL 8
REMARK VINA RESULT:      -7.7      2.840      5.252
REMARK  5 active torsions:
REMARK  status: ('A' for Active; 'I' for Inactive)
REMARK    1  A    between atoms: C2_2  and  N1_3 
REMARK    2  A    between atoms: C2_2  and  C14_20 
REMARK    3  A    between atoms: N1_3  and  C3_4 
REMARK    4  A    between atoms: N4_15  and  C11_16 
REMARK    5  A    between atoms: C11_16  and  C12_17 
ROOT
HETATM    1  C3  UNL     1      26.211   2.280  52.214  1.00  0.00     0.139 A 
HETATM    2  N2  UNL     1      27.539   2.210  52.337  1.00  0.00    -0.224 NA
HETATM    3  C4  UNL     1      28.250   1.323  53.015  1.00  0.00     0.236 A 
HETATM    4  N3  UNL     1      27.513   0.397  53.644  1.00  0.00    -0.234 NA
HETATM    5  C5  UNL     1      26.205   0.437  53.545  1.00  0.00     0.114 A 
HETATM    6  S1  UNL     1      25.007  -0.660  54.274  1.00  0.00    -0.072 SA
HETATM    7  C6  UNL     1      23.563   0.140  53.619  1.00  0.00     0.020 A 
HETATM    8  C7  UNL     1      24.081   1.223  52.863  1.00  0.00    -0.025 A 
HETATM    9  C8  UNL     1      25.432   1.342  52.848  1.00  0.00     0.053 A 
HETATM   10  C9  UNL     1      22.872   1.868  52.326  1.00  0.00     0.071 C 
HETATM   11  C10 UNL     1      22.088   0.756  51.589  1.00  0.00     0.278 C 
HETATM   12  N4  UNL     1      21.428  -0.133  52.517  1.00  0.00     0.099 N 
HETATM   13  C13 UNL     1      22.122  -0.192  53.789  1.00  0.00     0.319 C 
ENDROOT
BRANCH   1  14
HETATM   14  N1  UNL     1      25.731   3.352  51.416  1.00  0.00    -0.366 N 
HETATM   15  H5  UNL     1      25.365   4.301  51.569  1.00  0.00     0.161 HD
BRANCH  14  16
HETATM   16  C2  UNL     1      25.677   3.266  49.973  1.00  0.00     0.112 C 
HETATM   17  C1  UNL     1      26.871   3.969  49.373  1.00  0.00     0.037 C 
BRANCH  16  18
HETATM   18  C14 UNL     1      24.439   3.713  49.342  1.00  0.00    -0.036 A 
HETATM   19  C15 UNL     1      24.096   5.028  49.139  1.00  0.00     0.009 A 
HETATM   20  C16 UNL     1      22.901   5.409  48.532  1.00  0.00     0.001 A 
HETATM   21  C17 UNL     1      21.999   4.454  48.103  1.00  0.00     0.000 A 
HETATM   22  C18 UNL     1      22.289   3.141  48.280  1.00  0.00     0.001 A 
HETATM   23  C19 UNL     1      23.472   2.817  48.879  1.00  0.00     0.009 A 
ENDBRANCH  16  18
ENDBRANCH  14  16
ENDBRANCH   1  14
BRANCH  12  24
HETATM   24  C11 UNL     1      20.048   0.162  52.693  1.00  0.00     0.341 C 
BRANCH  24  25
HETATM   25  C12 UNL     1      19.302   0.490  51.473  1.00  0.00     0.261 C 
HETATM   26  O1  UNL     1      18.422   0.017  50.746  1.00  0.00    -0.305 OA
ENDBRANCH  24  25
ENDBRANCH  12  24
TORSDOF 5
ENDMDL
MODEL 9
REMARK VINA RESULT:      -7.5      2.914      6.477
REMARK  5 active torsions:
REMARK  status: ('A' for Active; 'I' for Inactive)
REMARK    1  A    between atoms: C2_2  and  N1_3 
REMARK    2  A    between atoms: C2_2  and  C14_20 
REMARK    3  A    between atoms: N1_3  and  C3_4 
REMARK    4  A    between atoms: N4_15  and  C11_16 
REMARK    5  A    between atoms: C11_16  and  C12_17 
ROOT
HETATM    1  C3  UNL     1      23.870  -0.296  53.577  1.00  0.00     0.139 A 
HETATM    2  N2  UNL     1      24.090  -1.046  54.660  1.00  0.00    -0.224 NA
HETATM    3  C4  UNL     1      25.172  -1.083  55.421  1.00  0.00     0.236 A 
HETATM    4  N3  UNL     1      26.147  -0.254  55.025  1.00  0.00    -0.234 NA
HETATM    5  C5  UNL     1      25.965   0.497  53.965  1.00  0.00     0.114 A 
HETATM    6  S1  UNL     1      27.088   1.669  53.234  1.00  0.00    -0.072 SA
HETATM    7  C6  UNL     1      26.028   2.175  51.902  1.00  0.00     0.020 A 
HETATM    8  C7  UNL     1      24.848   1.408  52.089  1.00  0.00    -0.025 A 
HETATM    9  C8  UNL     1      24.854   0.564  53.150  1.00  0.00     0.053 A 
HETATM   10  C9  UNL     1      23.984   1.844  50.982  1.00  0.00     0.071 C 
HETATM   11  C10 UNL     1      23.892   3.385  51.094  1.00  0.00     0.278 C 
HETATM   12  N4  UNL     1      25.107   4.023  50.643  1.00  0.00     0.099 N 
HETATM   13  C13 UNL     1      26.260   3.161  50.811  1.00  0.00     0.319 C 
ENDROOT
BRANCH   1  14
HETATM   14  N1  UNL     1      22.602  -0.473  52.962  1.00  0.00    -0.366 N 
HETATM   15  H5  UNL     1      22.178  -1.115  52.279  1.00  0.00     0.161 HD
BRANCH  14  16
HETATM   16  C2  UNL     1      21.478   0.385  53.267  1.00  0.00     0.112 C 
HETATM   17  C1  UNL     1      21.003   0.125  54.676  1.00  0.00     0.037 C 
BRANCH  16  18
HETATM   18  C14 UNL     1      20.361   0.349  52.328  1.00  0.00    -0.036 A 
HETATM   19  C15 UNL     1      20.388   0.877  51.060  1.00  0.00     0.009 A 
HETATM   20  C16 UNL     1      19.295   0.820  50.197  1.00  0.00     0.001 A 
HETATM   21  C17 UNL     1      18.119   0.216  50.598  1.00  0.00     0.000 A 
HETATM   22  C18 UNL     1      18.039  -0.321  51.841  1.00  0.00     0.001 A 
HETATM   23  C19 UNL     1      19.135  -0.241  52.650  1.00  0.00     0.009 A 
ENDBRANCH  16  18
ENDBRANCH  14  16
ENDBRANCH   1  14
BRANCH  12  24
HETATM   24  C11 UNL     1      25.021   4.521  49.314  1.00  0.00     0.341 C 
BRANCH  24  25
HETATM   25  C12 UNL     1      23.678   4.890  48.853  1.00  0.00     0.261 C 
HETATM   26  O1  UNL     1      22.909   4.676  47.910  1.00  0.00    -0.305 OA
ENDBRANCH  24  25
ENDBRANCH  12  24
TORSDOF 5
ENDMDL
