MODEL 1
REMARK VINA RESULT:      -7.5      0.000      0.000
REMARK  5 active torsions:
REMARK  status: ('A' for Active; 'I' for Inactive)
REMARK    1  A    between atoms: C5_8  and  C6_9 
REMARK    2  A    between atoms: C6_9  and  C14_20 
REMARK    3  A    between atoms: C7_10  and  N3_11 
REMARK    4  A    between atoms: N3_11  and  C8_12 
REMARK    5  A    between atoms: C14_20  and  C15_21 
ROOT
HETATM    1  C6  UNL     1      26.053   2.424  50.999  1.00  0.00    -0.038 C 
HETATM    2  C7  UNL     1      24.961   3.042  51.461  1.00  0.00     0.095 C 
ENDROOT
BRANCH   1   3
HETATM    3  C5  UNL     1      26.443   1.201  51.663  1.00  0.00     0.038 C 
HETATM    4  C4  UNL     1      27.180   0.586  52.536  1.00  0.00     0.068 A 
HETATM    5  N1  UNL     1      28.186   1.119  53.425  1.00  0.00    -0.346 N 
HETATM    6  C3  UNL     1      27.156  -0.895  52.816  1.00  0.00     0.343 A 
HETATM    7  C1  UNL     1      28.630   2.473  53.606  1.00  0.00     0.157 C 
HETATM    8  C2  UNL     1      28.723   0.047  54.166  1.00  0.00     0.207 A 
HETATM    9  N2  UNL     1      28.155  -1.033  53.823  1.00  0.00    -0.242 NA
HETATM   10  F1  UNL     1      25.917  -1.301  53.274  1.00  0.00    -0.218 F 
ENDBRANCH   1   3
BRANCH   1  11
HETATM   11  C14 UNL     1      26.626   3.179  49.853  1.00  0.00     0.076 C 
BRANCH  11  12
HETATM   12  C15 UNL     1      25.967   4.499  49.648  1.00  0.00     0.395 C 
HETATM   13  O1  UNL     1      26.462   5.483  49.086  1.00  0.00    -0.429 OA
ENDBRANCH  11  12
ENDBRANCH   1  11
BRANCH   2  14
HETATM   14  N3  UNL     1      24.100   2.668  52.537  1.00  0.00    -0.364 N 
HETATM   15  H8  UNL     1      24.554   3.121  53.365  1.00  0.00     0.165 HD
BRANCH  14  16
HETATM   16  C8  UNL     1      22.921   1.902  52.623  1.00  0.00     0.053 A 
HETATM   17  C9  UNL     1      23.014   0.546  52.862  1.00  0.00     0.032 A 
HETATM   18  C10 UNL     1      21.828  -0.133  52.932  1.00  0.00     0.021 A 
HETATM   19  C11 UNL     1      20.566   0.446  52.779  1.00  0.00     0.012 A 
HETATM   20 BR1  UNL     1      18.969  -0.570  52.890  1.00  0.00    -0.051 Br
HETATM   21  C12 UNL     1      20.552   1.800  52.543  1.00  0.00     0.045 A 
HETATM   22  C13 UNL     1      21.714   2.554  52.459  1.00  0.00     0.062 A 
HETATM   23 CL1  UNL     1      21.650   4.275  52.158  1.00  0.00    -0.082 Cl
ENDBRANCH  14  16
ENDBRANCH   2  14
TORSDOF 5
ENDMDL
MODEL 2
REMARK VINA RESULT:      -7.4      1.733      2.163
REMARK  5 active torsions:
REMARK  status: ('A' for Active; 'I' for Inactive)
REMARK    1  A    between atoms: C5_8  and  C6_9 
REMARK    2  A    between atoms: C6_9  and  C14_20 
REMARK    3  A    between atoms: C7_10  and  N3_11 
REMARK    4  A    between atoms: N3_11  and  C8_12 
REMARK    5  A    between atoms: C14_20  and  C15_21 
ROOT
HETATM    1  C6  UNL     1      25.082   1.946  51.827  1.00  0.00    -0.038 C 
HETATM    2  C7  UNL     1      23.859   2.019  52.366  1.00  0.00     0.095 C 
ENDROOT
BRANCH   1   3
HETATM    3  C5  UNL     1      25.875   0.785  52.158  1.00  0.00     0.038 C 
HETATM    4  C4  UNL     1      26.952   0.272  52.668  1.00  0.00     0.068 A 
HETATM    5  N1  UNL     1      28.083   0.933  53.277  1.00  0.00    -0.346 N 
HETATM    6  C3  UNL     1      27.282  -1.197  52.725  1.00  0.00     0.343 A 
HETATM    7  C1  UNL     1      28.316   2.332  53.508  1.00  0.00     0.157 C 
HETATM    8  C2  UNL     1      29.012  -0.056  53.657  1.00  0.00     0.207 A 
HETATM    9  N2  UNL     1      28.562  -1.200  53.350  1.00  0.00    -0.242 NA
HETATM   10  F1  UNL     1      26.351  -1.894  53.474  1.00  0.00    -0.218 F 
ENDBRANCH   1   3
BRANCH   1  11
HETATM   11  C14 UNL     1      25.337   3.135  50.970  1.00  0.00     0.076 C 
BRANCH  11  12
HETATM   12  C15 UNL     1      26.534   2.967  50.098  1.00  0.00     0.395 C 
HETATM   13  O1  UNL     1      27.180   3.874  49.562  1.00  0.00    -0.429 OA
ENDBRANCH  11  12
ENDBRANCH   1  11
BRANCH   2  14
HETATM   14  N3  UNL     1      23.204   1.100  53.240  1.00  0.00    -0.364 N 
HETATM   15  H8  UNL     1      23.921   0.937  53.986  1.00  0.00     0.165 HD
BRANCH  14  16
HETATM   16  C8  UNL     1      21.935   0.485  53.238  1.00  0.00     0.053 A 
HETATM   17  C9  UNL     1      20.951   0.976  52.405  1.00  0.00     0.032 A 
HETATM   18  C10 UNL     1      19.746   0.330  52.457  1.00  0.00     0.021 A 
HETATM   19  C11 UNL     1      19.459  -0.762  53.279  1.00  0.00     0.012 A 
HETATM   20 BR1  UNL     1      17.759  -1.600  53.289  1.00  0.00    -0.051 Br
HETATM   21  C12 UNL     1      20.488  -1.195  54.081  1.00  0.00     0.045 A 
HETATM   22  C13 UNL     1      21.737  -0.590  54.082  1.00  0.00     0.062 A 
HETATM   23 CL1  UNL     1      23.019  -1.173  55.119  1.00  0.00    -0.082 Cl
ENDBRANCH  14  16
ENDBRANCH   2  14
TORSDOF 5
ENDMDL
MODEL 3
REMARK VINA RESULT:      -7.2      3.816      5.235
REMARK  5 active torsions:
REMARK  status: ('A' for Active; 'I' for Inactive)
REMARK    1  A    between atoms: C5_8  and  C6_9 
REMARK    2  A    between atoms: C6_9  and  C14_20 
REMARK    3  A    between atoms: C7_10  and  N3_11 
REMARK    4  A    between atoms: N3_11  and  C8_12 
REMARK    5  A    between atoms: C14_20  and  C15_21 
ROOT
HETATM    1  C6  UNL     1      24.434   0.249  53.480  1.00  0.00    -0.038 C 
HETATM    2  C7  UNL     1      23.843   1.354  53.013  1.00  0.00     0.095 C 
ENDROOT
BRANCH   1   3
HETATM    3  C5  UNL     1      25.819   0.365  53.875  1.00  0.00     0.038 C 
HETATM    4  C4  UNL     1      27.038  -0.080  53.831  1.00  0.00     0.068 A 
HETATM    5  N1  UNL     1      27.572  -1.224  53.130  1.00  0.00    -0.346 N 
HETATM    6  C3  UNL     1      28.216   0.522  54.552  1.00  0.00     0.343 A 
HETATM    7  C1  UNL     1      26.912  -2.167  52.270  1.00  0.00     0.157 C 
HETATM    8  C2  UNL     1      28.949  -1.304  53.414  1.00  0.00     0.207 A 
HETATM    9  N2  UNL     1      29.279  -0.353  54.185  1.00  0.00    -0.242 NA
HETATM   10  F1  UNL     1      28.458   1.816  54.131  1.00  0.00    -0.218 F 
ENDBRANCH   1   3
BRANCH   1  11
HETATM   11  C14 UNL     1      23.472  -0.886  53.487  1.00  0.00     0.076 C 
BRANCH  11  12
HETATM   12  C15 UNL     1      22.597  -0.888  54.693  1.00  0.00     0.395 C 
HETATM   13  O1  UNL     1      22.158  -1.887  55.275  1.00  0.00    -0.429 OA
ENDBRANCH  11  12
ENDBRANCH   1  11
BRANCH   2  14
HETATM   14  N3  UNL     1      24.386   2.663  52.840  1.00  0.00    -0.364 N 
HETATM   15  H8  UNL     1      24.858   2.842  53.758  1.00  0.00     0.165 HD
BRANCH  14  16
HETATM   16  C8  UNL     1      24.377   3.591  51.779  1.00  0.00     0.053 A 
HETATM   17  C9  UNL     1      23.386   4.550  51.731  1.00  0.00     0.032 A 
HETATM   18  C10 UNL     1      23.441   5.416  50.674  1.00  0.00     0.021 A 
HETATM   19  C11 UNL     1      24.410   5.389  49.668  1.00  0.00     0.012 A 
HETATM   20 BR1  UNL     1      24.413   6.629  48.235  1.00  0.00    -0.051 Br
HETATM   21  C12 UNL     1      25.365   4.407  49.783  1.00  0.00     0.045 A 
HETATM   22  C13 UNL     1      25.374   3.493  50.827  1.00  0.00     0.062 A 
HETATM   23 CL1  UNL     1      26.608   2.259  50.934  1.00  0.00    -0.082 Cl
ENDBRANCH  14  16
ENDBRANCH   2  14
TORSDOF 5
ENDMDL
MODEL 4
REMARK VINA RESULT:      -7.1      3.869      6.040
REMARK  5 active torsions:
REMARK  status: ('A' for Active; 'I' for Inactive)
REMARK    1  A    between atoms: C5_8  and  C6_9 
REMARK    2  A    between atoms: C6_9  and  C14_20 
REMARK    3  A    between atoms: C7_10  and  N3_11 
REMARK    4  A    between atoms: N3_11  and  C8_12 
REMARK    5  A    between atoms: C14_20  and  C15_21 
ROOT
HETATM    1  C6  UNL     1      25.781   0.467  52.483  1.00  0.00    -0.038 C 
HETATM    2  C7  UNL     1      26.191   1.551  51.816  1.00  0.00     0.095 C 
ENDROOT
BRANCH   1   3
HETATM    3  C5  UNL     1      24.354   0.285  52.623  1.00  0.00     0.038 C 
HETATM    4  C4  UNL     1      23.343  -0.166  53.300  1.00  0.00     0.068 A 
HETATM    5  N1  UNL     1      23.324  -0.867  54.562  1.00  0.00    -0.346 N 
HETATM    6  C3  UNL     1      21.897  -0.065  52.887  1.00  0.00     0.343 A 
HETATM    7  C1  UNL     1      24.411  -1.235  55.427  1.00  0.00     0.157 C 
HETATM    8  C2  UNL     1      21.983  -1.167  54.873  1.00  0.00     0.207 A 
HETATM    9  N2  UNL     1      21.227  -0.726  53.956  1.00  0.00    -0.242 NA
HETATM   10  F1  UNL     1      21.495   1.253  52.776  1.00  0.00    -0.218 F 
ENDBRANCH   1   3
BRANCH   1  11
HETATM   11  C14 UNL     1      26.951  -0.333  52.936  1.00  0.00     0.076 C 
BRANCH  11  12
HETATM   12  C15 UNL     1      27.587   0.225  54.163  1.00  0.00     0.395 C 
HETATM   13  O1  UNL     1      28.351  -0.376  54.927  1.00  0.00    -0.429 OA
ENDBRANCH  11  12
ENDBRANCH   1  11
BRANCH   2  14
HETATM   14  N3  UNL     1      25.414   2.582  51.206  1.00  0.00    -0.364 N 
HETATM   15  H8  UNL     1      24.437   2.336  51.492  1.00  0.00     0.165 HD
BRANCH  14  16
HETATM   16  C8  UNL     1      25.730   3.700  50.408  1.00  0.00     0.053 A 
HETATM   17  C9  UNL     1      26.832   3.646  49.580  1.00  0.00     0.032 A 
HETATM   18  C10 UNL     1      27.078   4.767  48.835  1.00  0.00     0.021 A 
HETATM   19  C11 UNL     1      26.303   5.930  48.862  1.00  0.00     0.012 A 
HETATM   20 BR1  UNL     1      26.714   7.441  47.795  1.00  0.00    -0.051 Br
HETATM   21  C12 UNL     1      25.222   5.909  49.710  1.00  0.00     0.045 A 
HETATM   22  C13 UNL     1      24.911   4.809  50.496  1.00  0.00     0.062 A 
HETATM   23 CL1  UNL     1      23.525   4.825  51.561  1.00  0.00    -0.082 Cl
ENDBRANCH  14  16
ENDBRANCH   2  14
TORSDOF 5
ENDMDL
MODEL 5
REMARK VINA RESULT:      -7.0      3.915      5.926
REMARK  5 active torsions:
REMARK  status: ('A' for Active; 'I' for Inactive)
REMARK    1  A    between atoms: C5_8  and  C6_9 
REMARK    2  A    between atoms: C6_9  and  C14_20 
REMARK    3  A    between atoms: C7_10  and  N3_11 
REMARK    4  A    between atoms: N3_11  and  C8_12 
REMARK    5  A    between atoms: C14_20  and  C15_21 
ROOT
HETATM    1  C6  UNL     1      23.553   1.961  51.040  1.00  0.00    -0.038 C 
HETATM    2  C7  UNL     1      23.773   3.227  50.668  1.00  0.00     0.095 C 
ENDROOT
BRANCH   1   3
HETATM    3  C5  UNL     1      24.601   1.307  51.789  1.00  0.00     0.038 C 
HETATM    4  C4  UNL     1      24.964   0.514  52.750  1.00  0.00     0.068 A 
HETATM    5  N1  UNL     1      24.149  -0.214  53.696  1.00  0.00    -0.346 N 
HETATM    6  C3  UNL     1      26.385   0.176  53.118  1.00  0.00     0.343 A 
HETATM    7  C1  UNL     1      22.719  -0.283  53.817  1.00  0.00     0.157 C 
HETATM    8  C2  UNL     1      25.011  -0.919  54.559  1.00  0.00     0.207 A 
HETATM    9  N2  UNL     1      26.215  -0.695  54.232  1.00  0.00    -0.242 NA
HETATM   10  F1  UNL     1      27.039  -0.456  52.077  1.00  0.00    -0.218 F 
ENDBRANCH   1   3
BRANCH   1  11
HETATM   11  C14 UNL     1      22.212   1.514  50.576  1.00  0.00     0.076 C 
BRANCH  11  12
HETATM   12  C15 UNL     1      21.102   2.093  51.385  1.00  0.00     0.395 C 
HETATM   13  O1  UNL     1      20.116   1.483  51.813  1.00  0.00    -0.429 OA
ENDBRANCH  11  12
ENDBRANCH   1  11
BRANCH   2  14
HETATM   14  N3  UNL     1      24.915   4.049  50.904  1.00  0.00    -0.364 N 
HETATM   15  H8  UNL     1      25.017   4.012  51.946  1.00  0.00     0.165 HD
BRANCH  14  16
HETATM   16  C8  UNL     1      25.781   4.781  50.067  1.00  0.00     0.053 A 
HETATM   17  C9  UNL     1      26.797   4.122  49.407  1.00  0.00     0.032 A 
HETATM   18  C10 UNL     1      27.597   4.896  48.612  1.00  0.00     0.021 A 
HETATM   19  C11 UNL     1      27.454   6.274  48.435  1.00  0.00     0.012 A 
HETATM   20 BR1  UNL     1      28.609   7.274  47.313  1.00  0.00    -0.051 Br
HETATM   21  C12 UNL     1      26.420   6.862  49.124  1.00  0.00     0.045 A 
HETATM   22  C13 UNL     1      25.568   6.141  49.948  1.00  0.00     0.062 A 
HETATM   23 CL1  UNL     1      24.265   6.930  50.807  1.00  0.00    -0.082 Cl
ENDBRANCH  14  16
ENDBRANCH   2  14
TORSDOF 5
ENDMDL
MODEL 6
REMARK VINA RESULT:      -7.0      3.353      5.071
REMARK  5 active torsions:
REMARK  status: ('A' for Active; 'I' for Inactive)
REMARK    1  A    between atoms: C5_8  and  C6_9 
REMARK    2  A    between atoms: C6_9  and  C14_20 
REMARK    3  A    between atoms: C7_10  and  N3_11 
REMARK    4  A    between atoms: N3_11  and  C8_12 
REMARK    5  A    between atoms: C14_20  and  C15_21 
ROOT
HETATM    1  C6  UNL     1      25.952   0.476  52.408  1.00  0.00    -0.038 C 
HETATM    2  C7  UNL     1      26.528   1.647  52.112  1.00  0.00     0.095 C 
ENDROOT
BRANCH   1   3
HETATM    3  C5  UNL     1      24.521   0.482  52.602  1.00  0.00     0.038 C 
HETATM    4  C4  UNL     1      23.482   0.118  53.290  1.00  0.00     0.068 A 
HETATM    5  N1  UNL     1      23.411  -0.679  54.493  1.00  0.00    -0.346 N 
HETATM    6  C3  UNL     1      22.050   0.452  52.958  1.00  0.00     0.343 A 
HETATM    7  C1  UNL     1      24.466  -1.265  55.272  1.00  0.00     0.157 C 
HETATM    8  C2  UNL     1      22.054  -0.816  54.844  1.00  0.00     0.207 A 
HETATM    9  N2  UNL     1      21.333  -0.199  54.003  1.00  0.00    -0.242 NA
HETATM   10  F1  UNL     1      21.835   1.818  52.971  1.00  0.00    -0.218 F 
ENDBRANCH   1   3
BRANCH   1  11
HETATM   11  C14 UNL     1      26.976  -0.602  52.461  1.00  0.00     0.076 C 
BRANCH  11  12
HETATM   12  C15 UNL     1      28.010  -0.361  53.507  1.00  0.00     0.395 C 
HETATM   13  O1  UNL     1      27.836  -0.408  54.731  1.00  0.00    -0.429 OA
ENDBRANCH  11  12
ENDBRANCH   1  11
BRANCH   2  14
HETATM   14  N3  UNL     1      25.927   2.933  51.955  1.00  0.00    -0.364 N 
HETATM   15  H8  UNL     1      26.413   3.506  52.684  1.00  0.00     0.165 HD
BRANCH  14  16
HETATM   16  C8  UNL     1      24.936   3.449  51.096  1.00  0.00     0.053 A 
HETATM   17  C9  UNL     1      25.048   3.242  49.737  1.00  0.00     0.032 A 
HETATM   18  C10 UNL     1      24.051   3.772  48.965  1.00  0.00     0.021 A 
HETATM   19  C11 UNL     1      22.958   4.491  49.456  1.00  0.00     0.012 A 
HETATM   20 BR1  UNL     1      21.617   5.193  48.315  1.00  0.00    -0.051 Br
HETATM   21  C12 UNL     1      22.913   4.657  50.819  1.00  0.00     0.045 A 
HETATM   22  C13 UNL     1      23.889   4.148  51.665  1.00  0.00     0.062 A 
HETATM   23 CL1  UNL     1      23.793   4.383  53.395  1.00  0.00    -0.082 Cl
ENDBRANCH  14  16
ENDBRANCH   2  14
TORSDOF 5
ENDMDL
MODEL 7
REMARK VINA RESULT:      -6.8      3.850      5.803
REMARK  5 active torsions:
REMARK  status: ('A' for Active; 'I' for Inactive)
REMARK    1  A    between atoms: C5_8  and  C6_9 
REMARK    2  A    between atoms: C6_9  and  C14_20 
REMARK    3  A    between atoms: C7_10  and  N3_11 
REMARK    4  A    between atoms: N3_11  and  C8_12 
REMARK    5  A    between atoms: C14_20  and  C15_21 
ROOT
HETATM    1  C6  UNL     1      22.303   1.600  52.199  1.00  0.00    -0.038 C 
HETATM    2  C7  UNL     1      22.464   2.200  51.014  1.00  0.00     0.095 C 
ENDROOT
BRANCH   1   3
HETATM    3  C5  UNL     1      23.465   0.961  52.772  1.00  0.00     0.038 C 
HETATM    4  C4  UNL     1      23.980   0.131  53.627  1.00  0.00     0.068 A 
HETATM    5  N1  UNL     1      23.323  -0.699  54.608  1.00  0.00    -0.346 N 
HETATM    6  C3  UNL     1      25.451  -0.148  53.800  1.00  0.00     0.343 A 
HETATM    7  C1  UNL     1      21.923  -0.857  54.892  1.00  0.00     0.157 C 
HETATM    8  C2  UNL     1      24.316  -1.408  55.313  1.00  0.00     0.207 A 
HETATM    9  N2  UNL     1      25.459  -1.096  54.863  1.00  0.00    -0.242 NA
HETATM   10  F1  UNL     1      26.004  -0.674  52.648  1.00  0.00    -0.218 F 
ENDBRANCH   1   3
BRANCH   1  11
HETATM   11  C14 UNL     1      20.899   1.752  52.665  1.00  0.00     0.076 C 
BRANCH  11  12
HETATM   12  C15 UNL     1      20.107   2.682  51.812  1.00  0.00     0.395 C 
HETATM   13  O1  UNL     1      19.338   3.564  52.212  1.00  0.00    -0.429 OA
ENDBRANCH  11  12
ENDBRANCH   1  11
BRANCH   2  14
HETATM   14  N3  UNL     1      23.639   2.306  50.209  1.00  0.00    -0.364 N 
HETATM   15  H8  UNL     1      23.843   1.308  49.964  1.00  0.00     0.165 HD
BRANCH  14  16
HETATM   16  C8  UNL     1      24.428   3.388  49.772  1.00  0.00     0.053 A 
HETATM   17  C9  UNL     1      23.823   4.445  49.123  1.00  0.00     0.032 A 
HETATM   18  C10 UNL     1      24.651   5.459  48.727  1.00  0.00     0.021 A 
HETATM   19  C11 UNL     1      26.033   5.488  48.932  1.00  0.00     0.012 A 
HETATM   20 BR1  UNL     1      27.110   6.935  48.350  1.00  0.00    -0.051 Br
HETATM   21  C12 UNL     1      26.565   4.401  49.584  1.00  0.00     0.045 A 
HETATM   22  C13 UNL     1      25.788   3.336  50.015  1.00  0.00     0.062 A 
HETATM   23 CL1  UNL     1      26.506   1.973  50.842  1.00  0.00    -0.082 Cl
ENDBRANCH  14  16
ENDBRANCH   2  14
TORSDOF 5
ENDMDL
MODEL 8
REMARK VINA RESULT:      -6.8      4.057      6.102
REMARK  5 active torsions:
REMARK  status: ('A' for Active; 'I' for Inactive)
REMARK    1  A    between atoms: C5_8  and  C6_9 
REMARK    2  A    between atoms: C6_9  and  C14_20 
REMARK    3  A    between atoms: C7_10  and  N3_11 
REMARK    4  A    between atoms: N3_11  and  C8_12 
REMARK    5  A    between atoms: C14_20  and  C15_21 
ROOT
HETATM    1  C6  UNL     1      22.602   1.973  49.741  1.00  0.00    -0.038 C 
HETATM    2  C7  UNL     1      22.667   1.310  50.901  1.00  0.00     0.095 C 
ENDROOT
BRANCH   1   3
HETATM    3  C5  UNL     1      23.563   3.033  49.539  1.00  0.00     0.038 C 
HETATM    4  C4  UNL     1      24.029   4.200  49.866  1.00  0.00     0.068 A 
HETATM    5  N1  UNL     1      23.578   5.114  50.888  1.00  0.00    -0.346 N 
HETATM    6  C3  UNL     1      25.192   4.894  49.206  1.00  0.00     0.343 A 
HETATM    7  C1  UNL     1      22.510   4.977  51.839  1.00  0.00     0.157 C 
HETATM    8  C2  UNL     1      24.396   6.260  50.838  1.00  0.00     0.207 A 
HETATM    9  N2  UNL     1      25.261   6.124  49.922  1.00  0.00    -0.242 NA
HETATM   10  F1  UNL     1      26.358   4.164  49.340  1.00  0.00    -0.218 F 
ENDBRANCH   1   3
BRANCH   1  11
HETATM   11  C14 UNL     1      21.508   1.425  48.895  1.00  0.00     0.076 C 
BRANCH  11  12
HETATM   12  C15 UNL     1      20.156   1.830  49.372  1.00  0.00     0.395 C 
HETATM   13  O1  UNL     1      19.279   1.075  49.807  1.00  0.00    -0.429 OA
ENDBRANCH  11  12
ENDBRANCH   1  11
BRANCH   2  14
HETATM   14  N3  UNL     1      23.562   1.497  51.997  1.00  0.00    -0.364 N 
HETATM   15  H8  UNL     1      23.062   2.204  52.586  1.00  0.00     0.165 HD
BRANCH  14  16
HETATM   16  C8  UNL     1      24.815   0.950  52.338  1.00  0.00     0.053 A 
HETATM   17  C9  UNL     1      25.958   1.492  51.788  1.00  0.00     0.032 A 
HETATM   18  C10 UNL     1      27.138   0.911  52.164  1.00  0.00     0.021 A 
HETATM   19  C11 UNL     1      27.252  -0.169  53.043  1.00  0.00     0.012 A 
HETATM   20 BR1  UNL     1      28.930  -0.917  53.512  1.00  0.00    -0.051 Br
HETATM   21  C12 UNL     1      26.071  -0.656  53.550  1.00  0.00     0.045 A 
HETATM   22  C13 UNL     1      24.838  -0.117  53.215  1.00  0.00     0.062 A 
HETATM   23 CL1  UNL     1      23.359  -0.767  53.884  1.00  0.00    -0.082 Cl
ENDBRANCH  14  16
ENDBRANCH   2  14
TORSDOF 5
ENDMDL
MODEL 9
REMARK VINA RESULT:      -6.7      3.205      5.293
REMARK  5 active torsions:
REMARK  status: ('A' for Active; 'I' for Inactive)
REMARK    1  A    between atoms: C5_8  and  C6_9 
REMARK    2  A    between atoms: C6_9  and  C14_20 
REMARK    3  A    between atoms: C7_10  and  N3_11 
REMARK    4  A    between atoms: N3_11  and  C8_12 
REMARK    5  A    between atoms: C14_20  and  C15_21 
ROOT
HETATM    1  C6  UNL     1      25.903   3.589  50.231  1.00  0.00    -0.038 C 
HETATM    2  C7  UNL     1      26.326   2.758  51.191  1.00  0.00     0.095 C 
ENDROOT
BRANCH   1   3
HETATM    3  C5  UNL     1      24.683   4.319  50.489  1.00  0.00     0.038 C 
HETATM    4  C4  UNL     1      23.424   4.519  50.244  1.00  0.00     0.068 A 
HETATM    5  N1  UNL     1      22.549   3.835  49.320  1.00  0.00    -0.346 N 
HETATM    6  C3  UNL     1      22.562   5.571  50.892  1.00  0.00     0.343 A 
HETATM    7  C1  UNL     1      22.821   2.733  48.440  1.00  0.00     0.157 C 
HETATM    8  C2  UNL     1      21.276   4.433  49.403  1.00  0.00     0.207 A 
HETATM    9  N2  UNL     1      21.303   5.370  50.257  1.00  0.00    -0.242 NA
HETATM   10  F1  UNL     1      22.475   5.381  52.259  1.00  0.00    -0.218 F 
ENDBRANCH   1   3
BRANCH   1  11
HETATM   11  C14 UNL     1      26.842   3.564  49.078  1.00  0.00     0.076 C 
BRANCH  11  12
HETATM   12  C15 UNL     1      27.498   4.881  48.844  1.00  0.00     0.395 C 
HETATM   13  O1  UNL     1      28.671   5.061  48.496  1.00  0.00    -0.429 OA
ENDBRANCH  11  12
ENDBRANCH   1  11
BRANCH   2  14
HETATM   14  N3  UNL     1      25.739   2.475  52.461  1.00  0.00    -0.364 N 
HETATM   15  H8  UNL     1      26.206   3.169  53.092  1.00  0.00     0.165 HD
BRANCH  14  16
HETATM   16  C8  UNL     1      24.777   1.547  52.908  1.00  0.00     0.053 A 
HETATM   17  C9  UNL     1      23.438   1.858  52.796  1.00  0.00     0.032 A 
HETATM   18  C10 UNL     1      22.562   0.910  53.250  1.00  0.00     0.021 A 
HETATM   19  C11 UNL     1      22.931  -0.317  53.806  1.00  0.00     0.012 A 
HETATM   20 BR1  UNL     1      21.651  -1.577  54.411  1.00  0.00    -0.051 Br
HETATM   21  C12 UNL     1      24.282  -0.557  53.885  1.00  0.00     0.045 A 
HETATM   22  C13 UNL     1      25.229   0.356  53.444  1.00  0.00     0.062 A 
HETATM   23 CL1  UNL     1      26.938   0.010  53.563  1.00  0.00    -0.082 Cl
ENDBRANCH  14  16
ENDBRANCH   2  14
TORSDOF 5
ENDMDL
