MODEL 1
REMARK VINA RESULT:      -8.9      0.000      0.000
REMARK  5 active torsions:
REMARK  status: ('A' for Active; 'I' for Inactive)
REMARK    1  A    between atoms: C5_5  and  C6_6 
REMARK    2  A    between atoms: C8_9  and  C9_10 
REMARK    3  A    between atoms: C12_13  and  O1_14 
REMARK    4  A    between atoms: C13_15  and  O2_16 
REMARK    5  A    between atoms: C16_19  and  O3_20 
ROOT
HETATM    1  C6  UNL     1      24.625   0.063  53.357  1.00  0.00     0.052 C 
HETATM    2  C7  UNL     1      24.877  -0.638  54.604  1.00  0.00     0.100 C 
HETATM    3  N1  UNL     1      25.094  -1.218  55.614  1.00  0.00    -0.191 NA
HETATM    4  C8  UNL     1      25.615   0.179  52.473  1.00  0.00     0.034 C 
ENDROOT
BRANCH   1   5
HETATM    5  C5  UNL     1      23.261   0.602  53.134  1.00  0.00    -0.031 A 
HETATM    6  C4  UNL     1      23.242   1.785  52.539  1.00  0.00     0.009 A 
HETATM    7  C3  UNL     1      22.102   2.595  52.173  1.00  0.00     0.007 A 
HETATM    8  C2  UNL     1      20.815   2.365  52.393  1.00  0.00    -0.060 A 
HETATM    9  C1  UNL     1      19.894   3.416  51.875  1.00  0.00     0.048 C 
HETATM   10  C17 UNL     1      20.160   1.257  53.054  1.00  0.00     0.039 A 
HETATM   11  C16 UNL     1      20.840   0.212  53.526  1.00  0.00     0.048 A 
HETATM   12  C15 UNL     1      22.206  -0.286  53.631  1.00  0.00     0.104 A 
BRANCH  11  13
HETATM   13  O3  UNL     1      20.085  -0.793  54.143  1.00  0.00    -0.365 OA
HETATM   14  H14 UNL     1      20.483  -1.709  54.299  1.00  0.00     0.217 HD
ENDBRANCH  11  13
ENDBRANCH   1   5
BRANCH   4  15
HETATM   15  C9  UNL     1      26.915  -0.409  52.828  1.00  0.00    -0.032 A 
HETATM   16  C10 UNL     1      27.855   0.556  53.222  1.00  0.00     0.014 A 
HETATM   17  C11 UNL     1      29.116   0.133  53.619  1.00  0.00     0.040 A 
HETATM   18  C12 UNL     1      29.424  -1.212  53.619  1.00  0.00     0.098 A 
HETATM   19  C13 UNL     1      28.514  -2.164  53.236  1.00  0.00     0.099 A 
HETATM   20  C14 UNL     1      27.240  -1.759  52.834  1.00  0.00     0.051 A 
BRANCH  18  21
HETATM   21  O1  UNL     1      30.679  -1.650  54.013  1.00  0.00    -0.358 OA
HETATM   22  H9  UNL     1      31.323  -2.055  53.313  1.00  0.00     0.217 HD
ENDBRANCH  18  21
BRANCH  19  23
HETATM   23  O2  UNL     1      28.768  -3.520  53.219  1.00  0.00    -0.358 OA
HETATM   24  H10 UNL     1      29.296  -3.903  52.438  1.00  0.00     0.217 HD
ENDBRANCH  19  23
ENDBRANCH   4  15
TORSDOF 5
ENDMDL
MODEL 2
REMARK VINA RESULT:      -8.8      1.558      2.193
REMARK  5 active torsions:
REMARK  status: ('A' for Active; 'I' for Inactive)
REMARK    1  A    between atoms: C5_5  and  C6_6 
REMARK    2  A    between atoms: C8_9  and  C9_10 
REMARK    3  A    between atoms: C12_13  and  O1_14 
REMARK    4  A    between atoms: C13_15  and  O2_16 
REMARK    5  A    between atoms: C16_19  and  O3_20 
ROOT
HETATM    1  C6  UNL     1      24.413  -0.069  53.419  1.00  0.00     0.052 C 
HETATM    2  C7  UNL     1      24.889  -0.644  54.665  1.00  0.00     0.100 C 
HETATM    3  N1  UNL     1      25.290  -1.115  55.675  1.00  0.00    -0.191 NA
HETATM    4  C8  UNL     1      25.296   0.478  52.584  1.00  0.00     0.034 C 
ENDROOT
BRANCH   1   5
HETATM    5  C5  UNL     1      22.957  -0.139  53.140  1.00  0.00    -0.031 A 
HETATM    6  C4  UNL     1      22.565   0.634  52.138  1.00  0.00     0.009 A 
HETATM    7  C3  UNL     1      21.235   0.813  51.601  1.00  0.00     0.007 A 
HETATM    8  C2  UNL     1      20.093   0.284  52.019  1.00  0.00    -0.060 A 
HETATM    9  C1  UNL     1      18.894   0.681  51.228  1.00  0.00     0.048 C 
HETATM   10  C17 UNL     1      19.823  -0.617  53.119  1.00  0.00     0.039 A 
HETATM   11  C16 UNL     1      20.796  -1.105  53.889  1.00  0.00     0.048 A 
HETATM   12  C15 UNL     1      22.244  -1.046  54.044  1.00  0.00     0.104 A 
BRANCH  11  13
HETATM   13  O3  UNL     1      20.399  -1.967  54.918  1.00  0.00    -0.365 OA
HETATM   14  H14 UNL     1      21.089  -2.399  55.518  1.00  0.00     0.217 HD
ENDBRANCH  11  13
ENDBRANCH   1   5
BRANCH   4  15
HETATM   15  C9  UNL     1      26.709   0.472  52.992  1.00  0.00    -0.032 A 
HETATM   16  C10 UNL     1      27.340  -0.756  52.737  1.00  0.00     0.014 A 
HETATM   17  C11 UNL     1      28.688  -0.887  53.043  1.00  0.00     0.040 A 
HETATM   18  C12 UNL     1      29.378   0.177  53.585  1.00  0.00     0.098 A 
HETATM   19  C13 UNL     1      28.772   1.381  53.838  1.00  0.00     0.099 A 
HETATM   20  C14 UNL     1      27.418   1.534  53.538  1.00  0.00     0.051 A 
BRANCH  18  21
HETATM   21  O1  UNL     1      30.725   0.062  53.896  1.00  0.00    -0.358 OA
HETATM   22  H9  UNL     1      31.105   0.561  54.718  1.00  0.00     0.217 HD
ENDBRANCH  18  21
BRANCH  19  23
HETATM   23  O2  UNL     1      29.414   2.476  54.378  1.00  0.00    -0.358 OA
HETATM   24  H10 UNL     1      29.121   2.806  55.294  1.00  0.00     0.217 HD
ENDBRANCH  19  23
ENDBRANCH   4  15
TORSDOF 5
ENDMDL
MODEL 3
REMARK VINA RESULT:      -8.3      2.449      7.655
REMARK  5 active torsions:
REMARK  status: ('A' for Active; 'I' for Inactive)
REMARK    1  A    between atoms: C5_5  and  C6_6 
REMARK    2  A    between atoms: C8_9  and  C9_10 
REMARK    3  A    between atoms: C12_13  and  O1_14 
REMARK    4  A    between atoms: C13_15  and  O2_16 
REMARK    5  A    between atoms: C16_19  and  O3_20 
ROOT
HETATM    1  C6  UNL     1      24.341   0.784  52.455  1.00  0.00     0.052 C 
HETATM    2  C7  UNL     1      23.338  -0.007  53.148  1.00  0.00     0.100 C 
HETATM    3  N1  UNL     1      22.511  -0.640  53.712  1.00  0.00    -0.191 NA
HETATM    4  C8  UNL     1      23.942   1.692  51.566  1.00  0.00     0.034 C 
ENDROOT
BRANCH   1   5
HETATM    5  C5  UNL     1      25.764   0.539  52.794  1.00  0.00    -0.031 A 
HETATM    6  C4  UNL     1      26.138  -0.725  52.660  1.00  0.00     0.009 A 
HETATM    7  C3  UNL     1      27.435  -1.315  52.902  1.00  0.00     0.007 A 
HETATM    8  C2  UNL     1      28.538  -0.737  53.360  1.00  0.00    -0.060 A 
HETATM    9  C1  UNL     1      29.712  -1.646  53.489  1.00  0.00     0.048 C 
HETATM   10  C17 UNL     1      28.784   0.633  53.755  1.00  0.00     0.039 A 
HETATM   11  C16 UNL     1      27.850   1.578  53.650  1.00  0.00     0.048 A 
HETATM   12  C15 UNL     1      26.469   1.752  53.219  1.00  0.00     0.104 A 
BRANCH  11  13
HETATM   13  O3  UNL     1      28.219   2.864  54.066  1.00  0.00    -0.365 OA
HETATM   14  H14 UNL     1      28.443   3.043  55.036  1.00  0.00     0.217 HD
ENDBRANCH  11  13
ENDBRANCH   1   5
BRANCH   4  15
HETATM   15  C9  UNL     1      22.496   1.827  51.335  1.00  0.00    -0.032 A 
HETATM   16  C10 UNL     1      22.039   1.021  50.281  1.00  0.00     0.014 A 
HETATM   17  C11 UNL     1      20.684   1.025  49.979  1.00  0.00     0.040 A 
HETATM   18  C12 UNL     1      19.818   1.813  50.709  1.00  0.00     0.098 A 
HETATM   19  C13 UNL     1      20.253   2.605  51.741  1.00  0.00     0.099 A 
HETATM   20  C14 UNL     1      21.611   2.615  52.061  1.00  0.00     0.051 A 
BRANCH  18  21
HETATM   21  O1  UNL     1      18.462   1.828  50.420  1.00  0.00    -0.358 OA
HETATM   22  H9  UNL     1      17.774   1.899  51.190  1.00  0.00     0.217 HD
ENDBRANCH  18  21
BRANCH  19  23
HETATM   23  O2  UNL     1      19.431   3.410  52.502  1.00  0.00    -0.358 OA
HETATM   24  H10 UNL     1      19.843   4.208  52.979  1.00  0.00     0.217 HD
ENDBRANCH  19  23
ENDBRANCH   4  15
TORSDOF 5
ENDMDL
MODEL 4
REMARK VINA RESULT:      -8.3      2.342      3.157
REMARK  5 active torsions:
REMARK  status: ('A' for Active; 'I' for Inactive)
REMARK    1  A    between atoms: C5_5  and  C6_6 
REMARK    2  A    between atoms: C8_9  and  C9_10 
REMARK    3  A    between atoms: C12_13  and  O1_14 
REMARK    4  A    between atoms: C13_15  and  O2_16 
REMARK    5  A    between atoms: C16_19  and  O3_20 
ROOT
HETATM    1  C6  UNL     1      22.034  -0.004  52.951  1.00  0.00     0.052 C 
HETATM    2  C7  UNL     1      22.341  -0.623  54.229  1.00  0.00     0.100 C 
HETATM    3  N1  UNL     1      22.606  -1.131  55.266  1.00  0.00    -0.191 NA
HETATM    4  C8  UNL     1      23.013   0.597  52.276  1.00  0.00     0.034 C 
ENDROOT
BRANCH   1   5
HETATM    5  C5  UNL     1      20.636  -0.091  52.463  1.00  0.00    -0.031 A 
HETATM    6  C4  UNL     1      20.450   0.450  51.268  1.00  0.00     0.009 A 
HETATM    7  C3  UNL     1      19.231   0.543  50.497  1.00  0.00     0.007 A 
HETATM    8  C2  UNL     1      18.007   0.155  50.828  1.00  0.00    -0.060 A 
HETATM    9  C1  UNL     1      16.970   0.401  49.787  1.00  0.00     0.048 C 
HETATM   10  C17 UNL     1      17.517  -0.469  52.038  1.00  0.00     0.039 A 
HETATM   11  C16 UNL     1      18.328  -0.801  53.043  1.00  0.00     0.048 A 
HETATM   12  C15 UNL     1      19.737  -0.752  53.413  1.00  0.00     0.104 A 
BRANCH  11  13
HETATM   13  O3  UNL     1      17.726  -1.399  54.156  1.00  0.00    -0.365 OA
HETATM   14  H14 UNL     1      16.719  -1.423  54.242  1.00  0.00     0.217 HD
ENDBRANCH  11  13
ENDBRANCH   1   5
BRANCH   4  15
HETATM   15  C9  UNL     1      24.352   0.602  52.883  1.00  0.00    -0.032 A 
HETATM   16  C10 UNL     1      24.715   1.863  53.383  1.00  0.00     0.014 A 
HETATM   17  C11 UNL     1      25.943   1.999  54.015  1.00  0.00     0.040 A 
HETATM   18  C12 UNL     1      26.779   0.909  54.139  1.00  0.00     0.098 A 
HETATM   19  C13 UNL     1      26.437  -0.326  53.654  1.00  0.00     0.099 A 
HETATM   20  C14 UNL     1      25.206  -0.486  53.015  1.00  0.00     0.051 A 
BRANCH  18  21
HETATM   21  O1  UNL     1      28.010   1.030  54.767  1.00  0.00    -0.358 OA
HETATM   22  H9  UNL     1      28.519   1.929  54.728  1.00  0.00     0.217 HD
ENDBRANCH  18  21
BRANCH  19  23
HETATM   23  O2  UNL     1      27.234  -1.449  53.751  1.00  0.00    -0.358 OA
HETATM   24  H10 UNL     1      28.221  -1.362  53.522  1.00  0.00     0.217 HD
ENDBRANCH  19  23
ENDBRANCH   4  15
TORSDOF 5
ENDMDL
MODEL 5
REMARK VINA RESULT:      -8.2      2.260      3.166
REMARK  5 active torsions:
REMARK  status: ('A' for Active; 'I' for Inactive)
REMARK    1  A    between atoms: C5_5  and  C6_6 
REMARK    2  A    between atoms: C8_9  and  C9_10 
REMARK    3  A    between atoms: C12_13  and  O1_14 
REMARK    4  A    between atoms: C13_15  and  O2_16 
REMARK    5  A    between atoms: C16_19  and  O3_20 
ROOT
HETATM    1  C6  UNL     1      24.169   0.399  52.784  1.00  0.00     0.052 C 
HETATM    2  C7  UNL     1      24.856   1.348  51.925  1.00  0.00     0.100 C 
HETATM    3  N1  UNL     1      25.427   2.124  51.236  1.00  0.00    -0.191 NA
HETATM    4  C8  UNL     1      24.878  -0.297  53.671  1.00  0.00     0.034 C 
ENDROOT
BRANCH   1   5
HETATM    5  C5  UNL     1      22.698   0.270  52.629  1.00  0.00    -0.031 A 
HETATM    6  C4  UNL     1      22.125  -0.482  53.557  1.00  0.00     0.009 A 
HETATM    7  C3  UNL     1      20.728  -0.820  53.712  1.00  0.00     0.007 A 
HETATM    8  C2  UNL     1      19.705  -0.496  52.933  1.00  0.00    -0.060 A 
HETATM    9  C1  UNL     1      18.384  -1.013  53.390  1.00  0.00     0.048 C 
HETATM   10  C17 UNL     1      19.664   0.278  51.711  1.00  0.00     0.039 A 
HETATM   11  C16 UNL     1      20.754   0.851  51.200  1.00  0.00     0.048 A 
HETATM   12  C15 UNL     1      22.179   0.998  51.469  1.00  0.00     0.104 A 
BRANCH  11  13
HETATM   13  O3  UNL     1      20.576   1.574  50.013  1.00  0.00    -0.365 OA
HETATM   14  H14 UNL     1      19.849   1.315  49.361  1.00  0.00     0.217 HD
ENDBRANCH  11  13
ENDBRANCH   1   5
BRANCH   4  15
HETATM   15  C9  UNL     1      26.329  -0.062  53.714  1.00  0.00    -0.032 A 
HETATM   16  C10 UNL     1      27.063  -1.101  53.121  1.00  0.00     0.014 A 
HETATM   17  C11 UNL     1      28.445  -0.990  53.062  1.00  0.00     0.040 A 
HETATM   18  C12 UNL     1      29.070   0.126  53.581  1.00  0.00     0.098 A 
HETATM   19  C13 UNL     1      28.364   1.146  54.163  1.00  0.00     0.099 A 
HETATM   20  C14 UNL     1      26.973   1.054  54.232  1.00  0.00     0.051 A 
BRANCH  18  21
HETATM   21  O1  UNL     1      30.450   0.252  53.529  1.00  0.00    -0.358 OA
HETATM   22  H9  UNL     1      30.996  -0.356  52.895  1.00  0.00     0.217 HD
ENDBRANCH  18  21
BRANCH  19  23
HETATM   23  O2  UNL     1      28.937   2.283  54.697  1.00  0.00    -0.358 OA
HETATM   24  H10 UNL     1      29.529   2.186  55.518  1.00  0.00     0.217 HD
ENDBRANCH  19  23
ENDBRANCH   4  15
TORSDOF 5
ENDMDL
MODEL 6
REMARK VINA RESULT:      -7.9      2.309      2.822
REMARK  5 active torsions:
REMARK  status: ('A' for Active; 'I' for Inactive)
REMARK    1  A    between atoms: C5_5  and  C6_6 
REMARK    2  A    between atoms: C8_9  and  C9_10 
REMARK    3  A    between atoms: C12_13  and  O1_14 
REMARK    4  A    between atoms: C13_15  and  O2_16 
REMARK    5  A    between atoms: C16_19  and  O3_20 
ROOT
HETATM    1  C6  UNL     1      24.818   1.399  52.559  1.00  0.00     0.052 C 
HETATM    2  C7  UNL     1      25.899   1.809  51.679  1.00  0.00     0.100 C 
HETATM    3  N1  UNL     1      26.790   2.140  50.972  1.00  0.00    -0.191 NA
HETATM    4  C8  UNL     1      25.050   0.448  53.463  1.00  0.00     0.034 C 
ENDROOT
BRANCH   1   5
HETATM    5  C5  UNL     1      23.510   2.082  52.406  1.00  0.00    -0.031 A 
HETATM    6  C4  UNL     1      22.492   1.255  52.218  1.00  0.00     0.009 A 
HETATM    7  C3  UNL     1      21.093   1.570  52.033  1.00  0.00     0.007 A 
HETATM    8  C2  UNL     1      20.513   2.761  51.958  1.00  0.00    -0.060 A 
HETATM    9  C1  UNL     1      19.036   2.725  51.763  1.00  0.00     0.048 C 
HETATM   10  C17 UNL     1      21.083   4.088  52.035  1.00  0.00     0.039 A 
HETATM   11  C16 UNL     1      22.382   4.289  52.259  1.00  0.00     0.048 A 
HETATM   12  C15 UNL     1      23.613   3.542  52.485  1.00  0.00     0.104 A 
BRANCH  11  13
HETATM   13  O3  UNL     1      22.804   5.624  52.312  1.00  0.00    -0.365 OA
HETATM   14  H14 UNL     1      23.091   6.103  51.470  1.00  0.00     0.217 HD
ENDBRANCH  11  13
ENDBRANCH   1   5
BRANCH   4  15
HETATM   15  C9  UNL     1      26.399  -0.137  53.501  1.00  0.00    -0.032 A 
HETATM   16  C10 UNL     1      27.338   0.709  54.110  1.00  0.00     0.014 A 
HETATM   17  C11 UNL     1      28.646   0.264  54.243  1.00  0.00     0.040 A 
HETATM   18  C12 UNL     1      28.999  -0.987  53.781  1.00  0.00     0.098 A 
HETATM   19  C13 UNL     1      28.090  -1.822  53.184  1.00  0.00     0.099 A 
HETATM   20  C14 UNL     1      26.769  -1.394  53.040  1.00  0.00     0.051 A 
BRANCH  18  21
HETATM   21  O1  UNL     1      30.301  -1.447  53.907  1.00  0.00    -0.358 OA
HETATM   22  H9  UNL     1      30.611  -1.871  54.798  1.00  0.00     0.217 HD
ENDBRANCH  18  21
BRANCH  19  23
HETATM   23  O2  UNL     1      28.388  -3.082  52.706  1.00  0.00    -0.358 OA
HETATM   24  H10 UNL     1      28.063  -3.889  53.232  1.00  0.00     0.217 HD
ENDBRANCH  19  23
ENDBRANCH   4  15
TORSDOF 5
ENDMDL
MODEL 7
REMARK VINA RESULT:      -7.6      3.379      7.869
REMARK  5 active torsions:
REMARK  status: ('A' for Active; 'I' for Inactive)
REMARK    1  A    between atoms: C5_5  and  C6_6 
REMARK    2  A    between atoms: C8_9  and  C9_10 
REMARK    3  A    between atoms: C12_13  and  O1_14 
REMARK    4  A    between atoms: C13_15  and  O2_16 
REMARK    5  A    between atoms: C16_19  and  O3_20 
ROOT
HETATM    1  C6  UNL     1      21.831   1.526  51.564  1.00  0.00     0.052 C 
HETATM    2  C7  UNL     1      20.965   2.508  52.193  1.00  0.00     0.100 C 
HETATM    3  N1  UNL     1      20.246   3.302  52.700  1.00  0.00    -0.191 NA
HETATM    4  C8  UNL     1      21.333   0.327  51.264  1.00  0.00     0.034 C 
ENDROOT
BRANCH   1   5
HETATM    5  C5  UNL     1      23.230   1.927  51.277  1.00  0.00    -0.031 A 
HETATM    6  C4  UNL     1      23.346   2.803  50.289  1.00  0.00     0.009 A 
HETATM    7  C3  UNL     1      24.544   3.403  49.748  1.00  0.00     0.007 A 
HETATM    8  C2  UNL     1      25.808   3.179  50.081  1.00  0.00    -0.060 A 
HETATM    9  C1  UNL     1      26.807   3.978  49.317  1.00  0.00     0.048 C 
HETATM   10  C17 UNL     1      26.374   2.283  51.067  1.00  0.00     0.039 A 
HETATM   11  C16 UNL     1      25.610   1.538  51.866  1.00  0.00     0.048 A 
HETATM   12  C15 UNL     1      24.206   1.260  52.143  1.00  0.00     0.104 A 
BRANCH  11  13
HETATM   13  O3  UNL     1      26.284   0.714  52.777  1.00  0.00    -0.365 OA
HETATM   14  H14 UNL     1      26.306  -0.287  52.641  1.00  0.00     0.217 HD
ENDBRANCH  11  13
ENDBRANCH   1   5
BRANCH   4  15
HETATM   15  C9  UNL     1      19.926   0.072  51.605  1.00  0.00    -0.032 A 
HETATM   16  C10 UNL     1      19.043   0.461  50.584  1.00  0.00     0.014 A 
HETATM   17  C11 UNL     1      17.684   0.243  50.762  1.00  0.00     0.040 A 
HETATM   18  C12 UNL     1      17.226  -0.343  51.924  1.00  0.00     0.098 A 
HETATM   19  C13 UNL     1      18.078  -0.726  52.927  1.00  0.00     0.099 A 
HETATM   20  C14 UNL     1      19.449  -0.516  52.769  1.00  0.00     0.051 A 
BRANCH  18  21
HETATM   21  O1  UNL     1      15.871  -0.567  52.116  1.00  0.00    -0.358 OA
HETATM   22  H9  UNL     1      15.553  -1.461  52.529  1.00  0.00     0.217 HD
ENDBRANCH  18  21
BRANCH  19  23
HETATM   23  O2  UNL     1      17.674  -1.316  54.107  1.00  0.00    -0.358 OA
HETATM   24  H10 UNL     1      18.134  -1.037  54.970  1.00  0.00     0.217 HD
ENDBRANCH  19  23
ENDBRANCH   4  15
TORSDOF 5
ENDMDL
MODEL 8
REMARK VINA RESULT:      -7.4      3.955      4.684
REMARK  5 active torsions:
REMARK  status: ('A' for Active; 'I' for Inactive)
REMARK    1  A    between atoms: C5_5  and  C6_6 
REMARK    2  A    between atoms: C8_9  and  C9_10 
REMARK    3  A    between atoms: C12_13  and  O1_14 
REMARK    4  A    between atoms: C13_15  and  O2_16 
REMARK    5  A    between atoms: C16_19  and  O3_20 
ROOT
HETATM    1  C6  UNL     1      25.206   2.922  50.832  1.00  0.00     0.052 C 
HETATM    2  C7  UNL     1      24.435   2.602  52.021  1.00  0.00     0.100 C 
HETATM    3  N1  UNL     1      23.814   2.328  52.992  1.00  0.00    -0.191 NA
HETATM    4  C8  UNL     1      26.433   2.419  50.707  1.00  0.00     0.034 C 
ENDROOT
BRANCH   1   5
HETATM    5  C5  UNL     1      24.567   3.787  49.810  1.00  0.00    -0.031 A 
HETATM    6  C4  UNL     1      25.159   4.962  49.656  1.00  0.00     0.009 A 
HETATM    7  C3  UNL     1      24.809   6.041  48.760  1.00  0.00     0.007 A 
HETATM    8  C2  UNL     1      23.784   6.125  47.922  1.00  0.00    -0.060 A 
HETATM    9  C1  UNL     1      23.721   7.390  47.137  1.00  0.00     0.048 C 
HETATM   10  C17 UNL     1      22.719   5.186  47.647  1.00  0.00     0.039 A 
HETATM   11  C16 UNL     1      22.663   3.988  48.229  1.00  0.00     0.048 A 
HETATM   12  C15 UNL     1      23.397   3.166  49.184  1.00  0.00     0.104 A 
BRANCH  11  13
HETATM   13  O3  UNL     1      21.579   3.175  47.874  1.00  0.00    -0.365 OA
HETATM   14  H14 UNL     1      21.449   2.275  48.316  1.00  0.00     0.217 HD
ENDBRANCH  11  13
ENDBRANCH   1   5
BRANCH   4  15
HETATM   15  C9  UNL     1      26.935   1.573  51.800  1.00  0.00    -0.032 A 
HETATM   16  C10 UNL     1      27.731   2.284  52.712  1.00  0.00     0.014 A 
HETATM   17  C11 UNL     1      28.241   1.611  53.814  1.00  0.00     0.040 A 
HETATM   18  C12 UNL     1      27.964   0.272  53.993  1.00  0.00     0.098 A 
HETATM   19  C13 UNL     1      27.188  -0.432  53.108  1.00  0.00     0.099 A 
HETATM   20  C14 UNL     1      26.665   0.225  51.994  1.00  0.00     0.051 A 
BRANCH  18  21
HETATM   21  O1  UNL     1      28.466  -0.414  55.089  1.00  0.00    -0.358 OA
HETATM   22  H9  UNL     1      27.871  -0.553  55.923  1.00  0.00     0.217 HD
ENDBRANCH  18  21
BRANCH  19  23
HETATM   23  O2  UNL     1      26.879  -1.771  53.240  1.00  0.00    -0.358 OA
HETATM   24  H10 UNL     1      27.355  -2.438  52.638  1.00  0.00     0.217 HD
ENDBRANCH  19  23
ENDBRANCH   4  15
TORSDOF 5
ENDMDL
MODEL 9
REMARK VINA RESULT:      -7.4      4.794      6.567
REMARK  5 active torsions:
REMARK  status: ('A' for Active; 'I' for Inactive)
REMARK    1  A    between atoms: C5_5  and  C6_6 
REMARK    2  A    between atoms: C8_9  and  C9_10 
REMARK    3  A    between atoms: C12_13  and  O1_14 
REMARK    4  A    between atoms: C13_15  and  O2_16 
REMARK    5  A    between atoms: C16_19  and  O3_20 
ROOT
HETATM    1  C6  UNL     1      24.010   2.703  51.628  1.00  0.00     0.052 C 
HETATM    2  C7  UNL     1      23.753   4.005  52.219  1.00  0.00     0.100 C 
HETATM    3  N1  UNL     1      23.556   5.072  52.693  1.00  0.00    -0.191 NA
HETATM    4  C8  UNL     1      24.567   2.644  50.419  1.00  0.00     0.034 C 
ENDROOT
BRANCH   1   5
HETATM    5  C5  UNL     1      23.645   1.503  52.421  1.00  0.00    -0.031 A 
HETATM    6  C4  UNL     1      22.341   1.274  52.479  1.00  0.00     0.009 A 
HETATM    7  C3  UNL     1      21.640   0.208  53.156  1.00  0.00     0.007 A 
HETATM    8  C2  UNL     1      22.134  -0.759  53.918  1.00  0.00    -0.060 A 
HETATM    9  C1  UNL     1      21.120  -1.704  54.465  1.00  0.00     0.048 C 
HETATM   10  C17 UNL     1      23.499  -1.044  54.303  1.00  0.00     0.039 A 
HETATM   11  C16 UNL     1      24.527  -0.322  53.855  1.00  0.00     0.048 A 
HETATM   12  C15 UNL     1      24.808   0.818  52.991  1.00  0.00     0.104 A 
BRANCH  11  13
HETATM   13  O3  UNL     1      25.797  -0.705  54.304  1.00  0.00    -0.365 OA
HETATM   14  H14 UNL     1      26.050  -0.594  55.276  1.00  0.00     0.217 HD
ENDBRANCH  11  13
ENDBRANCH   1   5
BRANCH   4  15
HETATM   15  C9  UNL     1      24.878   3.917  49.752  1.00  0.00    -0.032 A 
HETATM   16  C10 UNL     1      23.781   4.443  49.053  1.00  0.00     0.014 A 
HETATM   17  C11 UNL     1      23.928   5.662  48.405  1.00  0.00     0.040 A 
HETATM   18  C12 UNL     1      25.134   6.329  48.457  1.00  0.00     0.098 A 
HETATM   19  C13 UNL     1      26.213   5.825  49.137  1.00  0.00     0.099 A 
HETATM   20  C14 UNL     1      26.086   4.601  49.795  1.00  0.00     0.051 A 
BRANCH  18  21
HETATM   21  O1  UNL     1      25.296   7.548  47.815  1.00  0.00    -0.358 OA
HETATM   22  H9  UNL     1      25.620   7.571  46.833  1.00  0.00     0.217 HD
ENDBRANCH  18  21
BRANCH  19  23
HETATM   23  O2  UNL     1      27.440   6.450  49.221  1.00  0.00    -0.358 OA
HETATM   24  H10 UNL     1      27.598   7.284  48.661  1.00  0.00     0.217 HD
ENDBRANCH  19  23
ENDBRANCH   4  15
TORSDOF 5
ENDMDL
