MODEL 1
REMARK VINA RESULT:      -7.3      0.000      0.000
REMARK  5 active torsions:
REMARK  status: ('A' for Active; 'I' for Inactive)
REMARK    1  A    between atoms: O1_2  and  C2_3 
REMARK    2  A    between atoms: N1_6  and  C5_7 
REMARK    3  A    between atoms: C9_13  and  O2_14 
REMARK    4  A    between atoms: C11_16  and  O3_17 
REMARK    5  A    between atoms: C16_22  and  O4_23 
ROOT
HETATM    1  C5  UNL     1      23.924  -0.348  53.905  1.00  0.00     0.147 A 
HETATM    2  N2  UNL     1      23.241  -1.073  54.815  1.00  0.00    -0.223 NA
HETATM    3  C6  UNL     1      21.909  -0.973  54.957  1.00  0.00     0.236 A 
HETATM    4  N3  UNL     1      21.190  -0.127  54.180  1.00  0.00    -0.241 NA
HETATM    5  C7  UNL     1      21.811   0.630  53.246  1.00  0.00     0.075 A 
HETATM    6  C8  UNL     1      21.086   1.502  52.443  1.00  0.00     0.072 A 
HETATM    7  C9  UNL     1      21.778   2.254  51.502  1.00  0.00     0.103 A 
HETATM    8  C11 UNL     1      23.156   2.172  51.332  1.00  0.00     0.102 A 
HETATM    9  C13 UNL     1      23.821   1.285  52.163  1.00  0.00     0.057 A 
HETATM   10  C14 UNL     1      23.179   0.511  53.119  1.00  0.00     0.042 A 
ENDROOT
BRANCH   1  11
HETATM   11  N1  UNL     1      25.330  -0.398  53.696  1.00  0.00    -0.313 N 
HETATM   12  C4  UNL     1      25.958  -1.394  52.872  1.00  0.00     0.113 C 
HETATM   13  C3  UNL     1      27.169  -1.109  52.495  1.00  0.00     0.031 C 
HETATM   14  C2  UNL     1      27.994  -0.477  53.312  1.00  0.00     0.115 C 
HETATM   15  C16 UNL     1      27.448   0.581  54.172  1.00  0.00     0.118 C 
HETATM   16  C15 UNL     1      26.142   0.593  54.342  1.00  0.00     0.137 C 
BRANCH  14  17
HETATM   17  O1  UNL     1      29.314  -0.902  53.254  1.00  0.00    -0.352 OA
HETATM   18  C1  UNL     1      29.760  -2.209  53.457  1.00  0.00     0.210 C 
ENDBRANCH  14  17
BRANCH  15  19
HETATM   19  O4  UNL     1      28.386   1.440  54.703  1.00  0.00    -0.352 OA
HETATM   20  C17 UNL     1      28.851   2.482  53.832  1.00  0.00     0.210 C 
ENDBRANCH  15  19
ENDBRANCH   1  11
BRANCH   8  21
HETATM   21  O3  UNL     1      23.823   2.940  50.379  1.00  0.00    -0.353 OA
HETATM   22  C12 UNL     1      24.421   4.140  50.836  1.00  0.00     0.210 C 
ENDBRANCH   8  21
BRANCH   7  23
HETATM   23  O2  UNL     1      21.099   3.141  50.672  1.00  0.00    -0.353 OA
HETATM   24  C10 UNL     1      20.563   4.358  51.172  1.00  0.00     0.210 C 
ENDBRANCH   7  23
TORSDOF 5
ENDMDL
MODEL 2
REMARK VINA RESULT:      -7.1      2.650      4.137
REMARK  5 active torsions:
REMARK  status: ('A' for Active; 'I' for Inactive)
REMARK    1  A    between atoms: O1_2  and  C2_3 
REMARK    2  A    between atoms: N1_6  and  C5_7 
REMARK    3  A    between atoms: C9_13  and  O2_14 
REMARK    4  A    between atoms: C11_16  and  O3_17 
REMARK    5  A    between atoms: C16_22  and  O4_23 
ROOT
HETATM    1  C5  UNL     1      23.506   1.441  51.682  1.00  0.00     0.147 A 
HETATM    2  N2  UNL     1      23.449   2.142  50.531  1.00  0.00    -0.223 NA
HETATM    3  C6  UNL     1      22.320   2.251  49.811  1.00  0.00     0.236 A 
HETATM    4  N3  UNL     1      21.176   1.650  50.222  1.00  0.00    -0.241 NA
HETATM    5  C7  UNL     1      21.161   0.931  51.368  1.00  0.00     0.075 A 
HETATM    6  C8  UNL     1      19.996   0.310  51.801  1.00  0.00     0.072 A 
HETATM    7  C9  UNL     1      20.041  -0.416  52.985  1.00  0.00     0.103 A 
HETATM    8  C11 UNL     1      21.195  -0.545  53.750  1.00  0.00     0.102 A 
HETATM    9  C13 UNL     1      22.323   0.097  53.265  1.00  0.00     0.057 A 
HETATM   10  C14 UNL     1      22.332   0.833  52.089  1.00  0.00     0.042 A 
ENDROOT
BRANCH   1  11
HETATM   11  N1  UNL     1      24.661   1.280  52.496  1.00  0.00    -0.313 N 
HETATM   12  C4  UNL     1      25.325   2.386  53.129  1.00  0.00     0.113 C 
HETATM   13  C3  UNL     1      26.125   2.062  54.101  1.00  0.00     0.031 C 
HETATM   14  C2  UNL     1      26.848   0.957  54.033  1.00  0.00     0.115 C 
HETATM   15  C16 UNL     1      26.241  -0.237  53.430  1.00  0.00     0.118 C 
HETATM   16  C15 UNL     1      25.174  -0.047  52.683  1.00  0.00     0.137 C 
BRANCH  14  17
HETATM   17  O1  UNL     1      28.129   1.064  54.558  1.00  0.00    -0.352 OA
HETATM   18  C1  UNL     1      29.313   1.084  53.820  1.00  0.00     0.210 C 
ENDBRANCH  14  17
BRANCH  15  19
HETATM   19  O4  UNL     1      26.876  -1.423  53.726  1.00  0.00    -0.352 OA
HETATM   20  C17 UNL     1      27.236  -2.244  52.604  1.00  0.00     0.210 C 
ENDBRANCH  15  19
ENDBRANCH   1  11
BRANCH   8  21
HETATM   21  O3  UNL     1      21.209  -1.280  54.934  1.00  0.00    -0.353 OA
HETATM   22  C12 UNL     1      22.479  -1.685  55.415  1.00  0.00     0.210 C 
ENDBRANCH   8  21
BRANCH   7  23
HETATM   23  O2  UNL     1      18.901  -1.056  53.462  1.00  0.00    -0.353 OA
HETATM   24  C10 UNL     1      17.711  -1.120  52.690  1.00  0.00     0.210 C 
ENDBRANCH   7  23
TORSDOF 5
ENDMDL
MODEL 3
REMARK VINA RESULT:      -7.0      2.107      6.288
REMARK  5 active torsions:
REMARK  status: ('A' for Active; 'I' for Inactive)
REMARK    1  A    between atoms: O1_2  and  C2_3 
REMARK    2  A    between atoms: N1_6  and  C5_7 
REMARK    3  A    between atoms: C9_13  and  O2_14 
REMARK    4  A    between atoms: C11_16  and  O3_17 
REMARK    5  A    between atoms: C16_22  and  O4_23 
ROOT
HETATM    1  C5  UNL     1      23.250   1.712  52.281  1.00  0.00     0.147 A 
HETATM    2  N2  UNL     1      22.209   0.878  52.083  1.00  0.00    -0.223 NA
HETATM    3  C6  UNL     1      22.194  -0.378  52.561  1.00  0.00     0.236 A 
HETATM    4  N3  UNL     1      23.242  -0.860  53.273  1.00  0.00    -0.241 NA
HETATM    5  C7  UNL     1      24.320  -0.078  53.510  1.00  0.00     0.075 A 
HETATM    6  C8  UNL     1      25.401  -0.560  54.237  1.00  0.00     0.072 A 
HETATM    7  C9  UNL     1      26.480   0.290  54.448  1.00  0.00     0.103 A 
HETATM    8  C11 UNL     1      26.522   1.593  53.965  1.00  0.00     0.102 A 
HETATM    9  C13 UNL     1      25.414   2.014  53.248  1.00  0.00     0.057 A 
HETATM   10  C14 UNL     1      24.312   1.207  53.008  1.00  0.00     0.042 A 
ENDROOT
BRANCH   1  11
HETATM   11  N1  UNL     1      23.339   3.050  51.807  1.00  0.00    -0.313 N 
HETATM   12  C4  UNL     1      22.746   4.161  52.500  1.00  0.00     0.113 C 
HETATM   13  C3  UNL     1      23.199   5.329  52.153  1.00  0.00     0.031 C 
HETATM   14  C2  UNL     1      23.516   5.577  50.894  1.00  0.00     0.115 C 
HETATM   15  C16 UNL     1      24.156   4.510  50.113  1.00  0.00     0.118 C 
HETATM   16  C15 UNL     1      24.051   3.285  50.583  1.00  0.00     0.137 C 
BRANCH  14  17
HETATM   17  O1  UNL     1      23.197   6.853  50.451  1.00  0.00    -0.352 OA
HETATM   18  C1  UNL     1      23.974   7.998  50.633  1.00  0.00     0.210 C 
ENDBRANCH  14  17
BRANCH  15  19
HETATM   19  O4  UNL     1      24.794   4.932  48.967  1.00  0.00    -0.352 OA
HETATM   20  C17 UNL     1      26.198   5.205  49.089  1.00  0.00     0.210 C 
ENDBRANCH  15  19
ENDBRANCH   1  11
BRANCH   8  21
HETATM   21  O3  UNL     1      27.619   2.422  54.194  1.00  0.00    -0.353 OA
HETATM   22  C12 UNL     1      28.553   2.545  53.135  1.00  0.00     0.210 C 
ENDBRANCH   8  21
BRANCH   7  23
HETATM   23  O2  UNL     1      27.587  -0.145  55.171  1.00  0.00    -0.353 OA
HETATM   24  C10 UNL     1      28.766  -0.591  54.519  1.00  0.00     0.210 C 
ENDBRANCH   7  23
TORSDOF 5
ENDMDL
MODEL 4
REMARK VINA RESULT:      -7.0      2.391      7.089
REMARK  5 active torsions:
REMARK  status: ('A' for Active; 'I' for Inactive)
REMARK    1  A    between atoms: O1_2  and  C2_3 
REMARK    2  A    between atoms: N1_6  and  C5_7 
REMARK    3  A    between atoms: C9_13  and  O2_14 
REMARK    4  A    between atoms: C11_16  and  O3_17 
REMARK    5  A    between atoms: C16_22  and  O4_23 
ROOT
HETATM    1  C5  UNL     1      24.046   1.968  51.412  1.00  0.00     0.147 A 
HETATM    2  N2  UNL     1      24.450   2.842  50.467  1.00  0.00    -0.223 NA
HETATM    3  C6  UNL     1      25.748   3.112  50.249  1.00  0.00     0.236 A 
HETATM    4  N3  UNL     1      26.715   2.507  50.981  1.00  0.00    -0.241 NA
HETATM    5  C7  UNL     1      26.380   1.619  51.945  1.00  0.00     0.075 A 
HETATM    6  C8  UNL     1      27.361   0.991  52.703  1.00  0.00     0.072 A 
HETATM    7  C9  UNL     1      26.957   0.089  53.680  1.00  0.00     0.103 A 
HETATM    8  C11 UNL     1      25.622  -0.210  53.928  1.00  0.00     0.102 A 
HETATM    9  C13 UNL     1      24.693   0.448  53.139  1.00  0.00     0.057 A 
HETATM   10  C14 UNL     1      25.042   1.358  52.152  1.00  0.00     0.042 A 
ENDROOT
BRANCH   1  11
HETATM   11  N1  UNL     1      22.694   1.631  51.702  1.00  0.00    -0.313 N 
HETATM   12  C4  UNL     1      22.222   0.275  51.734  1.00  0.00     0.113 C 
HETATM   13  C3  UNL     1      21.088   0.104  52.346  1.00  0.00     0.031 C 
HETATM   14  C2  UNL     1      20.133   1.013  52.252  1.00  0.00     0.115 C 
HETATM   15  C16 UNL     1      20.518   2.430  52.243  1.00  0.00     0.118 C 
HETATM   16  C15 UNL     1      21.777   2.702  51.970  1.00  0.00     0.137 C 
BRANCH  14  17
HETATM   17  O1  UNL     1      18.844   0.502  52.173  1.00  0.00    -0.352 OA
HETATM   18  C1  UNL     1      18.398  -0.682  52.762  1.00  0.00     0.210 C 
ENDBRANCH  14  17
BRANCH  15  19
HETATM   19  O4  UNL     1      19.497   3.312  52.526  1.00  0.00    -0.352 OA
HETATM   20  C17 UNL     1      18.768   3.817  51.396  1.00  0.00     0.210 C 
ENDBRANCH  15  19
ENDBRANCH   1  11
BRANCH   8  21
HETATM   21  O3  UNL     1      25.248  -1.121  54.914  1.00  0.00    -0.353 OA
HETATM   22  C12 UNL     1      23.875  -1.149  55.264  1.00  0.00     0.210 C 
ENDBRANCH   8  21
BRANCH   7  23
HETATM   23  O2  UNL     1      27.900  -0.567  54.465  1.00  0.00    -0.353 OA
HETATM   24  C10 UNL     1      29.293  -0.393  54.249  1.00  0.00     0.210 C 
ENDBRANCH   7  23
TORSDOF 5
ENDMDL
MODEL 5
REMARK VINA RESULT:      -6.9      1.835      6.102
REMARK  5 active torsions:
REMARK  status: ('A' for Active; 'I' for Inactive)
REMARK    1  A    between atoms: O1_2  and  C2_3 
REMARK    2  A    between atoms: N1_6  and  C5_7 
REMARK    3  A    between atoms: C9_13  and  O2_14 
REMARK    4  A    between atoms: C11_16  and  O3_17 
REMARK    5  A    between atoms: C16_22  and  O4_23 
ROOT
HETATM    1  C5  UNL     1      22.068   0.444  52.934  1.00  0.00     0.147 A 
HETATM    2  N2  UNL     1      21.158  -0.096  53.771  1.00  0.00    -0.223 NA
HETATM    3  C6  UNL     1      21.511  -0.872  54.810  1.00  0.00     0.236 A 
HETATM    4  N3  UNL     1      22.815  -1.146  55.059  1.00  0.00    -0.241 NA
HETATM    5  C7  UNL     1      23.780  -0.636  54.260  1.00  0.00     0.075 A 
HETATM    6  C8  UNL     1      25.121  -0.909  54.504  1.00  0.00     0.072 A 
HETATM    7  C9  UNL     1      26.067  -0.359  53.648  1.00  0.00     0.103 A 
HETATM    8  C11 UNL     1      25.732   0.448  52.566  1.00  0.00     0.102 A 
HETATM    9  C13 UNL     1      24.379   0.682  52.376  1.00  0.00     0.057 A 
HETATM   10  C14 UNL     1      23.394   0.157  53.199  1.00  0.00     0.042 A 
ENDROOT
BRANCH   1  11
HETATM   11  N1  UNL     1      21.772   1.272  51.816  1.00  0.00    -0.313 N 
HETATM   12  C4  UNL     1      21.703   0.767  50.472  1.00  0.00     0.113 C 
HETATM   13  C3  UNL     1      21.090   1.541  49.627  1.00  0.00     0.031 C 
HETATM   14  C2  UNL     1      21.211   2.855  49.711  1.00  0.00     0.115 C 
HETATM   15  C16 UNL     1      21.260   3.466  51.046  1.00  0.00     0.118 C 
HETATM   16  C15 UNL     1      21.537   2.668  52.055  1.00  0.00     0.137 C 
BRANCH  14  17
HETATM   17  O1  UNL     1      21.280   3.515  48.492  1.00  0.00    -0.352 OA
HETATM   18  C1  UNL     1      22.441   4.004  47.893  1.00  0.00     0.210 C 
ENDBRANCH  14  17
BRANCH  15  19
HETATM   19  O4  UNL     1      21.005   4.820  51.074  1.00  0.00    -0.352 OA
HETATM   20  C17 UNL     1      22.117   5.665  51.407  1.00  0.00     0.210 C 
ENDBRANCH  15  19
ENDBRANCH   1  11
BRANCH   8  21
HETATM   21  O3  UNL     1      26.704   0.986  51.725  1.00  0.00    -0.353 OA
HETATM   22  C12 UNL     1      26.721   2.397  51.596  1.00  0.00     0.210 C 
ENDBRANCH   8  21
BRANCH   7  23
HETATM   23  O2  UNL     1      27.423  -0.600  53.849  1.00  0.00    -0.353 OA
HETATM   24  C10 UNL     1      28.176   0.151  54.790  1.00  0.00     0.210 C 
ENDBRANCH   7  23
TORSDOF 5
ENDMDL
MODEL 6
REMARK VINA RESULT:      -6.7      1.844      2.506
REMARK  5 active torsions:
REMARK  status: ('A' for Active; 'I' for Inactive)
REMARK    1  A    between atoms: O1_2  and  C2_3 
REMARK    2  A    between atoms: N1_6  and  C5_7 
REMARK    3  A    between atoms: C9_13  and  O2_14 
REMARK    4  A    between atoms: C11_16  and  O3_17 
REMARK    5  A    between atoms: C16_22  and  O4_23 
ROOT
HETATM    1  C5  UNL     1      23.533   0.248  53.274  1.00  0.00     0.147 A 
HETATM    2  N2  UNL     1      23.218  -0.998  53.686  1.00  0.00    -0.223 NA
HETATM    3  C6  UNL     1      21.946  -1.408  53.822  1.00  0.00     0.236 A 
HETATM    4  N3  UNL     1      20.915  -0.572  53.545  1.00  0.00    -0.241 NA
HETATM    5  C7  UNL     1      21.159   0.692  53.128  1.00  0.00     0.075 A 
HETATM    6  C8  UNL     1      20.112   1.559  52.841  1.00  0.00     0.072 A 
HETATM    7  C9  UNL     1      20.423   2.845  52.417  1.00  0.00     0.103 A 
HETATM    8  C11 UNL     1      21.730   3.296  52.267  1.00  0.00     0.102 A 
HETATM    9  C13 UNL     1      22.729   2.385  52.569  1.00  0.00     0.057 A 
HETATM   10  C14 UNL     1      22.473   1.090  52.996  1.00  0.00     0.042 A 
ENDROOT
BRANCH   1  11
HETATM   11  N1  UNL     1      24.852   0.754  53.108  1.00  0.00    -0.313 N 
HETATM   12  C4  UNL     1      25.840   0.706  54.151  1.00  0.00     0.113 C 
HETATM   13  C3  UNL     1      27.066   0.872  53.753  1.00  0.00     0.031 C 
HETATM   14  C2  UNL     1      27.344   1.717  52.775  1.00  0.00     0.115 C 
HETATM   15  C16 UNL     1      26.408   1.812  51.648  1.00  0.00     0.118 C 
HETATM   16  C15 UNL     1      25.196   1.334  51.841  1.00  0.00     0.137 C 
BRANCH  14  17
HETATM   17  O1  UNL     1      28.524   2.431  52.938  1.00  0.00    -0.352 OA
HETATM   18  C1  UNL     1      29.386   2.345  54.031  1.00  0.00     0.210 C 
ENDBRANCH  14  17
BRANCH  15  19
HETATM   19  O4  UNL     1      26.922   2.400  50.513  1.00  0.00    -0.352 OA
HETATM   20  C17 UNL     1      26.132   3.448  49.931  1.00  0.00     0.210 C 
ENDBRANCH  15  19
ENDBRANCH   1  11
BRANCH   8  21
HETATM   21  O3  UNL     1      22.012   4.593  51.839  1.00  0.00    -0.353 OA
HETATM   22  C12 UNL     1      23.302   5.094  52.140  1.00  0.00     0.210 C 
ENDBRANCH   8  21
BRANCH   7  23
HETATM   23  O2  UNL     1      19.412   3.752  52.117  1.00  0.00    -0.353 OA
HETATM   24  C10 UNL     1      18.691   3.677  50.896  1.00  0.00     0.210 C 
ENDBRANCH   7  23
TORSDOF 5
ENDMDL
MODEL 7
REMARK VINA RESULT:      -6.5      2.710      7.549
REMARK  5 active torsions:
REMARK  status: ('A' for Active; 'I' for Inactive)
REMARK    1  A    between atoms: O1_2  and  C2_3 
REMARK    2  A    between atoms: N1_6  and  C5_7 
REMARK    3  A    between atoms: C9_13  and  O2_14 
REMARK    4  A    between atoms: C11_16  and  O3_17 
REMARK    5  A    between atoms: C16_22  and  O4_23 
ROOT
HETATM    1  C5  UNL     1      24.188   3.139  50.910  1.00  0.00     0.147 A 
HETATM    2  N2  UNL     1      24.909   3.982  50.143  1.00  0.00    -0.223 NA
HETATM    3  C6  UNL     1      26.241   3.869  50.009  1.00  0.00     0.236 A 
HETATM    4  N3  UNL     1      26.921   2.887  50.651  1.00  0.00    -0.241 NA
HETATM    5  C7  UNL     1      26.260   2.006  51.436  1.00  0.00     0.075 A 
HETATM    6  C8  UNL     1      26.945   0.994  52.099  1.00  0.00     0.072 A 
HETATM    7  C9  UNL     1      26.213   0.119  52.892  1.00  0.00     0.103 A 
HETATM    8  C11 UNL     1      24.834   0.212  53.048  1.00  0.00     0.102 A 
HETATM    9  C13 UNL     1      24.211   1.241  52.362  1.00  0.00     0.057 A 
HETATM   10  C14 UNL     1      24.893   2.142  51.558  1.00  0.00     0.042 A 
ENDROOT
BRANCH   1  11
HETATM   11  N1  UNL     1      22.779   3.195  51.100  1.00  0.00    -0.313 N 
HETATM   12  C4  UNL     1      22.171   3.907  52.190  1.00  0.00     0.113 C 
HETATM   13  C3  UNL     1      20.906   4.165  52.039  1.00  0.00     0.031 C 
HETATM   14  C2  UNL     1      20.111   3.292  51.445  1.00  0.00     0.115 C 
HETATM   15  C16 UNL     1      20.636   2.538  50.299  1.00  0.00     0.118 C 
HETATM   16  C15 UNL     1      21.944   2.508  50.157  1.00  0.00     0.137 C 
BRANCH  14  17
HETATM   17  O1  UNL     1      18.839   3.192  51.994  1.00  0.00    -0.352 OA
HETATM   18  C1  UNL     1      17.692   3.826  51.514  1.00  0.00     0.210 C 
ENDBRANCH  14  17
BRANCH  15  19
HETATM   19  O4  UNL     1      19.677   1.947  49.505  1.00  0.00    -0.352 OA
HETATM   20  C17 UNL     1      19.293   2.677  48.330  1.00  0.00     0.210 C 
ENDBRANCH  15  19
ENDBRANCH   1  11
BRANCH   8  21
HETATM   21  O3  UNL     1      24.127  -0.682  53.851  1.00  0.00    -0.353 OA
HETATM   22  C12 UNL     1      22.772  -0.910  53.505  1.00  0.00     0.210 C 
ENDBRANCH   8  21
BRANCH   7  23
HETATM   23  O2  UNL     1      26.850  -0.911  53.577  1.00  0.00    -0.353 OA
HETATM   24  C10 UNL     1      28.187  -1.283  53.275  1.00  0.00     0.210 C 
ENDBRANCH   7  23
TORSDOF 5
ENDMDL
MODEL 8
REMARK VINA RESULT:      -6.5      2.574      4.371
REMARK  5 active torsions:
REMARK  status: ('A' for Active; 'I' for Inactive)
REMARK    1  A    between atoms: O1_2  and  C2_3 
REMARK    2  A    between atoms: N1_6  and  C5_7 
REMARK    3  A    between atoms: C9_13  and  O2_14 
REMARK    4  A    between atoms: C11_16  and  O3_17 
REMARK    5  A    between atoms: C16_22  and  O4_23 
ROOT
HETATM    1  C5  UNL     1      25.690   2.726  51.276  1.00  0.00     0.147 A 
HETATM    2  N2  UNL     1      26.737   2.947  50.453  1.00  0.00    -0.223 NA
HETATM    3  C6  UNL     1      26.740   3.940  49.548  1.00  0.00     0.236 A 
HETATM    4  N3  UNL     1      25.674   4.770  49.426  1.00  0.00    -0.241 NA
HETATM    5  C7  UNL     1      24.591   4.605  50.219  1.00  0.00     0.075 A 
HETATM    6  C8  UNL     1      23.493   5.448  50.105  1.00  0.00     0.072 A 
HETATM    7  C9  UNL     1      22.409   5.230  50.946  1.00  0.00     0.103 A 
HETATM    8  C11 UNL     1      22.378   4.211  51.892  1.00  0.00     0.102 A 
HETATM    9  C13 UNL     1      23.503   3.405  51.957  1.00  0.00     0.057 A 
HETATM   10  C14 UNL     1      24.611   3.579  51.140  1.00  0.00     0.042 A 
ENDROOT
BRANCH   1  11
HETATM   11  N1  UNL     1      25.614   1.697  52.256  1.00  0.00    -0.313 N 
HETATM   12  C4  UNL     1      24.553   0.728  52.282  1.00  0.00     0.113 C 
HETATM   13  C3  UNL     1      24.798  -0.334  52.991  1.00  0.00     0.031 C 
HETATM   14  C2  UNL     1      25.484  -0.243  54.118  1.00  0.00     0.115 C 
HETATM   15  C16 UNL     1      26.608   0.701  54.176  1.00  0.00     0.118 C 
HETATM   16  C15 UNL     1      26.644   1.639  53.253  1.00  0.00     0.137 C 
BRANCH  14  17
HETATM   17  O1  UNL     1      25.045  -1.076  55.138  1.00  0.00    -0.352 OA
HETATM   18  C1  UNL     1      23.713  -1.322  55.474  1.00  0.00     0.210 C 
ENDBRANCH  14  17
BRANCH  15  19
HETATM   19  O4  UNL     1      27.497   0.483  55.205  1.00  0.00    -0.352 OA
HETATM   20  C17 UNL     1      28.821   0.081  54.823  1.00  0.00     0.210 C 
ENDBRANCH  15  19
ENDBRANCH   1  11
BRANCH   8  21
HETATM   21  O3  UNL     1      21.276   4.017  52.723  1.00  0.00    -0.353 OA
HETATM   22  C12 UNL     1      20.386   2.975  52.364  1.00  0.00     0.210 C 
ENDBRANCH   8  21
BRANCH   7  23
HETATM   23  O2  UNL     1      21.285   6.047  50.872  1.00  0.00    -0.353 OA
HETATM   24  C10 UNL     1      21.364   7.368  50.360  1.00  0.00     0.210 C 
ENDBRANCH   7  23
TORSDOF 5
ENDMDL
MODEL 9
REMARK VINA RESULT:      -6.2      2.638      3.916
REMARK  5 active torsions:
REMARK  status: ('A' for Active; 'I' for Inactive)
REMARK    1  A    between atoms: O1_2  and  C2_3 
REMARK    2  A    between atoms: N1_6  and  C5_7 
REMARK    3  A    between atoms: C9_13  and  O2_14 
REMARK    4  A    between atoms: C11_16  and  O3_17 
REMARK    5  A    between atoms: C16_22  and  O4_23 
ROOT
HETATM    1  C5  UNL     1      23.650   3.394  52.164  1.00  0.00     0.147 A 
HETATM    2  N2  UNL     1      23.526   4.701  51.854  1.00  0.00    -0.223 NA
HETATM    3  C6  UNL     1      22.332   5.275  51.632  1.00  0.00     0.236 A 
HETATM    4  N3  UNL     1      21.189   4.550  51.713  1.00  0.00    -0.241 NA
HETATM    5  C7  UNL     1      21.240   3.234  52.020  1.00  0.00     0.075 A 
HETATM    6  C8  UNL     1      20.076   2.479  52.106  1.00  0.00     0.072 A 
HETATM    7  C9  UNL     1      20.191   1.132  52.424  1.00  0.00     0.103 A 
HETATM    8  C11 UNL     1      21.414   0.511  52.659  1.00  0.00     0.102 A 
HETATM    9  C13 UNL     1      22.536   1.317  52.558  1.00  0.00     0.057 A 
HETATM   10  C14 UNL     1      22.477   2.666  52.243  1.00  0.00     0.042 A 
ENDROOT
BRANCH   1  11
HETATM   11  N1  UNL     1      24.877   2.716  52.411  1.00  0.00    -0.313 N 
HETATM   12  C4  UNL     1      25.891   2.556  51.406  1.00  0.00     0.113 C 
HETATM   13  C3  UNL     1      27.068   2.243  51.860  1.00  0.00     0.031 C 
HETATM   14  C2  UNL     1      27.192   1.431  52.896  1.00  0.00     0.115 C 
HETATM   15  C16 UNL     1      26.218   1.543  53.990  1.00  0.00     0.118 C 
HETATM   16  C15 UNL     1      25.095   2.176  53.722  1.00  0.00     0.137 C 
BRANCH  14  17
HETATM   17  O1  UNL     1      28.260   0.547  52.822  1.00  0.00    -0.352 OA
HETATM   18  C1  UNL     1      29.456   0.651  53.532  1.00  0.00     0.210 C 
ENDBRANCH  14  17
BRANCH  15  19
HETATM   19  O4  UNL     1      26.608   0.961  55.176  1.00  0.00    -0.352 OA
HETATM   20  C17 UNL     1      25.995  -0.297  55.495  1.00  0.00     0.210 C 
ENDBRANCH  15  19
ENDBRANCH   1  11
BRANCH   8  21
HETATM   21  O3  UNL     1      21.497  -0.844  52.976  1.00  0.00    -0.353 OA
HETATM   22  C12 UNL     1      21.793  -1.162  54.325  1.00  0.00     0.210 C 
ENDBRANCH   8  21
BRANCH   7  23
HETATM   23  O2  UNL     1      19.056   0.332  52.523  1.00  0.00    -0.353 OA
HETATM   24  C10 UNL     1      18.367  -0.120  51.367  1.00  0.00     0.210 C 
ENDBRANCH   7  23
TORSDOF 5
ENDMDL
