MODEL 1
REMARK VINA RESULT:      -7.4      0.000      0.000
REMARK  6 active torsions:
REMARK  status: ('A' for Active; 'I' for Inactive)
REMARK    1  A    between atoms: C2_2  and  N1_3 
REMARK    2  A    between atoms: C3_4  and  N2_5 
REMARK    3  A    between atoms: N2_5  and  C4_6 
REMARK    4  A    between atoms: C8_10  and  N3_11 
REMARK       I    between atoms: N3_11  and  C9_12 
REMARK       I    between atoms: C9_12  and  N4_13 
REMARK    5  A    between atoms: N5_15  and  C11_16 
REMARK    6  A    between atoms: C11_16  and  C13_18 
ROOT
HETATM    1  N3  UNL     1      26.501   3.311  51.414  1.00  0.00    -0.188 N 
HETATM    2  C9  UNL     1      26.520   2.135  52.208  1.00  0.00     0.726 C 
HETATM    3  N4  UNL     1      27.247   2.133  53.456  1.00  0.00    -0.086 NA
HETATM    4  C10 UNL     1      28.515   2.365  53.510  1.00  0.00     0.169 C 
HETATM    5  N5  UNL     1      25.862   1.099  51.743  1.00  0.00    -0.067 NA
HETATM    6  H9  UNL     1      27.417   3.839  51.316  1.00  0.00     0.184 HD
ENDROOT
BRANCH   1   7
HETATM    7  C8  UNL     1      25.331   3.788  50.774  1.00  0.00     0.051 A 
HETATM    8  C7  UNL     1      25.209   4.079  49.459  1.00  0.00     0.030 A 
HETATM    9  C6  UNL     1      24.054   4.550  48.872  1.00  0.00     0.004 A 
HETATM   10  C5  UNL     1      22.977   4.720  49.714  1.00  0.00     0.029 A 
HETATM   11  C4  UNL     1      22.991   4.450  51.087  1.00  0.00     0.035 A 
HETATM   12  C18 UNL     1      24.188   3.991  51.553  1.00  0.00     0.059 A 
BRANCH  11  13
HETATM   13  N2  UNL     1      21.820   4.672  51.845  1.00  0.00    -0.351 N 
HETATM   14  H5  UNL     1      21.711   5.602  52.344  1.00  0.00     0.166 HD
BRANCH  13  15
HETATM   15  C3  UNL     1      20.785   3.706  51.977  1.00  0.00     0.206 C 
HETATM   16  N1  UNL     1      21.174   2.519  52.378  1.00  0.00    -0.260 NA
BRANCH  16  17
HETATM   17  C2  UNL     1      20.147   1.545  52.514  1.00  0.00     0.091 C 
HETATM   18  C1  UNL     1      19.865   0.278  52.252  1.00  0.00     0.052 C 
ENDBRANCH  16  17
ENDBRANCH  13  15
ENDBRANCH  11  13
ENDBRANCH   1   7
BRANCH   5  19
HETATM   19  C11 UNL     1      25.885  -0.072  52.538  1.00  0.00     0.065 C 
HETATM   20  C12 UNL     1      26.970  -0.815  52.255  1.00  0.00     0.067 C 
BRANCH  19  21
HETATM   21  C13 UNL     1      24.918  -0.498  53.541  1.00  0.00     0.007 A 
HETATM   22  C14 UNL     1      23.551  -0.557  53.393  1.00  0.00     0.016 A 
HETATM   23  C15 UNL     1      22.704  -0.972  54.395  1.00  0.00     0.020 A 
HETATM   24  C16 UNL     1      23.279  -1.337  55.585  1.00  0.00     0.116 A 
HETATM   25  N6  UNL     1      24.611  -1.290  55.763  1.00  0.00    -0.272 NA
HETATM   26  C17 UNL     1      25.414  -0.882  54.769  1.00  0.00     0.129 A 
ENDBRANCH  19  21
ENDBRANCH   5  19
TORSDOF 6
ENDMDL
MODEL 2
REMARK VINA RESULT:      -7.3      1.529      5.219
REMARK  6 active torsions:
REMARK  status: ('A' for Active; 'I' for Inactive)
REMARK    1  A    between atoms: C2_2  and  N1_3 
REMARK    2  A    between atoms: C3_4  and  N2_5 
REMARK    3  A    between atoms: N2_5  and  C4_6 
REMARK    4  A    between atoms: C8_10  and  N3_11 
REMARK       I    between atoms: N3_11  and  C9_12 
REMARK       I    between atoms: C9_12  and  N4_13 
REMARK    5  A    between atoms: N5_15  and  C11_16 
REMARK    6  A    between atoms: C11_16  and  C13_18 
ROOT
HETATM    1  N3  UNL     1      26.673   3.039  51.697  1.00  0.00    -0.188 N 
HETATM    2  C9  UNL     1      25.282   3.190  51.456  1.00  0.00     0.726 C 
HETATM    3  N4  UNL     1      24.805   3.292  50.096  1.00  0.00    -0.086 NA
HETATM    4  C10 UNL     1      25.193   4.234  49.304  1.00  0.00     0.169 C 
HETATM    5  N5  UNL     1      24.501   3.230  52.510  1.00  0.00    -0.067 NA
HETATM    6  H9  UNL     1      27.329   3.635  51.113  1.00  0.00     0.184 HD
ENDROOT
BRANCH   1   7
HETATM    7  C8  UNL     1      27.193   2.141  52.660  1.00  0.00     0.051 A 
HETATM    8  C7  UNL     1      28.390   2.249  53.280  1.00  0.00     0.030 A 
HETATM    9  C6  UNL     1      28.868   1.349  54.208  1.00  0.00     0.004 A 
HETATM   10  C5  UNL     1      28.041   0.286  54.497  1.00  0.00     0.029 A 
HETATM   11  C4  UNL     1      26.784   0.076  53.918  1.00  0.00     0.035 A 
HETATM   12  C18 UNL     1      26.420   1.031  53.014  1.00  0.00     0.059 A 
BRANCH  11  13
HETATM   13  N2  UNL     1      26.032  -1.059  54.294  1.00  0.00    -0.351 N 
HETATM   14  H5  UNL     1      26.458  -2.019  54.140  1.00  0.00     0.166 HD
BRANCH  13  15
HETATM   15  C3  UNL     1      24.731  -0.977  54.862  1.00  0.00     0.206 C 
HETATM   16  N1  UNL     1      23.747  -0.895  53.997  1.00  0.00    -0.260 NA
BRANCH  16  17
HETATM   17  C2  UNL     1      22.441  -0.812  54.553  1.00  0.00     0.091 C 
HETATM   18  C1  UNL     1      21.246  -1.381  54.507  1.00  0.00     0.052 C 
ENDBRANCH  16  17
ENDBRANCH  13  15
ENDBRANCH  11  13
ENDBRANCH   1   7
BRANCH   5  19
HETATM   19  C11 UNL     1      23.116   3.382  52.264  1.00  0.00     0.065 C 
HETATM   20  C12 UNL     1      22.766   4.680  52.308  1.00  0.00     0.067 C 
BRANCH  19  21
HETATM   21  C13 UNL     1      22.131   2.342  51.995  1.00  0.00     0.007 A 
HETATM   22  C14 UNL     1      22.343   1.163  51.319  1.00  0.00     0.016 A 
HETATM   23  C15 UNL     1      21.354   0.230  51.106  1.00  0.00     0.020 A 
HETATM   24  C16 UNL     1      20.109   0.518  51.602  1.00  0.00     0.116 A 
HETATM   25  N6  UNL     1      19.868   1.662  52.267  1.00  0.00    -0.272 NA
HETATM   26  C17 UNL     1      20.850   2.554  52.461  1.00  0.00     0.129 A 
ENDBRANCH  19  21
ENDBRANCH   5  19
TORSDOF 6
ENDMDL
MODEL 3
REMARK VINA RESULT:      -7.3      2.917      5.533
REMARK  6 active torsions:
REMARK  status: ('A' for Active; 'I' for Inactive)
REMARK    1  A    between atoms: C2_2  and  N1_3 
REMARK    2  A    between atoms: C3_4  and  N2_5 
REMARK    3  A    between atoms: N2_5  and  C4_6 
REMARK    4  A    between atoms: C8_10  and  N3_11 
REMARK       I    between atoms: N3_11  and  C9_12 
REMARK       I    between atoms: C9_12  and  N4_13 
REMARK    5  A    between atoms: N5_15  and  C11_16 
REMARK    6  A    between atoms: C11_16  and  C13_18 
ROOT
HETATM    1  N3  UNL     1      22.311   1.909  52.707  1.00  0.00    -0.188 N 
HETATM    2  C9  UNL     1      23.686   2.226  52.556  1.00  0.00     0.726 C 
HETATM    3  N4  UNL     1      24.149   3.554  52.885  1.00  0.00    -0.086 NA
HETATM    4  C10 UNL     1      23.692   4.604  52.291  1.00  0.00     0.169 C 
HETATM    5  N5  UNL     1      24.467   1.268  52.114  1.00  0.00    -0.067 NA
HETATM    6  H9  UNL     1      21.612   2.641  52.386  1.00  0.00     0.184 HD
ENDROOT
BRANCH   1   7
HETATM    7  C8  UNL     1      21.860   0.687  53.262  1.00  0.00     0.051 A 
HETATM    8  C7  UNL     1      22.631  -0.237  53.879  1.00  0.00     0.030 A 
HETATM    9  C6  UNL     1      22.157  -1.421  54.400  1.00  0.00     0.004 A 
HETATM   10  C5  UNL     1      20.804  -1.640  54.265  1.00  0.00     0.029 A 
HETATM   11  C4  UNL     1      19.914  -0.754  53.646  1.00  0.00     0.035 A 
HETATM   12  C18 UNL     1      20.499   0.382  53.169  1.00  0.00     0.059 A 
BRANCH  11  13
HETATM   13  N2  UNL     1      18.545  -1.097  53.565  1.00  0.00    -0.351 N 
HETATM   14  H5  UNL     1      17.835  -0.313  53.475  1.00  0.00     0.166 HD
BRANCH  13  15
HETATM   15  C3  UNL     1      18.075  -2.438  53.603  1.00  0.00     0.206 C 
HETATM   16  N1  UNL     1      16.846  -2.612  53.177  1.00  0.00    -0.260 NA
BRANCH  16  17
HETATM   17  C2  UNL     1      16.364  -3.949  53.211  1.00  0.00     0.091 C 
HETATM   18  C1  UNL     1      16.367  -5.045  53.954  1.00  0.00     0.052 C 
ENDBRANCH  16  17
ENDBRANCH  13  15
ENDBRANCH  11  13
ENDBRANCH   1   7
BRANCH   5  19
HETATM   19  C11 UNL     1      25.837   1.589  51.964  1.00  0.00     0.065 C 
HETATM   20  C12 UNL     1      26.055   2.194  50.783  1.00  0.00     0.067 C 
BRANCH  19  21
HETATM   21  C13 UNL     1      26.927   1.337  52.897  1.00  0.00     0.007 A 
HETATM   22  C14 UNL     1      27.959   2.194  53.206  1.00  0.00     0.016 A 
HETATM   23  C15 UNL     1      28.955   1.878  54.102  1.00  0.00     0.020 A 
HETATM   24  C16 UNL     1      28.889   0.644  54.698  1.00  0.00     0.116 A 
HETATM   25  N6  UNL     1      27.894  -0.216  54.417  1.00  0.00    -0.272 NA
HETATM   26  C17 UNL     1      26.936   0.117  53.540  1.00  0.00     0.129 A 
ENDBRANCH  19  21
ENDBRANCH   5  19
TORSDOF 6
ENDMDL
MODEL 4
REMARK VINA RESULT:      -7.2      2.008      7.150
REMARK  6 active torsions:
REMARK  status: ('A' for Active; 'I' for Inactive)
REMARK    1  A    between atoms: C2_2  and  N1_3 
REMARK    2  A    between atoms: C3_4  and  N2_5 
REMARK    3  A    between atoms: N2_5  and  C4_6 
REMARK    4  A    between atoms: C8_10  and  N3_11 
REMARK       I    between atoms: N3_11  and  C9_12 
REMARK       I    between atoms: C9_12  and  N4_13 
REMARK    5  A    between atoms: N5_15  and  C11_16 
REMARK    6  A    between atoms: C11_16  and  C13_18 
ROOT
HETATM    1  N3  UNL     1      22.516   0.779  51.222  1.00  0.00    -0.188 N 
HETATM    2  C9  UNL     1      22.868   2.138  51.010  1.00  0.00     0.726 C 
HETATM    3  N4  UNL     1      22.082   2.940  50.102  1.00  0.00    -0.086 NA
HETATM    4  C10 UNL     1      21.946   2.629  48.857  1.00  0.00     0.169 C 
HETATM    5  N5  UNL     1      23.911   2.587  51.667  1.00  0.00    -0.067 NA
HETATM    6  H9  UNL     1      22.239   0.215  50.366  1.00  0.00     0.184 HD
ENDROOT
BRANCH   1   7
HETATM    7  C8  UNL     1      22.518   0.176  52.504  1.00  0.00     0.051 A 
HETATM    8  C7  UNL     1      21.424  -0.158  53.225  1.00  0.00     0.030 A 
HETATM    9  C6  UNL     1      21.465  -0.738  54.475  1.00  0.00     0.004 A 
HETATM   10  C5  UNL     1      22.722  -0.978  54.986  1.00  0.00     0.029 A 
HETATM   11  C4  UNL     1      23.919  -0.674  54.328  1.00  0.00     0.035 A 
HETATM   12  C18 UNL     1      23.751  -0.103  53.100  1.00  0.00     0.059 A 
BRANCH  11  13
HETATM   13  N2  UNL     1      25.147  -0.964  54.962  1.00  0.00    -0.351 N 
HETATM   14  H5  UNL     1      25.181  -1.773  55.649  1.00  0.00     0.166 HD
BRANCH  13  15
HETATM   15  C3  UNL     1      26.337  -0.221  54.730  1.00  0.00     0.206 C 
HETATM   16  N1  UNL     1      27.300  -0.880  54.130  1.00  0.00    -0.260 NA
BRANCH  16  17
HETATM   17  C2  UNL     1      28.496  -0.148  53.892  1.00  0.00     0.091 C 
HETATM   18  C1  UNL     1      29.782  -0.304  53.618  1.00  0.00     0.052 C 
ENDBRANCH  16  17
ENDBRANCH  13  15
ENDBRANCH  11  13
ENDBRANCH   1   7
BRANCH   5  19
HETATM   19  C11 UNL     1      24.259   3.941  51.451  1.00  0.00     0.065 C 
HETATM   20  C12 UNL     1      23.577   4.744  52.287  1.00  0.00     0.067 C 
BRANCH  19  21
HETATM   21  C13 UNL     1      25.205   4.484  50.485  1.00  0.00     0.007 A 
HETATM   22  C14 UNL     1      26.258   3.818  49.901  1.00  0.00     0.016 A 
HETATM   23  C15 UNL     1      27.109   4.407  48.994  1.00  0.00     0.020 A 
HETATM   24  C16 UNL     1      26.872   5.720  48.678  1.00  0.00     0.116 A 
HETATM   25  N6  UNL     1      25.852   6.400  49.231  1.00  0.00    -0.272 NA
HETATM   26  C17 UNL     1      25.037   5.801  50.112  1.00  0.00     0.129 A 
ENDBRANCH  19  21
ENDBRANCH   5  19
TORSDOF 6
ENDMDL
MODEL 5
REMARK VINA RESULT:      -7.2      2.422      7.551
REMARK  6 active torsions:
REMARK  status: ('A' for Active; 'I' for Inactive)
REMARK    1  A    between atoms: C2_2  and  N1_3 
REMARK    2  A    between atoms: C3_4  and  N2_5 
REMARK    3  A    between atoms: N2_5  and  C4_6 
REMARK    4  A    between atoms: C8_10  and  N3_11 
REMARK       I    between atoms: N3_11  and  C9_12 
REMARK       I    between atoms: C9_12  and  N4_13 
REMARK    5  A    between atoms: N5_15  and  C11_16 
REMARK    6  A    between atoms: C11_16  and  C13_18 
ROOT
HETATM    1  N3  UNL     1      22.398   4.184  51.842  1.00  0.00    -0.188 N 
HETATM    2  C9  UNL     1      22.858   4.993  50.771  1.00  0.00     0.726 C 
HETATM    3  N4  UNL     1      22.761   6.430  50.876  1.00  0.00    -0.086 NA
HETATM    4  C10 UNL     1      21.630   7.030  51.035  1.00  0.00     0.169 C 
HETATM    5  N5  UNL     1      23.352   4.367  49.728  1.00  0.00    -0.067 NA
HETATM    6  H9  UNL     1      21.482   4.466  52.298  1.00  0.00     0.184 HD
ENDROOT
BRANCH   1   7
HETATM    7  C8  UNL     1      23.107   3.049  52.308  1.00  0.00     0.051 A 
HETATM    8  C7  UNL     1      22.676   1.768  52.255  1.00  0.00     0.030 A 
HETATM    9  C6  UNL     1      23.392   0.689  52.727  1.00  0.00     0.004 A 
HETATM   10  C5  UNL     1      24.620   0.976  53.280  1.00  0.00     0.029 A 
HETATM   11  C4  UNL     1      25.163   2.262  53.387  1.00  0.00     0.035 A 
HETATM   12  C18 UNL     1      24.363   3.248  52.887  1.00  0.00     0.059 A 
BRANCH  11  13
HETATM   13  N2  UNL     1      26.433   2.427  53.982  1.00  0.00    -0.351 N 
HETATM   14  H5  UNL     1      26.578   3.245  54.642  1.00  0.00     0.166 HD
BRANCH  13  15
HETATM   15  C3  UNL     1      27.528   1.554  53.733  1.00  0.00     0.206 C 
HETATM   16  N1  UNL     1      27.870   0.785  54.740  1.00  0.00    -0.260 NA
BRANCH  16  17
HETATM   17  C2  UNL     1      28.964  -0.092  54.504  1.00  0.00     0.091 C 
HETATM   18  C1  UNL     1      29.872  -0.412  53.595  1.00  0.00     0.052 C 
ENDBRANCH  16  17
ENDBRANCH  13  15
ENDBRANCH  11  13
ENDBRANCH   1   7
BRANCH   5  19
HETATM   19  C11 UNL     1      23.808   5.179  48.663  1.00  0.00     0.065 C 
HETATM   20  C12 UNL     1      22.852   5.312  47.726  1.00  0.00     0.067 C 
BRANCH  19  21
HETATM   21  C13 UNL     1      25.108   5.818  48.512  1.00  0.00     0.007 A 
HETATM   22  C14 UNL     1      26.336   5.261  48.787  1.00  0.00     0.016 A 
HETATM   23  C15 UNL     1      27.523   5.936  48.617  1.00  0.00     0.020 A 
HETATM   24  C16 UNL     1      27.446   7.224  48.151  1.00  0.00     0.116 A 
HETATM   25  N6  UNL     1      26.262   7.798  47.873  1.00  0.00    -0.272 NA
HETATM   26  C17 UNL     1      25.120   7.117  48.047  1.00  0.00     0.129 A 
ENDBRANCH  19  21
ENDBRANCH   5  19
TORSDOF 6
ENDMDL
MODEL 6
REMARK VINA RESULT:      -6.8      2.946      6.721
REMARK  6 active torsions:
REMARK  status: ('A' for Active; 'I' for Inactive)
REMARK    1  A    between atoms: C2_2  and  N1_3 
REMARK    2  A    between atoms: C3_4  and  N2_5 
REMARK    3  A    between atoms: N2_5  and  C4_6 
REMARK    4  A    between atoms: C8_10  and  N3_11 
REMARK       I    between atoms: N3_11  and  C9_12 
REMARK       I    between atoms: C9_12  and  N4_13 
REMARK    5  A    between atoms: N5_15  and  C11_16 
REMARK    6  A    between atoms: C11_16  and  C13_18 
ROOT
HETATM    1  N3  UNL     1      22.302   0.935  50.692  1.00  0.00    -0.188 N 
HETATM    2  C9  UNL     1      22.762   2.267  50.527  1.00  0.00     0.726 C 
HETATM    3  N4  UNL     1      22.257   3.061  49.432  1.00  0.00    -0.086 NA
HETATM    4  C10 UNL     1      22.407   2.703  48.201  1.00  0.00     0.169 C 
HETATM    5  N5  UNL     1      23.639   2.701  51.402  1.00  0.00    -0.067 NA
HETATM    6  H9  UNL     1      22.210   0.346  49.813  1.00  0.00     0.184 HD
ENDROOT
BRANCH   1   7
HETATM    7  C8  UNL     1      21.968   0.387  51.955  1.00  0.00     0.051 A 
HETATM    8  C7  UNL     1      22.843   0.049  52.929  1.00  0.00     0.030 A 
HETATM    9  C6  UNL     1      22.480  -0.490  54.145  1.00  0.00     0.004 A 
HETATM   10  C5  UNL     1      21.130  -0.680  54.341  1.00  0.00     0.029 A 
HETATM   11  C4  UNL     1      20.139  -0.366  53.404  1.00  0.00     0.035 A 
HETATM   12  C18 UNL     1      20.618   0.159  52.240  1.00  0.00     0.059 A 
BRANCH  11  13
HETATM   13  N2  UNL     1      18.785  -0.614  53.723  1.00  0.00    -0.351 N 
HETATM   14  H5  UNL     1      18.301   0.038  54.405  1.00  0.00     0.166 HD
BRANCH  13  15
HETATM   15  C3  UNL     1      18.044  -1.699  53.179  1.00  0.00     0.206 C 
HETATM   16  N1  UNL     1      17.919  -2.742  53.965  1.00  0.00    -0.260 NA
BRANCH  16  17
HETATM   17  C2  UNL     1      17.180  -3.833  53.433  1.00  0.00     0.091 C 
HETATM   18  C1  UNL     1      16.467  -4.889  53.792  1.00  0.00     0.052 C 
ENDBRANCH  16  17
ENDBRANCH  13  15
ENDBRANCH  11  13
ENDBRANCH   1   7
BRANCH   5  19
HETATM   19  C11 UNL     1      24.095   4.030  51.232  1.00  0.00     0.065 C 
HETATM   20  C12 UNL     1      23.391   4.875  52.007  1.00  0.00     0.067 C 
BRANCH  19  21
HETATM   21  C13 UNL     1      25.163   4.511  50.366  1.00  0.00     0.007 A 
HETATM   22  C14 UNL     1      26.118   3.747  49.736  1.00  0.00     0.016 A 
HETATM   23  C15 UNL     1      27.098   4.282  48.931  1.00  0.00     0.020 A 
HETATM   24  C16 UNL     1      27.097   5.644  48.770  1.00  0.00     0.116 A 
HETATM   25  N6  UNL     1      26.178   6.419  49.373  1.00  0.00    -0.272 NA
HETATM   26  C17 UNL     1      25.234   5.872  50.152  1.00  0.00     0.129 A 
ENDBRANCH  19  21
ENDBRANCH   5  19
TORSDOF 6
ENDMDL
MODEL 7
REMARK VINA RESULT:      -6.8      2.212      7.385
REMARK  6 active torsions:
REMARK  status: ('A' for Active; 'I' for Inactive)
REMARK    1  A    between atoms: C2_2  and  N1_3 
REMARK    2  A    between atoms: C3_4  and  N2_5 
REMARK    3  A    between atoms: N2_5  and  C4_6 
REMARK    4  A    between atoms: C8_10  and  N3_11 
REMARK       I    between atoms: N3_11  and  C9_12 
REMARK       I    between atoms: C9_12  and  N4_13 
REMARK    5  A    between atoms: N5_15  and  C11_16 
REMARK    6  A    between atoms: C11_16  and  C13_18 
ROOT
HETATM    1  N3  UNL     1      22.994   0.801  51.327  1.00  0.00    -0.188 N 
HETATM    2  C9  UNL     1      22.305   2.019  51.088  1.00  0.00     0.726 C 
HETATM    3  N4  UNL     1      21.610   2.206  49.836  1.00  0.00    -0.086 NA
HETATM    4  C10 UNL     1      22.221   2.159  48.701  1.00  0.00     0.169 C 
HETATM    5  N5  UNL     1      22.347   2.918  52.043  1.00  0.00    -0.067 NA
HETATM    6  H9  UNL     1      23.558   0.402  50.521  1.00  0.00     0.184 HD
ENDROOT
BRANCH   1   7
HETATM    7  C8  UNL     1      22.947   0.122  52.570  1.00  0.00     0.051 A 
HETATM    8  C7  UNL     1      21.839  -0.391  53.151  1.00  0.00     0.030 A 
HETATM    9  C6  UNL     1      21.831  -1.040  54.367  1.00  0.00     0.004 A 
HETATM   10  C5  UNL     1      23.050  -1.152  54.998  1.00  0.00     0.029 A 
HETATM   11  C4  UNL     1      24.257  -0.660  54.489  1.00  0.00     0.035 A 
HETATM   12  C18 UNL     1      24.140  -0.037  53.280  1.00  0.00     0.059 A 
BRANCH  11  13
HETATM   13  N2  UNL     1      25.443  -0.833  55.236  1.00  0.00    -0.351 N 
HETATM   14  H5  UNL     1      25.399  -1.415  56.123  1.00  0.00     0.166 HD
BRANCH  13  15
HETATM   15  C3  UNL     1      26.689  -0.262  54.861  1.00  0.00     0.206 C 
HETATM   16  N1  UNL     1      27.351  -0.918  53.937  1.00  0.00    -0.260 NA
BRANCH  16  17
HETATM   17  C2  UNL     1      28.600  -0.356  53.554  1.00  0.00     0.091 C 
HETATM   18  C1  UNL     1      29.906  -0.558  53.630  1.00  0.00     0.052 C 
ENDBRANCH  16  17
ENDBRANCH  13  15
ENDBRANCH  11  13
ENDBRANCH   1   7
BRANCH   5  19
HETATM   19  C11 UNL     1      21.660   4.131  51.799  1.00  0.00     0.065 C 
HETATM   20  C12 UNL     1      20.339   3.974  51.995  1.00  0.00     0.067 C 
BRANCH  19  21
HETATM   21  C13 UNL     1      22.216   5.413  51.389  1.00  0.00     0.007 A 
HETATM   22  C14 UNL     1      21.528   6.471  50.841  1.00  0.00     0.016 A 
HETATM   23  C15 UNL     1      22.131   7.654  50.479  1.00  0.00     0.020 A 
HETATM   24  C16 UNL     1      23.483   7.752  50.685  1.00  0.00     0.116 A 
HETATM   25  N6  UNL     1      24.186   6.737  51.217  1.00  0.00    -0.272 NA
HETATM   26  C17 UNL     1      23.573   5.595  51.562  1.00  0.00     0.129 A 
ENDBRANCH  19  21
ENDBRANCH   5  19
TORSDOF 6
ENDMDL
MODEL 8
REMARK VINA RESULT:      -6.8      1.835      2.876
REMARK  6 active torsions:
REMARK  status: ('A' for Active; 'I' for Inactive)
REMARK    1  A    between atoms: C2_2  and  N1_3 
REMARK    2  A    between atoms: C3_4  and  N2_5 
REMARK    3  A    between atoms: N2_5  and  C4_6 
REMARK    4  A    between atoms: C8_10  and  N3_11 
REMARK       I    between atoms: N3_11  and  C9_12 
REMARK       I    between atoms: C9_12  and  N4_13 
REMARK    5  A    between atoms: N5_15  and  C11_16 
REMARK    6  A    between atoms: C11_16  and  C13_18 
ROOT
HETATM    1  N3  UNL     1      26.447   3.313  51.326  1.00  0.00    -0.188 N 
HETATM    2  C9  UNL     1      26.439   2.156  52.148  1.00  0.00     0.726 C 
HETATM    3  N4  UNL     1      27.143   2.176  53.408  1.00  0.00    -0.086 NA
HETATM    4  C10 UNL     1      28.413   2.395  53.479  1.00  0.00     0.169 C 
HETATM    5  N5  UNL     1      25.777   1.116  51.696  1.00  0.00    -0.067 NA
HETATM    6  H9  UNL     1      27.370   3.829  51.232  1.00  0.00     0.184 HD
ENDROOT
BRANCH   1   7
HETATM    7  C8  UNL     1      25.294   3.788  50.655  1.00  0.00     0.051 A 
HETATM    8  C7  UNL     1      24.886   3.416  49.420  1.00  0.00     0.030 A 
HETATM    9  C6  UNL     1      23.760   3.907  48.794  1.00  0.00     0.004 A 
HETATM   10  C5  UNL     1      23.030   4.832  49.506  1.00  0.00     0.029 A 
HETATM   11  C4  UNL     1      23.358   5.287  50.789  1.00  0.00     0.035 A 
HETATM   12  C18 UNL     1      24.493   4.732  51.304  1.00  0.00     0.059 A 
BRANCH  11  13
HETATM   13  N2  UNL     1      22.530   6.246  51.413  1.00  0.00    -0.351 N 
HETATM   14  H5  UNL     1      22.701   6.469  52.437  1.00  0.00     0.166 HD
BRANCH  13  15
HETATM   15  C3  UNL     1      21.476   6.921  50.739  1.00  0.00     0.206 C 
HETATM   16  N1  UNL     1      21.786   8.099  50.253  1.00  0.00    -0.260 NA
BRANCH  16  17
HETATM   17  C2  UNL     1      20.740   8.785  49.577  1.00  0.00     0.091 C 
HETATM   18  C1  UNL     1      19.425   8.938  49.566  1.00  0.00     0.052 C 
ENDBRANCH  16  17
ENDBRANCH  13  15
ENDBRANCH  11  13
ENDBRANCH   1   7
BRANCH   5  19
HETATM   19  C11 UNL     1      25.772  -0.035  52.518  1.00  0.00     0.065 C 
HETATM   20  C12 UNL     1      26.885  -0.764  52.319  1.00  0.00     0.067 C 
BRANCH  19  21
HETATM   21  C13 UNL     1      24.754  -0.456  53.471  1.00  0.00     0.007 A 
HETATM   22  C14 UNL     1      23.395  -0.501  53.258  1.00  0.00     0.016 A 
HETATM   23  C15 UNL     1      22.497  -0.913  54.216  1.00  0.00     0.020 A 
HETATM   24  C16 UNL     1      23.011  -1.289  55.430  1.00  0.00     0.116 A 
HETATM   25  N6  UNL     1      24.333  -1.257  55.672  1.00  0.00    -0.272 NA
HETATM   26  C17 UNL     1      25.187  -0.852  54.720  1.00  0.00     0.129 A 
ENDBRANCH  19  21
ENDBRANCH   5  19
TORSDOF 6
ENDMDL
MODEL 9
REMARK VINA RESULT:      -6.7      1.750      5.924
REMARK  6 active torsions:
REMARK  status: ('A' for Active; 'I' for Inactive)
REMARK    1  A    between atoms: C2_2  and  N1_3 
REMARK    2  A    between atoms: C3_4  and  N2_5 
REMARK    3  A    between atoms: N2_5  and  C4_6 
REMARK    4  A    between atoms: C8_10  and  N3_11 
REMARK       I    between atoms: N3_11  and  C9_12 
REMARK       I    between atoms: C9_12  and  N4_13 
REMARK    5  A    between atoms: N5_15  and  C11_16 
REMARK    6  A    between atoms: C11_16  and  C13_18 
ROOT
HETATM    1  N3  UNL     1      27.158   2.908  51.934  1.00  0.00    -0.188 N 
HETATM    2  C9  UNL     1      25.851   2.881  51.381  1.00  0.00     0.726 C 
HETATM    3  N4  UNL     1      25.682   3.032  49.954  1.00  0.00    -0.086 NA
HETATM    4  C10 UNL     1      26.085   4.084  49.325  1.00  0.00     0.169 C 
HETATM    5  N5  UNL     1      24.857   2.720  52.222  1.00  0.00    -0.067 NA
HETATM    6  H9  UNL     1      27.827   3.639  51.552  1.00  0.00     0.184 HD
ENDROOT
BRANCH   1   7
HETATM    7  C8  UNL     1      27.583   2.013  52.946  1.00  0.00     0.051 A 
HETATM    8  C7  UNL     1      28.809   1.985  53.516  1.00  0.00     0.030 A 
HETATM    9  C6  UNL     1      29.190   1.091  54.495  1.00  0.00     0.004 A 
HETATM   10  C5  UNL     1      28.230   0.186  54.890  1.00  0.00     0.029 A 
HETATM   11  C4  UNL     1      26.932   0.125  54.369  1.00  0.00     0.035 A 
HETATM   12  C18 UNL     1      26.673   1.058  53.407  1.00  0.00     0.059 A 
BRANCH  11  13
HETATM   13  N2  UNL     1      26.040  -0.856  54.855  1.00  0.00    -0.351 N 
HETATM   14  H5  UNL     1      26.424  -1.619  55.485  1.00  0.00     0.166 HD
BRANCH  13  15
HETATM   15  C3  UNL     1      24.655  -0.875  54.534  1.00  0.00     0.206 C 
HETATM   16  N1  UNL     1      23.866  -1.318  55.484  1.00  0.00    -0.260 NA
BRANCH  16  17
HETATM   17  C2  UNL     1      22.478  -1.342  55.176  1.00  0.00     0.091 C 
HETATM   18  C1  UNL     1      21.633  -1.377  54.157  1.00  0.00     0.052 C 
ENDBRANCH  16  17
ENDBRANCH  13  15
ENDBRANCH  11  13
ENDBRANCH   1   7
BRANCH   5  19
HETATM   19  C11 UNL     1      23.557   2.695  51.666  1.00  0.00     0.065 C 
HETATM   20  C12 UNL     1      23.125   1.429  51.527  1.00  0.00     0.067 C 
BRANCH  19  21
HETATM   21  C13 UNL     1      22.728   3.824  51.266  1.00  0.00     0.007 A 
HETATM   22  C14 UNL     1      22.875   5.134  51.662  1.00  0.00     0.016 A 
HETATM   23  C15 UNL     1      22.044   6.145  51.237  1.00  0.00     0.020 A 
HETATM   24  C16 UNL     1      21.031   5.801  50.380  1.00  0.00     0.116 A 
HETATM   25  N6  UNL     1      20.859   4.530  49.974  1.00  0.00    -0.272 NA
HETATM   26  C17 UNL     1      21.683   3.563  50.403  1.00  0.00     0.129 A 
ENDBRANCH  19  21
ENDBRANCH   5  19
TORSDOF 6
ENDMDL
