MODEL 1
REMARK VINA RESULT:      -8.4      0.000      0.000
REMARK  6 active torsions:
REMARK  status: ('A' for Active; 'I' for Inactive)
REMARK    1  A    between atoms: C5_6  and  N2_7 
REMARK    2  A    between atoms: C8_13  and  N6_14 
REMARK    3  A    between atoms: N6_14  and  C9_15 
REMARK    4  A    between atoms: C12_18  and  S1_19 
REMARK    5  A    between atoms: S1_19  and  C13_21 
REMARK    6  A    between atoms: C13_21  and  N7_22 
ROOT
HETATM    1  N1  UNL     1      22.517   1.698  50.904  1.00  0.00    -0.191 NA
HETATM    2  C1  UNL     1      23.604   1.676  51.292  1.00  0.00     0.103 C 
HETATM    3  C2  UNL     1      24.964   1.643  51.802  1.00  0.00     0.091 A 
HETATM    4  C3  UNL     1      25.262   0.871  52.906  1.00  0.00     0.045 A 
HETATM    5  C4  UNL     1      26.573   0.839  53.385  1.00  0.00     0.059 A 
HETATM    6  C5  UNL     1      26.764   0.043  54.489  1.00  0.00     0.136 A 
HETATM    7  N3  UNL     1      28.037  -0.002  54.986  1.00  0.00    -0.224 NA
HETATM    8  C6  UNL     1      28.990   0.736  54.346  1.00  0.00     0.237 A 
HETATM    9  N4  UNL     1      28.765   1.515  53.252  1.00  0.00    -0.221 NA
HETATM   10  C7  UNL     1      27.513   1.593  52.723  1.00  0.00     0.167 A 
HETATM   11  N5  UNL     1      27.201   2.345  51.643  1.00  0.00    -0.209 NA
HETATM   12  C8  UNL     1      25.924   2.378  51.173  1.00  0.00     0.151 A 
ENDROOT
BRANCH  12  13
HETATM   13  N6  UNL     1      25.715   3.224  50.055  1.00  0.00    -0.340 N 
HETATM   14  H5  UNL     1      25.166   2.890  49.208  1.00  0.00     0.167 HD
BRANCH  13  15
HETATM   15  C9  UNL     1      26.058   4.556  49.711  1.00  0.00     0.033 A 
HETATM   16  C10 UNL     1      25.410   5.684  50.090  1.00  0.00     0.031 A 
HETATM   17  C11 UNL     1      25.832   6.924  49.676  1.00  0.00     0.023 A 
HETATM   18  C12 UNL     1      26.941   6.958  48.861  1.00  0.00     0.033 A 
HETATM   19  C14 UNL     1      27.639   5.836  48.446  1.00  0.00     0.023 A 
HETATM   20  C15 UNL     1      27.174   4.608  48.891  1.00  0.00     0.031 A 
BRANCH  18  21
HETATM   21  S1  UNL     1      27.590   8.496  48.243  1.00  0.00     0.067 S 
HETATM   22  O1  UNL     1      28.646   8.309  47.188  1.00  0.00    -0.251 OA
BRANCH  21  23
HETATM   23  C13 UNL     1      28.151   9.523  49.615  1.00  0.00     0.259 C 
BRANCH  23  24
HETATM   24  N7  UNL     1      27.714  10.881  49.297  1.00  0.00    -0.051 NA
HETATM   25  O2  UNL     1      26.536  10.982  49.030  1.00  0.00    -0.101 OA
ENDBRANCH  23  24
ENDBRANCH  21  23
ENDBRANCH  18  21
ENDBRANCH  13  15
ENDBRANCH  12  13
BRANCH   6  26
HETATM   26  N2  UNL     1      25.721  -0.691  55.092  1.00  0.00    -0.383 N 
HETATM   27  H2  UNL     1      25.345  -1.590  54.721  1.00  0.00     0.157 HD
HETATM   28  H3  UNL     1      25.274  -0.334  55.958  1.00  0.00     0.157 HD
ENDBRANCH   6  26
TORSDOF 6
ENDMDL
MODEL 2
REMARK VINA RESULT:      -7.9      5.567      8.580
REMARK  6 active torsions:
REMARK  status: ('A' for Active; 'I' for Inactive)
REMARK    1  A    between atoms: C5_6  and  N2_7 
REMARK    2  A    between atoms: C8_13  and  N6_14 
REMARK    3  A    between atoms: N6_14  and  C9_15 
REMARK    4  A    between atoms: C12_18  and  S1_19 
REMARK    5  A    between atoms: S1_19  and  C13_21 
REMARK    6  A    between atoms: C13_21  and  N7_22 
ROOT
HETATM    1  N1  UNL     1      22.289   2.557  49.324  1.00  0.00    -0.191 NA
HETATM    2  C1  UNL     1      21.596   1.958  50.026  1.00  0.00     0.103 C 
HETATM    3  C2  UNL     1      20.706   1.212  50.898  1.00  0.00     0.091 A 
HETATM    4  C3  UNL     1      19.475   0.801  50.430  1.00  0.00     0.045 A 
HETATM    5  C4  UNL     1      18.628   0.078  51.271  1.00  0.00     0.059 A 
HETATM    6  C5  UNL     1      17.426  -0.280  50.711  1.00  0.00     0.136 A 
HETATM    7  N3  UNL     1      16.571  -0.983  51.515  1.00  0.00    -0.224 NA
HETATM    8  C6  UNL     1      16.987  -1.264  52.784  1.00  0.00     0.237 A 
HETATM    9  N4  UNL     1      18.188  -0.892  53.308  1.00  0.00    -0.221 NA
HETATM   10  C7  UNL     1      19.071  -0.189  52.546  1.00  0.00     0.167 A 
HETATM   11  N5  UNL     1      20.281   0.223  52.988  1.00  0.00    -0.209 NA
HETATM   12  C8  UNL     1      21.109   0.927  52.169  1.00  0.00     0.151 A 
ENDROOT
BRANCH  12  13
HETATM   13  N6  UNL     1      22.336   1.330  52.754  1.00  0.00    -0.340 N 
HETATM   14  H5  UNL     1      22.445   2.290  53.198  1.00  0.00     0.167 HD
BRANCH  13  15
HETATM   15  C9  UNL     1      23.609   0.739  52.954  1.00  0.00     0.033 A 
HETATM   16  C10 UNL     1      23.907  -0.279  53.798  1.00  0.00     0.031 A 
HETATM   17  C11 UNL     1      25.188  -0.758  53.915  1.00  0.00     0.023 A 
HETATM   18  C12 UNL     1      26.147  -0.152  53.134  1.00  0.00     0.033 A 
HETATM   19  C14 UNL     1      25.895   0.888  52.257  1.00  0.00     0.023 A 
HETATM   20  C15 UNL     1      24.586   1.336  52.174  1.00  0.00     0.031 A 
BRANCH  18  21
HETATM   21  S1  UNL     1      27.851  -0.666  53.193  1.00  0.00     0.067 S 
HETATM   22  O1  UNL     1      28.017  -2.161  53.160  1.00  0.00    -0.251 OA
BRANCH  21  23
HETATM   23  C13 UNL     1      28.674   0.094  54.606  1.00  0.00     0.259 C 
BRANCH  23  24
HETATM   24  N7  UNL     1      29.240   1.346  54.107  1.00  0.00    -0.051 NA
HETATM   25  O2  UNL     1      29.426   2.190  54.957  1.00  0.00    -0.101 OA
ENDBRANCH  23  24
ENDBRANCH  21  23
ENDBRANCH  18  21
ENDBRANCH  13  15
ENDBRANCH  12  13
BRANCH   6  26
HETATM   26  N2  UNL     1      17.072   0.049  49.385  1.00  0.00    -0.383 N 
HETATM   27  H2  UNL     1      17.752   0.347  48.653  1.00  0.00     0.157 HD
HETATM   28  H3  UNL     1      16.077   0.010  49.093  1.00  0.00     0.157 HD
ENDBRANCH   6  26
TORSDOF 6
ENDMDL
MODEL 3
REMARK VINA RESULT:      -7.8      2.250      3.728
REMARK  6 active torsions:
REMARK  status: ('A' for Active; 'I' for Inactive)
REMARK    1  A    between atoms: C5_6  and  N2_7 
REMARK    2  A    between atoms: C8_13  and  N6_14 
REMARK    3  A    between atoms: N6_14  and  C9_15 
REMARK    4  A    between atoms: C12_18  and  S1_19 
REMARK    5  A    between atoms: S1_19  and  C13_21 
REMARK    6  A    between atoms: C13_21  and  N7_22 
ROOT
HETATM    1  N1  UNL     1      27.656   1.981  52.548  1.00  0.00    -0.191 NA
HETATM    2  C1  UNL     1      26.583   1.576  52.683  1.00  0.00     0.103 C 
HETATM    3  C2  UNL     1      25.242   1.047  52.862  1.00  0.00     0.091 A 
HETATM    4  C3  UNL     1      24.993   0.142  53.873  1.00  0.00     0.045 A 
HETATM    5  C4  UNL     1      23.700  -0.356  54.043  1.00  0.00     0.059 A 
HETATM    6  C5  UNL     1      23.559  -1.253  55.074  1.00  0.00     0.136 A 
HETATM    7  N3  UNL     1      22.304  -1.765  55.260  1.00  0.00    -0.224 NA
HETATM    8  C6  UNL     1      21.319  -1.340  54.417  1.00  0.00     0.237 A 
HETATM    9  N4  UNL     1      21.495  -0.448  53.403  1.00  0.00    -0.221 NA
HETATM   10  C7  UNL     1      22.727   0.086  53.178  1.00  0.00     0.167 A 
HETATM   11  N5  UNL     1      22.990   0.974  52.192  1.00  0.00    -0.209 NA
HETATM   12  C8  UNL     1      24.250   1.462  52.025  1.00  0.00     0.151 A 
ENDROOT
BRANCH  12  13
HETATM   13  N6  UNL     1      24.408   2.361  50.940  1.00  0.00    -0.340 N 
HETATM   14  H5  UNL     1      24.492   2.007  49.940  1.00  0.00     0.167 HD
BRANCH  13  15
HETATM   15  C9  UNL     1      24.481   3.768  50.789  1.00  0.00     0.033 A 
HETATM   16  C10 UNL     1      23.748   4.694  51.454  1.00  0.00     0.031 A 
HETATM   17  C11 UNL     1      23.900   6.037  51.208  1.00  0.00     0.023 A 
HETATM   18  C12 UNL     1      24.830   6.389  50.256  1.00  0.00     0.033 A 
HETATM   19  C14 UNL     1      25.604   5.483  49.550  1.00  0.00     0.023 A 
HETATM   20  C15 UNL     1      25.414   4.140  49.835  1.00  0.00     0.031 A 
BRANCH  18  21
HETATM   21  S1  UNL     1      25.122   8.092  49.830  1.00  0.00     0.067 S 
HETATM   22  O1  UNL     1      24.323   8.548  48.639  1.00  0.00    -0.251 OA
BRANCH  21  23
HETATM   23  C13 UNL     1      26.891   8.384  49.634  1.00  0.00     0.259 C 
BRANCH  23  24
HETATM   24  N7  UNL     1      27.175   9.607  50.381  1.00  0.00    -0.051 NA
HETATM   25  O2  UNL     1      27.511  10.549  49.697  1.00  0.00    -0.101 OA
ENDBRANCH  23  24
ENDBRANCH  21  23
ENDBRANCH  18  21
ENDBRANCH  13  15
ENDBRANCH  12  13
BRANCH   6  26
HETATM   26  N2  UNL     1      24.633  -1.640  55.903  1.00  0.00    -0.383 N 
HETATM   27  H2  UNL     1      25.351  -2.350  55.641  1.00  0.00     0.157 HD
HETATM   28  H3  UNL     1      24.737  -1.214  56.844  1.00  0.00     0.157 HD
ENDBRANCH   6  26
TORSDOF 6
ENDMDL
MODEL 4
REMARK VINA RESULT:      -7.7      6.523      8.623
REMARK  6 active torsions:
REMARK  status: ('A' for Active; 'I' for Inactive)
REMARK    1  A    between atoms: C5_6  and  N2_7 
REMARK    2  A    between atoms: C8_13  and  N6_14 
REMARK    3  A    between atoms: N6_14  and  C9_15 
REMARK    4  A    between atoms: C12_18  and  S1_19 
REMARK    5  A    between atoms: S1_19  and  C13_21 
REMARK    6  A    between atoms: C13_21  and  N7_22 
ROOT
HETATM    1  N1  UNL     1      23.816   4.321  52.405  1.00  0.00    -0.191 NA
HETATM    2  C1  UNL     1      24.416   3.343  52.532  1.00  0.00     0.103 C 
HETATM    3  C2  UNL     1      25.191   2.124  52.687  1.00  0.00     0.091 A 
HETATM    4  C3  UNL     1      26.492   2.194  53.143  1.00  0.00     0.045 A 
HETATM    5  C4  UNL     1      27.227   1.018  53.297  1.00  0.00     0.059 A 
HETATM    6  C5  UNL     1      28.511   1.197  53.752  1.00  0.00     0.136 A 
HETATM    7  N3  UNL     1      29.259   0.062  53.906  1.00  0.00    -0.224 NA
HETATM    8  C6  UNL     1      28.668  -1.130  53.599  1.00  0.00     0.237 A 
HETATM    9  N4  UNL     1      27.391  -1.269  53.148  1.00  0.00    -0.221 NA
HETATM   10  C7  UNL     1      26.608  -0.168  52.978  1.00  0.00     0.167 A 
HETATM   11  N5  UNL     1      25.333  -0.217  52.532  1.00  0.00    -0.209 NA
HETATM   12  C8  UNL     1      24.613   0.929  52.381  1.00  0.00     0.151 A 
ENDROOT
BRANCH  12  13
HETATM   13  N6  UNL     1      23.299   0.753  51.878  1.00  0.00    -0.340 N 
HETATM   14  H5  UNL     1      23.047   1.041  50.886  1.00  0.00     0.167 HD
BRANCH  13  15
HETATM   15  C9  UNL     1      22.082   0.226  52.377  1.00  0.00     0.033 A 
HETATM   16  C10 UNL     1      21.912  -0.477  53.524  1.00  0.00     0.031 A 
HETATM   17  C11 UNL     1      20.678  -0.950  53.896  1.00  0.00     0.023 A 
HETATM   18  C12 UNL     1      19.630  -0.676  53.046  1.00  0.00     0.033 A 
HETATM   19  C14 UNL     1      19.749   0.037  51.865  1.00  0.00     0.023 A 
HETATM   20  C15 UNL     1      21.016   0.494  51.534  1.00  0.00     0.031 A 
BRANCH  18  21
HETATM   21  S1  UNL     1      17.978  -1.239  53.399  1.00  0.00     0.067 S 
HETATM   22  O1  UNL     1      17.929  -2.672  53.856  1.00  0.00    -0.251 OA
BRANCH  21  23
HETATM   23  C13 UNL     1      16.904  -0.922  51.985  1.00  0.00     0.259 C 
BRANCH  23  24
HETATM   24  N7  UNL     1      16.147   0.281  52.326  1.00  0.00    -0.051 NA
HETATM   25  O2  UNL     1      15.341   0.133  53.219  1.00  0.00    -0.101 OA
ENDBRANCH  23  24
ENDBRANCH  21  23
ENDBRANCH  18  21
ENDBRANCH  13  15
ENDBRANCH  12  13
BRANCH   6  26
HETATM   26  N2  UNL     1      29.047   2.467  54.049  1.00  0.00    -0.383 N 
HETATM   27  H2  UNL     1      28.519   3.363  53.961  1.00  0.00     0.157 HD
HETATM   28  H3  UNL     1      30.031   2.549  54.370  1.00  0.00     0.157 HD
ENDBRANCH   6  26
TORSDOF 6
ENDMDL
MODEL 5
REMARK VINA RESULT:      -7.6      5.310      6.847
REMARK  6 active torsions:
REMARK  status: ('A' for Active; 'I' for Inactive)
REMARK    1  A    between atoms: C5_6  and  N2_7 
REMARK    2  A    between atoms: C8_13  and  N6_14 
REMARK    3  A    between atoms: N6_14  and  C9_15 
REMARK    4  A    between atoms: C12_18  and  S1_19 
REMARK    5  A    between atoms: S1_19  and  C13_21 
REMARK    6  A    between atoms: C13_21  and  N7_22 
ROOT
HETATM    1  N1  UNL     1      23.895   3.934  53.288  1.00  0.00    -0.191 NA
HETATM    2  C1  UNL     1      24.565   2.994  53.297  1.00  0.00     0.103 C 
HETATM    3  C2  UNL     1      25.426   1.824  53.300  1.00  0.00     0.091 A 
HETATM    4  C3  UNL     1      26.787   1.977  53.470  1.00  0.00     0.045 A 
HETATM    5  C4  UNL     1      27.607   0.847  53.480  1.00  0.00     0.059 A 
HETATM    6  C5  UNL     1      28.945   1.108  53.652  1.00  0.00     0.136 A 
HETATM    7  N3  UNL     1      29.775   0.020  53.658  1.00  0.00    -0.224 NA
HETATM    8  C6  UNL     1      29.204  -1.209  53.497  1.00  0.00     0.237 A 
HETATM    9  N4  UNL     1      27.871  -1.430  53.328  1.00  0.00    -0.221 NA
HETATM   10  C7  UNL     1      27.007  -0.378  53.314  1.00  0.00     0.167 A 
HETATM   11  N5  UNL     1      25.671  -0.509  53.147  1.00  0.00    -0.209 NA
HETATM   12  C8  UNL     1      24.869   0.591  53.138  1.00  0.00     0.151 A 
ENDROOT
BRANCH  12  13
HETATM   13  N6  UNL     1      23.492   0.330  52.926  1.00  0.00    -0.340 N 
HETATM   14  H5  UNL     1      23.004  -0.479  53.413  1.00  0.00     0.167 HD
BRANCH  13  15
HETATM   15  C9  UNL     1      22.450   0.922  52.168  1.00  0.00     0.033 A 
HETATM   16  C10 UNL     1      22.444   1.140  50.830  1.00  0.00     0.031 A 
HETATM   17  C11 UNL     1      21.376   1.739  50.208  1.00  0.00     0.023 A 
HETATM   18  C12 UNL     1      20.320   2.105  51.012  1.00  0.00     0.033 A 
HETATM   19  C14 UNL     1      20.276   1.904  52.381  1.00  0.00     0.023 A 
HETATM   20  C15 UNL     1      21.378   1.295  52.962  1.00  0.00     0.031 A 
BRANCH  18  21
HETATM   21  S1  UNL     1      18.876   2.899  50.340  1.00  0.00     0.067 S 
HETATM   22  O1  UNL     1      19.120   4.331  49.948  1.00  0.00    -0.251 OA
BRANCH  21  23
HETATM   23  C13 UNL     1      17.487   2.716  51.476  1.00  0.00     0.259 C 
BRANCH  23  24
HETATM   24  N7  UNL     1      17.180   4.066  51.945  1.00  0.00    -0.051 NA
HETATM   25  O2  UNL     1      16.226   4.136  52.689  1.00  0.00    -0.101 OA
ENDBRANCH  23  24
ENDBRANCH  21  23
ENDBRANCH  18  21
ENDBRANCH  13  15
ENDBRANCH  12  13
BRANCH   6  26
HETATM   26  N2  UNL     1      29.456   2.413  53.813  1.00  0.00    -0.383 N 
HETATM   27  H2  UNL     1      30.424   2.629  54.135  1.00  0.00     0.157 HD
HETATM   28  H3  UNL     1      28.850   3.231  53.612  1.00  0.00     0.157 HD
ENDBRANCH   6  26
TORSDOF 6
ENDMDL
MODEL 6
REMARK VINA RESULT:      -7.2      7.499     10.422
REMARK  6 active torsions:
REMARK  status: ('A' for Active; 'I' for Inactive)
REMARK    1  A    between atoms: C5_6  and  N2_7 
REMARK    2  A    between atoms: C8_13  and  N6_14 
REMARK    3  A    between atoms: N6_14  and  C9_15 
REMARK    4  A    between atoms: C12_18  and  S1_19 
REMARK    5  A    between atoms: S1_19  and  C13_21 
REMARK    6  A    between atoms: C13_21  and  N7_22 
ROOT
HETATM    1  N1  UNL     1      17.110   1.479  51.318  1.00  0.00    -0.191 NA
HETATM    2  C1  UNL     1      17.108   0.428  51.797  1.00  0.00     0.103 C 
HETATM    3  C2  UNL     1      17.082  -0.894  52.397  1.00  0.00     0.091 A 
HETATM    4  C3  UNL     1      16.051  -1.762  52.098  1.00  0.00     0.045 A 
HETATM    5  C4  UNL     1      16.037  -3.033  52.673  1.00  0.00     0.059 A 
HETATM    6  C5  UNL     1      14.968  -3.817  52.313  1.00  0.00     0.136 A 
HETATM    7  N3  UNL     1      14.923  -5.067  52.868  1.00  0.00    -0.224 NA
HETATM    8  C6  UNL     1      15.934  -5.417  53.715  1.00  0.00     0.237 A 
HETATM    9  N4  UNL     1      16.981  -4.613  54.050  1.00  0.00    -0.221 NA
HETATM   10  C7  UNL     1      17.067  -3.360  53.524  1.00  0.00     0.167 A 
HETATM   11  N5  UNL     1      18.068  -2.496  53.807  1.00  0.00    -0.209 NA
HETATM   12  C8  UNL     1      18.084  -1.255  53.247  1.00  0.00     0.151 A 
ENDROOT
BRANCH  12  13
HETATM   13  N6  UNL     1      19.167  -0.430  53.642  1.00  0.00    -0.340 N 
HETATM   14  H5  UNL     1      19.005   0.563  53.986  1.00  0.00     0.167 HD
BRANCH  13  15
HETATM   15  C9  UNL     1      20.574  -0.574  53.734  1.00  0.00     0.033 A 
HETATM   16  C10 UNL     1      21.260  -1.245  54.692  1.00  0.00     0.031 A 
HETATM   17  C11 UNL     1      22.632  -1.302  54.681  1.00  0.00     0.023 A 
HETATM   18  C12 UNL     1      23.269  -0.644  53.653  1.00  0.00     0.033 A 
HETATM   19  C14 UNL     1      22.616   0.055  52.651  1.00  0.00     0.023 A 
HETATM   20  C15 UNL     1      21.231   0.082  52.705  1.00  0.00     0.031 A 
BRANCH  18  21
HETATM   21  S1  UNL     1      25.044  -0.626  53.523  1.00  0.00     0.067 S 
HETATM   22  O1  UNL     1      25.734  -0.707  54.858  1.00  0.00    -0.251 OA
BRANCH  21  23
HETATM   23  C13 UNL     1      25.576   0.797  52.550  1.00  0.00     0.259 C 
BRANCH  23  24
HETATM   24  N7  UNL     1      25.850   1.858  53.519  1.00  0.00    -0.051 NA
HETATM   25  O2  UNL     1      24.999   2.718  53.578  1.00  0.00    -0.101 OA
ENDBRANCH  23  24
ENDBRANCH  21  23
ENDBRANCH  18  21
ENDBRANCH  13  15
ENDBRANCH  12  13
BRANCH   6  26
HETATM   26  N2  UNL     1      13.962  -3.378  51.427  1.00  0.00    -0.383 N 
HETATM   27  H2  UNL     1      13.224  -2.683  51.674  1.00  0.00     0.157 HD
HETATM   28  H3  UNL     1      13.923  -3.759  50.463  1.00  0.00     0.157 HD
ENDBRANCH   6  26
TORSDOF 6
ENDMDL
MODEL 7
REMARK VINA RESULT:      -7.1      4.937      8.257
REMARK  6 active torsions:
REMARK  status: ('A' for Active; 'I' for Inactive)
REMARK    1  A    between atoms: C5_6  and  N2_7 
REMARK    2  A    between atoms: C8_13  and  N6_14 
REMARK    3  A    between atoms: N6_14  and  C9_15 
REMARK    4  A    between atoms: C12_18  and  S1_19 
REMARK    5  A    between atoms: S1_19  and  C13_21 
REMARK    6  A    between atoms: C13_21  and  N7_22 
ROOT
HETATM    1  N1  UNL     1      21.431   0.565  49.423  1.00  0.00    -0.191 NA
HETATM    2  C1  UNL     1      21.757   1.614  49.070  1.00  0.00     0.103 C 
HETATM    3  C2  UNL     1      22.168   2.926  48.602  1.00  0.00     0.091 A 
HETATM    4  C3  UNL     1      21.856   3.324  47.318  1.00  0.00     0.045 A 
HETATM    5  C4  UNL     1      22.248   4.590  46.879  1.00  0.00     0.059 A 
HETATM    6  C5  UNL     1      21.892   4.887  45.586  1.00  0.00     0.136 A 
HETATM    7  N3  UNL     1      22.270   6.118  45.124  1.00  0.00    -0.224 NA
HETATM    8  C6  UNL     1      22.955   6.929  45.981  1.00  0.00     0.237 A 
HETATM    9  N4  UNL     1      23.292   6.601  47.259  1.00  0.00    -0.221 NA
HETATM   10  C7  UNL     1      22.939   5.386  47.762  1.00  0.00     0.167 A 
HETATM   11  N5  UNL     1      23.237   4.979  49.017  1.00  0.00    -0.209 NA
HETATM   12  C8  UNL     1      22.855   3.745  49.448  1.00  0.00     0.151 A 
ENDROOT
BRANCH  12  13
HETATM   13  N6  UNL     1      23.251   3.420  50.770  1.00  0.00    -0.340 N 
HETATM   14  H5  UNL     1      22.708   3.780  51.610  1.00  0.00     0.167 HD
BRANCH  13  15
HETATM   15  C9  UNL     1      24.281   2.647  51.361  1.00  0.00     0.033 A 
HETATM   16  C10 UNL     1      25.605   2.708  51.078  1.00  0.00     0.031 A 
HETATM   17  C11 UNL     1      26.510   1.892  51.711  1.00  0.00     0.023 A 
HETATM   18  C12 UNL     1      26.002   1.013  52.642  1.00  0.00     0.033 A 
HETATM   19  C14 UNL     1      24.661   0.912  52.969  1.00  0.00     0.023 A 
HETATM   20  C15 UNL     1      23.787   1.758  52.302  1.00  0.00     0.031 A 
BRANCH  18  21
HETATM   21  S1  UNL     1      27.060  -0.110  53.530  1.00  0.00     0.067 S 
HETATM   22  O1  UNL     1      26.566  -0.411  54.919  1.00  0.00    -0.251 OA
BRANCH  21  23
HETATM   23  C13 UNL     1      28.758   0.499  53.512  1.00  0.00     0.259 C 
BRANCH  23  24
HETATM   24  N7  UNL     1      28.913   1.272  54.744  1.00  0.00    -0.051 NA
HETATM   25  O2  UNL     1      29.069   2.462  54.576  1.00  0.00    -0.101 OA
ENDBRANCH  23  24
ENDBRANCH  21  23
ENDBRANCH  18  21
ENDBRANCH  13  15
ENDBRANCH  12  13
BRANCH   6  26
HETATM   26  N2  UNL     1      21.180   3.989  44.763  1.00  0.00    -0.383 N 
HETATM   27  H2  UNL     1      20.345   4.249  44.195  1.00  0.00     0.157 HD
HETATM   28  H3  UNL     1      21.480   2.997  44.703  1.00  0.00     0.157 HD
ENDBRANCH   6  26
TORSDOF 6
ENDMDL
MODEL 8
REMARK VINA RESULT:      -7.1      5.048      8.267
REMARK  6 active torsions:
REMARK  status: ('A' for Active; 'I' for Inactive)
REMARK    1  A    between atoms: C5_6  and  N2_7 
REMARK    2  A    between atoms: C8_13  and  N6_14 
REMARK    3  A    between atoms: N6_14  and  C9_15 
REMARK    4  A    between atoms: C12_18  and  S1_19 
REMARK    5  A    between atoms: S1_19  and  C13_21 
REMARK    6  A    between atoms: C13_21  and  N7_22 
ROOT
HETATM    1  N1  UNL     1      20.707  -0.111  51.569  1.00  0.00    -0.191 NA
HETATM    2  C1  UNL     1      21.176   0.850  51.136  1.00  0.00     0.103 C 
HETATM    3  C2  UNL     1      21.762   2.053  50.568  1.00  0.00     0.091 A 
HETATM    4  C3  UNL     1      21.346   2.499  49.331  1.00  0.00     0.045 A 
HETATM    5  C4  UNL     1      21.908   3.659  48.796  1.00  0.00     0.059 A 
HETATM    6  C5  UNL     1      21.428   4.015  47.559  1.00  0.00     0.136 A 
HETATM    7  N3  UNL     1      21.967   5.144  47.006  1.00  0.00    -0.224 NA
HETATM    8  C6  UNL     1      22.918   5.807  47.725  1.00  0.00     0.237 A 
HETATM    9  N4  UNL     1      23.371   5.424  48.951  1.00  0.00    -0.221 NA
HETATM   10  C7  UNL     1      22.866   4.306  49.541  1.00  0.00     0.167 A 
HETATM   11  N5  UNL     1      23.262   3.853  50.752  1.00  0.00    -0.209 NA
HETATM   12  C8  UNL     1      22.715   2.723  51.276  1.00  0.00     0.151 A 
ENDROOT
BRANCH  12  13
HETATM   13  N6  UNL     1      23.232   2.332  52.537  1.00  0.00    -0.340 N 
HETATM   14  H5  UNL     1      22.712   2.554  53.438  1.00  0.00     0.167 HD
BRANCH  13  15
HETATM   15  C9  UNL     1      24.377   1.631  52.993  1.00  0.00     0.033 A 
HETATM   16  C10 UNL     1      24.504   0.288  53.133  1.00  0.00     0.031 A 
HETATM   17  C11 UNL     1      25.665  -0.274  53.601  1.00  0.00     0.023 A 
HETATM   18  C12 UNL     1      26.686   0.592  53.920  1.00  0.00     0.033 A 
HETATM   19  C14 UNL     1      26.608   1.969  53.796  1.00  0.00     0.023 A 
HETATM   20  C15 UNL     1      25.415   2.489  53.318  1.00  0.00     0.031 A 
BRANCH  18  21
HETATM   21  S1  UNL     1      28.242  -0.001  54.549  1.00  0.00     0.067 S 
HETATM   22  O1  UNL     1      29.101   1.093  55.123  1.00  0.00    -0.251 OA
BRANCH  21  23
HETATM   23  C13 UNL     1      29.094  -0.960  53.280  1.00  0.00     0.259 C 
BRANCH  23  24
HETATM   24  N7  UNL     1      28.764  -2.358  53.554  1.00  0.00    -0.051 NA
HETATM   25  O2  UNL     1      28.023  -2.869  52.743  1.00  0.00    -0.101 OA
ENDBRANCH  23  24
ENDBRANCH  21  23
ENDBRANCH  18  21
ENDBRANCH  13  15
ENDBRANCH  12  13
BRANCH   6  26
HETATM   26  N2  UNL     1      20.439   3.272  46.880  1.00  0.00    -0.383 N 
HETATM   27  H2  UNL     1      20.053   3.526  45.944  1.00  0.00     0.157 HD
HETATM   28  H3  UNL     1      20.046   2.417  47.317  1.00  0.00     0.157 HD
ENDBRANCH   6  26
TORSDOF 6
ENDMDL
MODEL 9
REMARK VINA RESULT:      -7.0      5.782      8.172
REMARK  6 active torsions:
REMARK  status: ('A' for Active; 'I' for Inactive)
REMARK    1  A    between atoms: C5_6  and  N2_7 
REMARK    2  A    between atoms: C8_13  and  N6_14 
REMARK    3  A    between atoms: N6_14  and  C9_15 
REMARK    4  A    between atoms: C12_18  and  S1_19 
REMARK    5  A    between atoms: S1_19  and  C13_21 
REMARK    6  A    between atoms: C13_21  and  N7_22 
ROOT
HETATM    1  N1  UNL     1      22.379  -1.655  55.316  1.00  0.00    -0.191 NA
HETATM    2  C1  UNL     1      22.889  -0.958  54.550  1.00  0.00     0.103 C 
HETATM    3  C2  UNL     1      23.547  -0.073  53.604  1.00  0.00     0.091 A 
HETATM    4  C3  UNL     1      24.868   0.275  53.797  1.00  0.00     0.045 A 
HETATM    5  C4  UNL     1      25.494   1.120  52.879  1.00  0.00     0.059 A 
HETATM    6  C5  UNL     1      26.807   1.408  53.163  1.00  0.00     0.136 A 
HETATM    7  N3  UNL     1      27.445   2.240  52.285  1.00  0.00    -0.224 NA
HETATM    8  C6  UNL     1      26.729   2.700  51.218  1.00  0.00     0.237 A 
HETATM    9  N4  UNL     1      25.426   2.393  50.967  1.00  0.00    -0.221 NA
HETATM   10  C7  UNL     1      24.749   1.570  51.814  1.00  0.00     0.167 A 
HETATM   11  N5  UNL     1      23.455   1.219  51.642  1.00  0.00    -0.209 NA
HETATM   12  C8  UNL     1      22.841   0.395  52.535  1.00  0.00     0.151 A 
ENDROOT
BRANCH  12  13
HETATM   13  N6  UNL     1      21.477   0.122  52.265  1.00  0.00    -0.340 N 
HETATM   14  H5  UNL     1      21.105  -0.874  52.262  1.00  0.00     0.167 HD
BRANCH  13  15
HETATM   15  C9  UNL     1      20.323   0.895  51.978  1.00  0.00     0.033 A 
HETATM   16  C10 UNL     1      20.196   2.239  52.102  1.00  0.00     0.031 A 
HETATM   17  C11 UNL     1      19.017   2.875  51.804  1.00  0.00     0.023 A 
HETATM   18  C12 UNL     1      17.977   2.080  51.378  1.00  0.00     0.033 A 
HETATM   19  C14 UNL     1      18.055   0.705  51.234  1.00  0.00     0.023 A 
HETATM   20  C15 UNL     1      19.267   0.110  51.545  1.00  0.00     0.031 A 
BRANCH  18  21
HETATM   21  S1  UNL     1      16.388   2.772  50.969  1.00  0.00     0.067 S 
HETATM   22  O1  UNL     1      16.478   4.165  50.409  1.00  0.00    -0.251 OA
BRANCH  21  23
HETATM   23  C13 UNL     1      15.285   2.664  52.392  1.00  0.00     0.259 C 
BRANCH  23  24
HETATM   24  N7  UNL     1      14.712   4.000  52.550  1.00  0.00    -0.051 NA
HETATM   25  O2  UNL     1      14.765   4.441  53.677  1.00  0.00    -0.101 OA
ENDBRANCH  23  24
ENDBRANCH  21  23
ENDBRANCH  18  21
ENDBRANCH  13  15
ENDBRANCH  12  13
BRANCH   6  26
HETATM   26  N2  UNL     1      27.477   0.889  54.291  1.00  0.00    -0.383 N 
HETATM   27  H2  UNL     1      28.474   1.088  54.525  1.00  0.00     0.157 HD
HETATM   28  H3  UNL     1      26.973   0.260  54.945  1.00  0.00     0.157 HD
ENDBRANCH   6  26
TORSDOF 6
ENDMDL
