MODEL 1
REMARK VINA RESULT:      -7.6      0.000      0.000
REMARK  1 active torsions:
REMARK  status: ('A' for Active; 'I' for Inactive)
REMARK    1  A    between atoms: N2_8  and  C7_9 
ROOT
HETATM    1  C1  UNL     1      26.435  -1.021  51.790  1.00  0.00    -0.010 C 
HETATM    2  C2  UNL     1      27.228   0.034  51.923  1.00  0.00     0.022 C 
HETATM    3  C3  UNL     1      28.314   0.064  52.883  1.00  0.00     0.250 A 
HETATM    4  C4  UNL     1      29.154   0.182  53.888  1.00  0.00     0.262 A 
HETATM    5  C5  UNL     1      28.764   0.748  55.179  1.00  0.00     0.260 A 
HETATM    6  N1  UNL     1      27.841   0.700  54.323  1.00  0.00    -0.023 N 
HETATM    7  C6  UNL     1      26.474   1.137  54.495  1.00  0.00     0.389 C 
HETATM    8  N2  UNL     1      25.633  -0.021  54.237  1.00  0.00    -0.248 N 
HETATM    9  N5  UNL     1      26.334  -1.223  53.887  1.00  0.00    -0.306 N 
HETATM   10  C15 UNL     1      26.611  -1.967  52.701  1.00  0.00     0.119 C 
HETATM   11  H12 UNL     1      26.655  -1.485  54.869  1.00  0.00     0.186 HD
ENDROOT
BRANCH   8  12
HETATM   12  C7  UNL     1      24.256  -0.373  54.220  1.00  0.00     0.159 A 
HETATM   13  N3  UNL     1      23.901  -1.240  55.216  1.00  0.00    -0.222 NA
HETATM   14  C8  UNL     1      22.647  -1.715  55.357  1.00  0.00     0.236 A 
HETATM   15  N4  UNL     1      21.702  -1.338  54.502  1.00  0.00    -0.241 NA
HETATM   16  C9  UNL     1      21.970  -0.488  53.495  1.00  0.00     0.072 A 
HETATM   17  C10 UNL     1      21.061  -0.030  52.556  1.00  0.00     0.032 A 
HETATM   18  C14 UNL     1      23.254  -0.008  53.359  1.00  0.00     0.040 A 
HETATM   19  C11 UNL     1      21.425   0.848  51.558  1.00  0.00     0.002 A 
HETATM   20  C12 UNL     1      22.731   1.316  51.448  1.00  0.00     0.001 A 
HETATM   21  C13 UNL     1      23.642   0.866  52.375  1.00  0.00     0.018 A 
ENDBRANCH   8  12
TORSDOF 1
ENDMDL
MODEL 2
REMARK VINA RESULT:      -7.5      3.051      5.682
REMARK  1 active torsions:
REMARK  status: ('A' for Active; 'I' for Inactive)
REMARK    1  A    between atoms: N2_8  and  C7_9 
ROOT
HETATM    1  C1  UNL     1      26.083   2.140  50.136  1.00  0.00    -0.010 C 
HETATM    2  C2  UNL     1      24.774   2.168  50.350  1.00  0.00     0.022 C 
HETATM    3  C3  UNL     1      24.088   3.376  50.766  1.00  0.00     0.250 A 
HETATM    4  C4  UNL     1      23.499   4.399  51.347  1.00  0.00     0.262 A 
HETATM    5  C5  UNL     1      23.388   4.524  52.800  1.00  0.00     0.260 A 
HETATM    6  N1  UNL     1      23.986   3.488  52.403  1.00  0.00    -0.023 N 
HETATM    7  C6  UNL     1      24.556   2.447  53.227  1.00  0.00     0.389 C 
HETATM    8  N2  UNL     1      25.968   2.376  52.886  1.00  0.00    -0.248 N 
HETATM    9  N5  UNL     1      26.402   3.294  51.873  1.00  0.00    -0.306 N 
HETATM   10  C15 UNL     1      26.727   3.244  50.485  1.00  0.00     0.119 C 
HETATM   11  H12 UNL     1      26.438   4.166  52.485  1.00  0.00     0.186 HD
ENDROOT
BRANCH   8  12
HETATM   12  C7  UNL     1      27.133   1.649  53.256  1.00  0.00     0.159 A 
HETATM   13  N3  UNL     1      28.104   2.425  53.824  1.00  0.00    -0.222 NA
HETATM   14  C8  UNL     1      29.295   1.930  54.220  1.00  0.00     0.236 A 
HETATM   15  N4  UNL     1      29.554   0.637  54.059  1.00  0.00    -0.241 NA
HETATM   16  C9  UNL     1      28.651  -0.194  53.509  1.00  0.00     0.072 A 
HETATM   17  C10 UNL     1      28.818  -1.553  53.301  1.00  0.00     0.032 A 
HETATM   18  C14 UNL     1      27.438   0.321  53.108  1.00  0.00     0.040 A 
HETATM   19  C11 UNL     1      27.832  -2.330  52.734  1.00  0.00     0.002 A 
HETATM   20  C12 UNL     1      26.616  -1.780  52.339  1.00  0.00     0.001 A 
HETATM   21  C13 UNL     1      26.440  -0.431  52.540  1.00  0.00     0.018 A 
ENDBRANCH   8  12
TORSDOF 1
ENDMDL
MODEL 3
REMARK VINA RESULT:      -7.4      1.626      5.774
REMARK  1 active torsions:
REMARK  status: ('A' for Active; 'I' for Inactive)
REMARK    1  A    between atoms: N2_8  and  C7_9 
ROOT
HETATM    1  C1  UNL     1      24.644   2.582  51.289  1.00  0.00    -0.010 C 
HETATM    2  C2  UNL     1      23.657   1.727  51.057  1.00  0.00     0.022 C 
HETATM    3  C3  UNL     1      22.484   1.657  51.906  1.00  0.00     0.250 A 
HETATM    4  C4  UNL     1      21.530   1.440  52.785  1.00  0.00     0.262 A 
HETATM    5  C5  UNL     1      21.660   0.461  53.863  1.00  0.00     0.260 A 
HETATM    6  N1  UNL     1      22.665   0.552  53.110  1.00  0.00    -0.023 N 
HETATM    7  C6  UNL     1      23.897  -0.196  53.213  1.00  0.00     0.389 C 
HETATM    8  N2  UNL     1      24.964   0.781  53.358  1.00  0.00    -0.248 N 
HETATM    9  N5  UNL     1      24.546   2.153  53.351  1.00  0.00    -0.306 N 
HETATM   10  C15 UNL     1      24.549   3.244  52.432  1.00  0.00     0.119 C 
HETATM   11  H12 UNL     1      24.173   2.187  54.349  1.00  0.00     0.186 HD
ENDROOT
BRANCH   8  12
HETATM   12  C7  UNL     1      26.377   0.821  53.519  1.00  0.00     0.159 A 
HETATM   13  N3  UNL     1      26.852   2.052  53.873  1.00  0.00    -0.222 NA
HETATM   14  C8  UNL     1      28.165   2.305  54.049  1.00  0.00     0.236 A 
HETATM   15  N4  UNL     1      29.050   1.330  53.874  1.00  0.00    -0.241 NA
HETATM   16  C9  UNL     1      28.664   0.090  53.525  1.00  0.00     0.072 A 
HETATM   17  C10 UNL     1      29.500  -0.994  53.323  1.00  0.00     0.032 A 
HETATM   18  C14 UNL     1      27.320  -0.159  53.348  1.00  0.00     0.040 A 
HETATM   19  C11 UNL     1      29.014  -2.235  52.971  1.00  0.00     0.002 A 
HETATM   20  C12 UNL     1      27.650  -2.454  52.800  1.00  0.00     0.001 A 
HETATM   21  C13 UNL     1      26.810  -1.383  52.998  1.00  0.00     0.018 A 
ENDBRANCH   8  12
TORSDOF 1
ENDMDL
MODEL 4
REMARK VINA RESULT:      -7.3      1.743      3.104
REMARK  1 active torsions:
REMARK  status: ('A' for Active; 'I' for Inactive)
REMARK    1  A    between atoms: N2_8  and  C7_9 
ROOT
HETATM    1  C1  UNL     1      27.434   1.849  54.129  1.00  0.00    -0.010 C 
HETATM    2  C2  UNL     1      27.974   0.792  54.721  1.00  0.00     0.022 C 
HETATM    3  C3  UNL     1      28.897  -0.088  54.032  1.00  0.00     0.250 A 
HETATM    4  C4  UNL     1      29.558  -1.003  53.355  1.00  0.00     0.262 A 
HETATM    5  C5  UNL     1      28.897  -2.137  52.711  1.00  0.00     0.260 A 
HETATM    6  N1  UNL     1      28.122  -1.347  53.313  1.00  0.00    -0.023 N 
HETATM    7  C6  UNL     1      26.685  -1.455  53.420  1.00  0.00     0.389 C 
HETATM    8  N2  UNL     1      26.135  -0.232  52.859  1.00  0.00    -0.248 N 
HETATM    9  N5  UNL     1      27.102   0.715  52.382  1.00  0.00    -0.306 N 
HETATM   10  C15 UNL     1      27.675   1.942  52.830  1.00  0.00     0.119 C 
HETATM   11  H12 UNL     1      27.338   0.220  51.468  1.00  0.00     0.186 HD
ENDROOT
BRANCH   8  12
HETATM   12  C7  UNL     1      24.870   0.368  52.608  1.00  0.00     0.159 A 
HETATM   13  N3  UNL     1      24.890   1.280  51.590  1.00  0.00    -0.222 NA
HETATM   14  C8  UNL     1      23.798   1.978  51.214  1.00  0.00     0.236 A 
HETATM   15  N4  UNL     1      22.647   1.786  51.849  1.00  0.00    -0.241 NA
HETATM   16  C9  UNL     1      22.544   0.906  52.861  1.00  0.00     0.072 A 
HETATM   17  C10 UNL     1      21.396   0.629  53.583  1.00  0.00     0.032 A 
HETATM   18  C14 UNL     1      23.665   0.199  53.238  1.00  0.00     0.040 A 
HETATM   19  C11 UNL     1      21.383  -0.295  54.605  1.00  0.00     0.002 A 
HETATM   20  C12 UNL     1      22.531  -0.995  54.961  1.00  0.00     0.001 A 
HETATM   21  C13 UNL     1      23.678  -0.726  54.251  1.00  0.00     0.018 A 
ENDBRANCH   8  12
TORSDOF 1
ENDMDL
MODEL 5
REMARK VINA RESULT:      -7.3      1.671      2.062
REMARK  1 active torsions:
REMARK  status: ('A' for Active; 'I' for Inactive)
REMARK    1  A    between atoms: N2_8  and  C7_9 
ROOT
HETATM    1  C1  UNL     1      26.669   1.907  51.493  1.00  0.00    -0.010 C 
HETATM    2  C2  UNL     1      27.476   2.302  52.469  1.00  0.00     0.022 C 
HETATM    3  C3  UNL     1      28.421   1.400  53.099  1.00  0.00     0.250 A 
HETATM    4  C4  UNL     1      29.119   0.545  53.814  1.00  0.00     0.262 A 
HETATM    5  C5  UNL     1      28.578  -0.117  55.000  1.00  0.00     0.260 A 
HETATM    6  N1  UNL     1      27.779   0.669  54.424  1.00  0.00    -0.023 N 
HETATM    7  C6  UNL     1      26.420   0.964  54.814  1.00  0.00     0.389 C 
HETATM    8  N2  UNL     1      25.579   0.618  53.679  1.00  0.00    -0.248 N 
HETATM    9  N5  UNL     1      26.275   0.114  52.530  1.00  0.00    -0.306 N 
HETATM   10  C15 UNL     1      26.682   0.604  51.254  1.00  0.00     0.119 C 
HETATM   11  H12 UNL     1      26.448  -0.873  52.897  1.00  0.00     0.186 HD
ENDROOT
BRANCH   8  12
HETATM   12  C7  UNL     1      24.204   0.612  53.316  1.00  0.00     0.159 A 
HETATM   13  N3  UNL     1      23.640  -0.633  53.330  1.00  0.00    -0.222 NA
HETATM   14  C8  UNL     1      22.353  -0.855  52.991  1.00  0.00     0.236 A 
HETATM   15  N4  UNL     1      21.586   0.166  52.625  1.00  0.00    -0.241 NA
HETATM   16  C9  UNL     1      22.065   1.422  52.585  1.00  0.00     0.072 A 
HETATM   17  C10 UNL     1      21.352   2.551  52.223  1.00  0.00     0.032 A 
HETATM   18  C14 UNL     1      23.380   1.638  52.933  1.00  0.00     0.040 A 
HETATM   19  C11 UNL     1      21.926   3.804  52.217  1.00  0.00     0.002 A 
HETATM   20  C12 UNL     1      23.258   3.991  52.574  1.00  0.00     0.001 A 
HETATM   21  C13 UNL     1      23.976   2.874  52.934  1.00  0.00     0.018 A 
ENDBRANCH   8  12
TORSDOF 1
ENDMDL
MODEL 6
REMARK VINA RESULT:      -6.9      2.408      3.999
REMARK  1 active torsions:
REMARK  status: ('A' for Active; 'I' for Inactive)
REMARK    1  A    between atoms: N2_8  and  C7_9 
ROOT
HETATM    1  C1  UNL     1      27.095   1.893  54.583  1.00  0.00    -0.010 C 
HETATM    2  C2  UNL     1      27.220   0.615  54.916  1.00  0.00     0.022 C 
HETATM    3  C3  UNL     1      28.422  -0.142  54.626  1.00  0.00     0.250 A 
HETATM    4  C4  UNL     1      29.411  -0.885  54.179  1.00  0.00     0.262 A 
HETATM    5  C5  UNL     1      29.352  -1.585  52.896  1.00  0.00     0.260 A 
HETATM    6  N1  UNL     1      28.326  -0.911  53.176  1.00  0.00    -0.023 N 
HETATM    7  C6  UNL     1      27.135  -0.768  52.371  1.00  0.00     0.389 C 
HETATM    8  N2  UNL     1      26.974   0.655  52.117  1.00  0.00    -0.248 N 
HETATM    9  N5  UNL     1      27.973   1.500  52.706  1.00  0.00    -0.306 N 
HETATM   10  C15 UNL     1      28.077   2.370  53.832  1.00  0.00     0.119 C 
HETATM   11  H12 UNL     1      28.749   1.307  52.001  1.00  0.00     0.186 HD
ENDROOT
BRANCH   8  12
HETATM   12  C7  UNL     1      26.097   1.537  51.429  1.00  0.00     0.159 A 
HETATM   13  N3  UNL     1      26.724   2.314  50.496  1.00  0.00    -0.222 NA
HETATM   14  C8  UNL     1      26.072   3.234  49.754  1.00  0.00     0.236 A 
HETATM   15  N4  UNL     1      24.766   3.406  49.924  1.00  0.00    -0.241 NA
HETATM   16  C9  UNL     1      24.075   2.681  50.821  1.00  0.00     0.072 A 
HETATM   17  C10 UNL     1      22.717   2.779  51.072  1.00  0.00     0.032 A 
HETATM   18  C14 UNL     1      24.750   1.745  51.574  1.00  0.00     0.040 A 
HETATM   19  C11 UNL     1      22.091   1.988  52.011  1.00  0.00     0.002 A 
HETATM   20  C12 UNL     1      22.800   1.050  52.755  1.00  0.00     0.001 A 
HETATM   21  C13 UNL     1      24.150   0.945  52.514  1.00  0.00     0.018 A 
ENDBRANCH   8  12
TORSDOF 1
ENDMDL
MODEL 7
REMARK VINA RESULT:      -6.9      4.339      5.973
REMARK  1 active torsions:
REMARK  status: ('A' for Active; 'I' for Inactive)
REMARK    1  A    between atoms: N2_8  and  C7_9 
ROOT
HETATM    1  C1  UNL     1      23.226   2.512  52.268  1.00  0.00    -0.010 C 
HETATM    2  C2  UNL     1      24.076   1.493  52.288  1.00  0.00     0.022 C 
HETATM    3  C3  UNL     1      25.290   1.519  53.078  1.00  0.00     0.250 A 
HETATM    4  C4  UNL     1      26.487   1.620  53.616  1.00  0.00     0.262 A 
HETATM    5  C5  UNL     1      27.644   2.120  52.874  1.00  0.00     0.260 A 
HETATM    6  N1  UNL     1      26.569   2.091  52.218  1.00  0.00    -0.023 N 
HETATM    7  C6  UNL     1      26.381   2.496  50.844  1.00  0.00     0.389 C 
HETATM    8  N2  UNL     1      25.366   3.537  50.854  1.00  0.00    -0.248 N 
HETATM    9  N5  UNL     1      24.838   3.867  52.146  1.00  0.00    -0.306 N 
HETATM   10  C15 UNL     1      23.650   3.601  52.891  1.00  0.00     0.119 C 
HETATM   11  H12 UNL     1      25.661   4.454  52.485  1.00  0.00     0.186 HD
ENDROOT
BRANCH   8  12
HETATM   12  C7  UNL     1      24.687   4.393  49.943  1.00  0.00     0.159 A 
HETATM   13  N3  UNL     1      25.006   5.713  50.092  1.00  0.00    -0.222 NA
HETATM   14  C8  UNL     1      24.451   6.688  49.343  1.00  0.00     0.236 A 
HETATM   15  N4  UNL     1      23.553   6.370  48.416  1.00  0.00    -0.241 NA
HETATM   16  C9  UNL     1      23.185   5.094  48.206  1.00  0.00     0.072 A 
HETATM   17  C10 UNL     1      22.266   4.658  47.267  1.00  0.00     0.032 A 
HETATM   18  C14 UNL     1      23.758   4.106  48.977  1.00  0.00     0.040 A 
HETATM   19  C11 UNL     1      21.954   3.323  47.119  1.00  0.00     0.002 A 
HETATM   20  C12 UNL     1      22.551   2.349  47.913  1.00  0.00     0.001 A 
HETATM   21  C13 UNL     1      23.465   2.772  48.850  1.00  0.00     0.018 A 
ENDBRANCH   8  12
TORSDOF 1
ENDMDL
MODEL 8
REMARK VINA RESULT:      -6.8      3.192      6.160
REMARK  1 active torsions:
REMARK  status: ('A' for Active; 'I' for Inactive)
REMARK    1  A    between atoms: N2_8  and  C7_9 
ROOT
HETATM    1  C1  UNL     1      20.811   0.984  49.890  1.00  0.00    -0.010 C 
HETATM    2  C2  UNL     1      19.954   1.956  50.173  1.00  0.00     0.022 C 
HETATM    3  C3  UNL     1      20.087   3.287  49.614  1.00  0.00     0.250 A 
HETATM    4  C4  UNL     1      20.321   4.539  49.287  1.00  0.00     0.262 A 
HETATM    5  C5  UNL     1      21.094   5.444  50.137  1.00  0.00     0.260 A 
HETATM    6  N1  UNL     1      20.965   4.276  50.591  1.00  0.00    -0.023 N 
HETATM    7  C6  UNL     1      21.495   3.765  51.833  1.00  0.00     0.389 C 
HETATM    8  N2  UNL     1      22.344   2.636  51.488  1.00  0.00    -0.248 N 
HETATM    9  N5  UNL     1      22.421   2.332  50.088  1.00  0.00    -0.306 N 
HETATM   10  C15 UNL     1      21.872   1.365  49.194  1.00  0.00     0.119 C 
HETATM   11  H12 UNL     1      23.092   3.114  49.815  1.00  0.00     0.186 HD
ENDROOT
BRANCH   8  12
HETATM   12  C7  UNL     1      23.177   1.676  52.125  1.00  0.00     0.159 A 
HETATM   13  N3  UNL     1      24.473   1.701  51.690  1.00  0.00    -0.222 NA
HETATM   14  C8  UNL     1      25.415   0.854  52.151  1.00  0.00     0.236 A 
HETATM   15  N4  UNL     1      25.090  -0.052  53.067  1.00  0.00    -0.241 NA
HETATM   16  C9  UNL     1      23.837  -0.142  53.548  1.00  0.00     0.072 A 
HETATM   17  C10 UNL     1      23.397  -1.043  54.502  1.00  0.00     0.032 A 
HETATM   18  C14 UNL     1      22.882   0.728  53.070  1.00  0.00     0.040 A 
HETATM   19  C11 UNL     1      22.090  -1.059  54.941  1.00  0.00     0.002 A 
HETATM   20  C12 UNL     1      21.148  -0.166  54.439  1.00  0.00     0.001 A 
HETATM   21  C13 UNL     1      21.575   0.733  53.490  1.00  0.00     0.018 A 
ENDBRANCH   8  12
TORSDOF 1
ENDMDL
MODEL 9
REMARK VINA RESULT:      -6.8      3.324      6.668
REMARK  1 active torsions:
REMARK  status: ('A' for Active; 'I' for Inactive)
REMARK    1  A    between atoms: N2_8  and  C7_9 
ROOT
HETATM    1  C1  UNL     1      21.606   0.629  50.081  1.00  0.00    -0.010 C 
HETATM    2  C2  UNL     1      20.623   1.044  50.868  1.00  0.00     0.022 C 
HETATM    3  C3  UNL     1      19.826   2.213  50.553  1.00  0.00     0.250 A 
HETATM    4  C4  UNL     1      19.247   3.383  50.387  1.00  0.00     0.262 A 
HETATM    5  C5  UNL     1      19.773   4.613  50.978  1.00  0.00     0.260 A 
HETATM    6  N1  UNL     1      20.447   3.578  51.227  1.00  0.00    -0.023 N 
HETATM    7  C6  UNL     1      21.654   3.498  52.016  1.00  0.00     0.389 C 
HETATM    8  N2  UNL     1      22.679   2.939  51.150  1.00  0.00    -0.248 N 
HETATM    9  N5  UNL     1      22.251   2.620  49.818  1.00  0.00    -0.306 N 
HETATM   10  C15 UNL     1      21.902   1.448  49.083  1.00  0.00     0.119 C 
HETATM   11  H12 UNL     1      22.251   3.614  49.433  1.00  0.00     0.186 HD
ENDROOT
BRANCH   8  12
HETATM   12  C7  UNL     1      24.056   2.587  51.194  1.00  0.00     0.159 A 
HETATM   13  N3  UNL     1      24.850   3.387  50.419  1.00  0.00    -0.222 NA
HETATM   14  C8  UNL     1      26.181   3.202  50.304  1.00  0.00     0.236 A 
HETATM   15  N4  UNL     1      26.764   2.206  50.962  1.00  0.00    -0.241 NA
HETATM   16  C9  UNL     1      26.054   1.375  51.745  1.00  0.00     0.072 A 
HETATM   17  C10 UNL     1      26.563   0.314  52.474  1.00  0.00     0.032 A 
HETATM   18  C14 UNL     1      24.695   1.572  51.857  1.00  0.00     0.040 A 
HETATM   19  C11 UNL     1      25.757  -0.484  53.257  1.00  0.00     0.002 A 
HETATM   20  C12 UNL     1      24.387  -0.260  53.350  1.00  0.00     0.001 A 
HETATM   21  C13 UNL     1      23.871   0.792  52.628  1.00  0.00     0.018 A 
ENDBRANCH   8  12
TORSDOF 1
ENDMDL
