MODEL 1
REMARK VINA RESULT:      -7.3      0.000      0.000
REMARK  10 active torsions:
REMARK  status: ('A' for Active; 'I' for Inactive)
REMARK    1  A    between atoms: C2_2  and  N1_3 
REMARK    2  A    between atoms: N1_3  and  C3_4 
REMARK    3  A    between atoms: N1_3  and  C5_6 
REMARK    4  A    between atoms: C5_6  and  C6_7 
REMARK    5  A    between atoms: C6_7  and  O1_8 
REMARK    6  A    between atoms: O1_8  and  C7_9 
REMARK    7  A    between atoms: C10_12  and  N2_13 
REMARK    8  A    between atoms: N2_13  and  C11_14 
REMARK    9  A    between atoms: C13_16  and  C14_17 
REMARK   10  A    between atoms: C19_25  and  O2_26 
ROOT
HETATM    1  C7  UNL     1      24.031   0.627  52.946  1.00  0.00     0.103 A 
HETATM    2  C8  UNL     1      24.462   1.644  52.124  1.00  0.00     0.057 A 
HETATM    3  C9  UNL     1      23.827   2.144  51.032  1.00  0.00     0.042 A 
HETATM    4  C10 UNL     1      24.389   3.163  50.312  1.00  0.00     0.142 A 
HETATM    5  N3  UNL     1      23.717   3.617  49.240  1.00  0.00    -0.224 NA
HETATM    6  C16 UNL     1      22.533   3.071  48.905  1.00  0.00     0.236 A 
HETATM    7  N4  UNL     1      21.988   2.078  49.610  1.00  0.00    -0.241 NA
HETATM    8  C17 UNL     1      22.598   1.579  50.686  1.00  0.00     0.075 A 
HETATM    9  C18 UNL     1      22.100   0.541  51.477  1.00  0.00     0.072 A 
HETATM   10  C19 UNL     1      22.794   0.077  52.575  1.00  0.00     0.103 A 
ENDROOT
BRANCH   1  11
HETATM   11  O1  UNL     1      24.560   0.045  54.040  1.00  0.00    -0.347 OA
BRANCH  11  12
HETATM   12  C6  UNL     1      25.766  -0.600  54.267  1.00  0.00     0.195 C 
BRANCH  12  13
HETATM   13  C5  UNL     1      26.809   0.229  54.927  1.00  0.00     0.143 C 
BRANCH  13  14
HETATM   14  N1  UNL     1      28.125   0.138  54.395  1.00  0.00    -0.411 N 
BRANCH  14  15
HETATM   15  C2  UNL     1      28.271  -0.751  53.268  1.00  0.00     0.112 C 
HETATM   16  C1  UNL     1      29.647  -1.392  53.394  1.00  0.00     0.026 C 
ENDBRANCH  14  15
BRANCH  14  17
HETATM   17  C3  UNL     1      28.917   1.306  54.368  1.00  0.00     0.112 C 
HETATM   18  C4  UNL     1      28.288   2.345  53.482  1.00  0.00     0.026 C 
ENDBRANCH  14  17
ENDBRANCH  13  14
ENDBRANCH  12  13
ENDBRANCH  11  12
ENDBRANCH   1  11
BRANCH  10  19
HETATM   19  O2  UNL     1      22.214  -0.949  53.285  1.00  0.00    -0.353 OA
HETATM   20  C20 UNL     1      21.128  -0.874  54.149  1.00  0.00     0.210 C 
ENDBRANCH  10  19
BRANCH   4  21
HETATM   21  N2  UNL     1      25.633   3.778  50.619  1.00  0.00    -0.340 N 
HETATM   22  H16 UNL     1      26.261   3.591  51.428  1.00  0.00     0.167 HD
BRANCH  21  23
HETATM   23  C11 UNL     1      26.193   4.792  49.790  1.00  0.00     0.034 A 
HETATM   24  C12 UNL     1      26.063   6.086  49.499  1.00  0.00     0.037 A 
HETATM   25  C13 UNL     1      27.150   6.012  48.534  1.00  0.00    -0.040 A 
HETATM   26  C15 UNL     1      27.289   4.709  48.817  1.00  0.00     0.037 A 
BRANCH  25  27
HETATM   27  C14 UNL     1      27.777   7.041  47.642  1.00  0.00     0.153 C 
HETATM   28 CL1  UNL     1      29.547   6.900  47.755  1.00  0.00    -0.126 Cl
ENDBRANCH  25  27
ENDBRANCH  21  23
ENDBRANCH   4  21
TORSDOF 10
ENDMDL
MODEL 2
REMARK VINA RESULT:      -7.2      1.546      1.656
REMARK  10 active torsions:
REMARK  status: ('A' for Active; 'I' for Inactive)
REMARK    1  A    between atoms: C2_2  and  N1_3 
REMARK    2  A    between atoms: N1_3  and  C3_4 
REMARK    3  A    between atoms: N1_3  and  C5_6 
REMARK    4  A    between atoms: C5_6  and  C6_7 
REMARK    5  A    between atoms: C6_7  and  O1_8 
REMARK    6  A    between atoms: O1_8  and  C7_9 
REMARK    7  A    between atoms: C10_12  and  N2_13 
REMARK    8  A    between atoms: N2_13  and  C11_14 
REMARK    9  A    between atoms: C13_16  and  C14_17 
REMARK   10  A    between atoms: C19_25  and  O2_26 
ROOT
HETATM    1  C7  UNL     1      23.933   0.648  52.847  1.00  0.00     0.103 A 
HETATM    2  C8  UNL     1      24.001   1.961  52.438  1.00  0.00     0.057 A 
HETATM    3  C9  UNL     1      22.963   2.791  52.159  1.00  0.00     0.042 A 
HETATM    4  C10 UNL     1      23.195   4.079  51.760  1.00  0.00     0.142 A 
HETATM    5  N3  UNL     1      22.129   4.854  51.494  1.00  0.00    -0.224 NA
HETATM    6  C16 UNL     1      20.885   4.357  51.623  1.00  0.00     0.236 A 
HETATM    7  N4  UNL     1      20.662   3.101  52.013  1.00  0.00    -0.241 NA
HETATM    8  C17 UNL     1      21.671   2.276  52.293  1.00  0.00     0.075 A 
HETATM    9  C18 UNL     1      21.527   0.949  52.704  1.00  0.00     0.072 A 
HETATM   10  C19 UNL     1      22.624   0.156  52.974  1.00  0.00     0.103 A 
ENDROOT
BRANCH   1  11
HETATM   11  O1  UNL     1      24.872  -0.269  53.149  1.00  0.00    -0.347 OA
BRANCH  11  12
HETATM   12  C6  UNL     1      25.686  -0.445  54.257  1.00  0.00     0.195 C 
BRANCH  12  13
HETATM   13  C5  UNL     1      26.712   0.612  54.459  1.00  0.00     0.143 C 
BRANCH  13  14
HETATM   14  N1  UNL     1      28.070   0.217  54.312  1.00  0.00    -0.411 N 
BRANCH  14  15
HETATM   15  C2  UNL     1      28.299  -0.854  53.373  1.00  0.00     0.112 C 
HETATM   16  C1  UNL     1      29.790  -1.161  53.417  1.00  0.00     0.026 C 
ENDBRANCH  14  15
BRANCH  14  17
HETATM   17  C3  UNL     1      29.066   1.217  54.363  1.00  0.00     0.112 C 
HETATM   18  C4  UNL     1      28.616   2.443  53.618  1.00  0.00     0.026 C 
ENDBRANCH  14  17
ENDBRANCH  13  14
ENDBRANCH  12  13
ENDBRANCH  11  12
ENDBRANCH   1  11
BRANCH  10  19
HETATM   19  O2  UNL     1      22.371  -1.136  53.372  1.00  0.00    -0.353 OA
HETATM   20  C20 UNL     1      21.838  -1.561  54.584  1.00  0.00     0.210 C 
ENDBRANCH  10  19
BRANCH   4  21
HETATM   21  N2  UNL     1      24.484   4.657  51.608  1.00  0.00    -0.340 N 
HETATM   22  H16 UNL     1      25.275   4.653  52.285  1.00  0.00     0.167 HD
BRANCH  21  23
HETATM   23  C11 UNL     1      24.857   5.358  50.425  1.00  0.00     0.034 A 
HETATM   24  C12 UNL     1      24.881   5.222  49.100  1.00  0.00     0.037 A 
HETATM   25  C13 UNL     1      25.457   6.549  48.941  1.00  0.00    -0.040 A 
HETATM   26  C15 UNL     1      25.439   6.698  50.274  1.00  0.00     0.037 A 
BRANCH  25  27
HETATM   27  C14 UNL     1      25.865   7.333  47.729  1.00  0.00     0.153 C 
HETATM   28 CL1  UNL     1      27.639   7.303  47.595  1.00  0.00    -0.126 Cl
ENDBRANCH  25  27
ENDBRANCH  21  23
ENDBRANCH   4  21
TORSDOF 10
ENDMDL
MODEL 3
REMARK VINA RESULT:      -7.0      3.382      6.652
REMARK  10 active torsions:
REMARK  status: ('A' for Active; 'I' for Inactive)
REMARK    1  A    between atoms: C2_2  and  N1_3 
REMARK    2  A    between atoms: N1_3  and  C3_4 
REMARK    3  A    between atoms: N1_3  and  C5_6 
REMARK    4  A    between atoms: C5_6  and  C6_7 
REMARK    5  A    between atoms: C6_7  and  O1_8 
REMARK    6  A    between atoms: O1_8  and  C7_9 
REMARK    7  A    between atoms: C10_12  and  N2_13 
REMARK    8  A    between atoms: N2_13  and  C11_14 
REMARK    9  A    between atoms: C13_16  and  C14_17 
REMARK   10  A    between atoms: C19_25  and  O2_26 
ROOT
HETATM    1  C7  UNL     1      20.336   0.575  51.594  1.00  0.00     0.103 A 
HETATM    2  C8  UNL     1      21.633   0.475  52.046  1.00  0.00     0.057 A 
HETATM    3  C9  UNL     1      22.070  -0.182  53.151  1.00  0.00     0.042 A 
HETATM    4  C10 UNL     1      23.400  -0.189  53.471  1.00  0.00     0.142 A 
HETATM    5  N3  UNL     1      23.776  -0.853  54.577  1.00  0.00    -0.224 NA
HETATM    6  C16 UNL     1      22.855  -1.483  55.330  1.00  0.00     0.236 A 
HETATM    7  N4  UNL     1      21.559  -1.475  55.016  1.00  0.00    -0.241 NA
HETATM    8  C17 UNL     1      21.115  -0.837  53.932  1.00  0.00     0.075 A 
HETATM    9  C18 UNL     1      19.778  -0.776  53.532  1.00  0.00     0.072 A 
HETATM   10  C19 UNL     1      19.397  -0.092  52.397  1.00  0.00     0.103 A 
ENDROOT
BRANCH   1  11
HETATM   11  O1  UNL     1      19.780   1.190  50.532  1.00  0.00    -0.347 OA
BRANCH  11  12
HETATM   12  C6  UNL     1      20.277   1.538  49.286  1.00  0.00     0.195 C 
BRANCH  12  13
HETATM   13  C5  UNL     1      20.777   2.933  49.174  1.00  0.00     0.143 C 
BRANCH  13  14
HETATM   14  N1  UNL     1      22.051   3.200  49.746  1.00  0.00    -0.411 N 
BRANCH  14  15
HETATM   15  C2  UNL     1      23.180   2.866  48.913  1.00  0.00     0.112 C 
HETATM   16  C1  UNL     1      24.424   3.333  49.656  1.00  0.00     0.026 C 
ENDBRANCH  14  15
BRANCH  14  17
HETATM   17  C3  UNL     1      22.195   4.354  50.548  1.00  0.00     0.112 C 
HETATM   18  C4  UNL     1      21.333   4.250  51.775  1.00  0.00     0.026 C 
ENDBRANCH  14  17
ENDBRANCH  13  14
ENDBRANCH  12  13
ENDBRANCH  11  12
ENDBRANCH   1  11
BRANCH  10  19
HETATM   19  O2  UNL     1      18.056  -0.095  52.093  1.00  0.00    -0.353 OA
HETATM   20  C20 UNL     1      17.053  -0.853  52.687  1.00  0.00     0.210 C 
ENDBRANCH  10  19
BRANCH   4  21
HETATM   21  N2  UNL     1      24.416   0.456  52.714  1.00  0.00    -0.340 N 
HETATM   22  H16 UNL     1      24.309   1.218  52.011  1.00  0.00     0.167 HD
BRANCH  21  23
HETATM   23  C11 UNL     1      25.789   0.101  52.844  1.00  0.00     0.034 A 
HETATM   24  C12 UNL     1      26.731  -0.639  52.261  1.00  0.00     0.037 A 
HETATM   25  C13 UNL     1      27.714  -0.230  53.255  1.00  0.00    -0.040 A 
HETATM   26  C15 UNL     1      26.773   0.518  53.851  1.00  0.00     0.037 A 
BRANCH  25  27
HETATM   27  C14 UNL     1      29.162  -0.569  53.438  1.00  0.00     0.153 C 
HETATM   28 CL1  UNL     1      29.358  -2.335  53.333  1.00  0.00    -0.126 Cl
ENDBRANCH  25  27
ENDBRANCH  21  23
ENDBRANCH   4  21
TORSDOF 10
ENDMDL
MODEL 4
REMARK VINA RESULT:      -7.0      2.956      6.096
REMARK  10 active torsions:
REMARK  status: ('A' for Active; 'I' for Inactive)
REMARK    1  A    between atoms: C2_2  and  N1_3 
REMARK    2  A    between atoms: N1_3  and  C3_4 
REMARK    3  A    between atoms: N1_3  and  C5_6 
REMARK    4  A    between atoms: C5_6  and  C6_7 
REMARK    5  A    between atoms: C6_7  and  O1_8 
REMARK    6  A    between atoms: O1_8  and  C7_9 
REMARK    7  A    between atoms: C10_12  and  N2_13 
REMARK    8  A    between atoms: N2_13  and  C11_14 
REMARK    9  A    between atoms: C13_16  and  C14_17 
REMARK   10  A    between atoms: C19_25  and  O2_26 
ROOT
HETATM    1  C7  UNL     1      22.303   2.087  50.925  1.00  0.00     0.103 A 
HETATM    2  C8  UNL     1      22.955   1.118  51.655  1.00  0.00     0.057 A 
HETATM    3  C9  UNL     1      22.521   0.511  52.790  1.00  0.00     0.042 A 
HETATM    4  C10 UNL     1      23.290  -0.439  53.404  1.00  0.00     0.142 A 
HETATM    5  N3  UNL     1      22.811  -1.004  54.525  1.00  0.00    -0.224 NA
HETATM    6  C16 UNL     1      21.612  -0.631  55.010  1.00  0.00     0.236 A 
HETATM    7  N4  UNL     1      20.864   0.296  54.408  1.00  0.00    -0.241 NA
HETATM    8  C17 UNL     1      21.276   0.898  53.292  1.00  0.00     0.075 A 
HETATM    9  C18 UNL     1      20.559   1.877  52.601  1.00  0.00     0.072 A 
HETATM   10  C19 UNL     1      21.055   2.456  51.451  1.00  0.00     0.103 A 
ENDROOT
BRANCH   1  11
HETATM   11  O1  UNL     1      22.623   2.760  49.803  1.00  0.00    -0.347 OA
BRANCH  11  12
HETATM   12  C6  UNL     1      23.141   4.027  49.586  1.00  0.00     0.195 C 
BRANCH  12  13
HETATM   13  C5  UNL     1      24.421   4.311  50.287  1.00  0.00     0.143 C 
BRANCH  13  14
HETATM   14  N1  UNL     1      25.576   4.455  49.469  1.00  0.00    -0.411 N 
BRANCH  14  15
HETATM   15  C2  UNL     1      25.990   5.815  49.227  1.00  0.00     0.112 C 
HETATM   16  C1  UNL     1      25.365   6.664  50.326  1.00  0.00     0.026 C 
ENDBRANCH  14  15
BRANCH  14  17
HETATM   17  C3  UNL     1      26.614   3.508  49.606  1.00  0.00     0.112 C 
HETATM   18  C4  UNL     1      26.396   2.665  50.832  1.00  0.00     0.026 C 
ENDBRANCH  14  17
ENDBRANCH  13  14
ENDBRANCH  12  13
ENDBRANCH  11  12
ENDBRANCH   1  11
BRANCH  10  19
HETATM   19  O2  UNL     1      20.269   3.410  50.849  1.00  0.00    -0.353 OA
HETATM   20  C20 UNL     1      18.990   3.811  51.218  1.00  0.00     0.210 C 
ENDBRANCH  10  19
BRANCH   4  21
HETATM   21  N2  UNL     1      24.561  -0.873  52.939  1.00  0.00    -0.340 N 
HETATM   22  H16 UNL     1      24.771  -1.598  52.221  1.00  0.00     0.167 HD
BRANCH  21  23
HETATM   23  C11 UNL     1      25.773  -0.323  53.446  1.00  0.00     0.034 A 
HETATM   24  C12 UNL     1      26.249   0.359  54.487  1.00  0.00     0.037 A 
HETATM   25  C13 UNL     1      27.592   0.345  53.924  1.00  0.00    -0.040 A 
HETATM   26  C15 UNL     1      27.124  -0.341  52.870  1.00  0.00     0.037 A 
BRANCH  25  27
HETATM   27  C14 UNL     1      28.896   0.902  54.411  1.00  0.00     0.153 C 
HETATM   28 CL1  UNL     1      29.073   2.566  53.806  1.00  0.00    -0.126 Cl
ENDBRANCH  25  27
ENDBRANCH  21  23
ENDBRANCH   4  21
TORSDOF 10
ENDMDL
MODEL 5
REMARK VINA RESULT:      -6.9      3.882      7.799
REMARK  10 active torsions:
REMARK  status: ('A' for Active; 'I' for Inactive)
REMARK    1  A    between atoms: C2_2  and  N1_3 
REMARK    2  A    between atoms: N1_3  and  C3_4 
REMARK    3  A    between atoms: N1_3  and  C5_6 
REMARK    4  A    between atoms: C5_6  and  C6_7 
REMARK    5  A    between atoms: C6_7  and  O1_8 
REMARK    6  A    between atoms: O1_8  and  C7_9 
REMARK    7  A    between atoms: C10_12  and  N2_13 
REMARK    8  A    between atoms: N2_13  and  C11_14 
REMARK    9  A    between atoms: C13_16  and  C14_17 
REMARK   10  A    between atoms: C19_25  and  O2_26 
ROOT
HETATM    1  C7  UNL     1      24.377   2.831  52.430  1.00  0.00     0.103 A 
HETATM    2  C8  UNL     1      24.311   1.652  53.139  1.00  0.00     0.057 A 
HETATM    3  C9  UNL     1      25.135   0.578  53.027  1.00  0.00     0.042 A 
HETATM    4  C10 UNL     1      24.938  -0.529  53.807  1.00  0.00     0.142 A 
HETATM    5  N3  UNL     1      25.782  -1.563  53.652  1.00  0.00    -0.224 NA
HETATM    6  C16 UNL     1      26.780  -1.489  52.752  1.00  0.00     0.236 A 
HETATM    7  N4  UNL     1      26.970  -0.408  51.994  1.00  0.00    -0.241 NA
HETATM    8  C17 UNL     1      26.172   0.655  52.094  1.00  0.00     0.075 A 
HETATM    9  C18 UNL     1      26.298   1.823  51.339  1.00  0.00     0.072 A 
HETATM   10  C19 UNL     1      25.428   2.881  51.501  1.00  0.00     0.103 A 
ENDROOT
BRANCH   1  11
HETATM   11  O1  UNL     1      23.631   3.953  52.445  1.00  0.00    -0.347 OA
BRANCH  11  12
HETATM   12  C6  UNL     1      22.296   4.193  52.161  1.00  0.00     0.195 C 
BRANCH  12  13
HETATM   13  C5  UNL     1      21.957   4.231  50.713  1.00  0.00     0.143 C 
BRANCH  13  14
HETATM   14  N1  UNL     1      21.282   3.096  50.187  1.00  0.00    -0.411 N 
BRANCH  14  15
HETATM   15  C2  UNL     1      21.585   2.785  48.812  1.00  0.00     0.112 C 
HETATM   16  C1  UNL     1      22.920   3.448  48.498  1.00  0.00     0.026 C 
ENDBRANCH  14  15
BRANCH  14  17
HETATM   17  C3  UNL     1      21.070   1.990  51.039  1.00  0.00     0.112 C 
HETATM   18  C4  UNL     1      21.303   0.704  50.296  1.00  0.00     0.026 C 
ENDBRANCH  14  17
ENDBRANCH  13  14
ENDBRANCH  12  13
ENDBRANCH  11  12
ENDBRANCH   1  11
BRANCH  10  19
HETATM   19  O2  UNL     1      25.641   3.984  50.707  1.00  0.00    -0.353 OA
HETATM   20  C20 UNL     1      26.411   4.062  49.552  1.00  0.00     0.210 C 
ENDBRANCH  10  19
BRANCH   4  21
HETATM   21  N2  UNL     1      23.903  -0.662  54.772  1.00  0.00    -0.340 N 
HETATM   22  H16 UNL     1      23.996  -0.791  55.801  1.00  0.00     0.167 HD
BRANCH  21  23
HETATM   23  C11 UNL     1      22.527  -0.634  54.405  1.00  0.00     0.034 A 
HETATM   24  C12 UNL     1      21.359  -0.122  54.790  1.00  0.00     0.037 A 
HETATM   25  C13 UNL     1      20.674  -0.762  53.676  1.00  0.00    -0.040 A 
HETATM   26  C15 UNL     1      21.844  -1.285  53.280  1.00  0.00     0.037 A 
BRANCH  25  27
HETATM   27  C14 UNL     1      19.238  -0.766  53.244  1.00  0.00     0.153 C 
HETATM   28 CL1  UNL     1      18.481  -2.286  53.774  1.00  0.00    -0.126 Cl
ENDBRANCH  25  27
ENDBRANCH  21  23
ENDBRANCH   4  21
TORSDOF 10
ENDMDL
MODEL 6
REMARK VINA RESULT:      -6.9      2.046      2.376
REMARK  10 active torsions:
REMARK  status: ('A' for Active; 'I' for Inactive)
REMARK    1  A    between atoms: C2_2  and  N1_3 
REMARK    2  A    between atoms: N1_3  and  C3_4 
REMARK    3  A    between atoms: N1_3  and  C5_6 
REMARK    4  A    between atoms: C5_6  and  C6_7 
REMARK    5  A    between atoms: C6_7  and  O1_8 
REMARK    6  A    between atoms: O1_8  and  C7_9 
REMARK    7  A    between atoms: C10_12  and  N2_13 
REMARK    8  A    between atoms: N2_13  and  C11_14 
REMARK    9  A    between atoms: C13_16  and  C14_17 
REMARK   10  A    between atoms: C19_25  and  O2_26 
ROOT
HETATM    1  C7  UNL     1      23.980   2.465  52.738  1.00  0.00     0.103 A 
HETATM    2  C8  UNL     1      23.969   3.794  52.379  1.00  0.00     0.057 A 
HETATM    3  C9  UNL     1      22.931   4.498  51.859  1.00  0.00     0.042 A 
HETATM    4  C10 UNL     1      23.078   5.822  51.551  1.00  0.00     0.142 A 
HETATM    5  N3  UNL     1      22.017   6.468  51.036  1.00  0.00    -0.224 NA
HETATM    6  C16 UNL     1      20.859   5.811  50.839  1.00  0.00     0.236 A 
HETATM    7  N4  UNL     1      20.718   4.519  51.141  1.00  0.00    -0.241 NA
HETATM    8  C17 UNL     1      21.728   3.816  51.655  1.00  0.00     0.075 A 
HETATM    9  C18 UNL     1      21.668   2.464  51.997  1.00  0.00     0.072 A 
HETATM   10  C19 UNL     1      22.760   1.805  52.523  1.00  0.00     0.103 A 
ENDROOT
BRANCH   1  11
HETATM   11  O1  UNL     1      24.930   1.661  53.254  1.00  0.00    -0.347 OA
BRANCH  11  12
HETATM   12  C6  UNL     1      26.056   1.917  54.021  1.00  0.00     0.195 C 
BRANCH  12  13
HETATM   13  C5  UNL     1      26.821   0.711  54.437  1.00  0.00     0.143 C 
BRANCH  13  14
HETATM   14  N1  UNL     1      27.835   0.262  53.547  1.00  0.00    -0.411 N 
BRANCH  14  15
HETATM   15  C2  UNL     1      29.133   0.859  53.745  1.00  0.00     0.112 C 
HETATM   16  C1  UNL     1      30.157  -0.253  53.563  1.00  0.00     0.026 C 
ENDBRANCH  14  15
BRANCH  14  17
HETATM   17  C3  UNL     1      27.832  -1.097  53.161  1.00  0.00     0.112 C 
HETATM   18  C4  UNL     1      26.554  -1.435  52.446  1.00  0.00     0.026 C 
ENDBRANCH  14  17
ENDBRANCH  13  14
ENDBRANCH  12  13
ENDBRANCH  11  12
ENDBRANCH   1  11
BRANCH  10  19
HETATM   19  O2  UNL     1      22.593   0.474  52.826  1.00  0.00    -0.353 OA
HETATM   20  C20 UNL     1      21.711  -0.084  53.745  1.00  0.00     0.210 C 
ENDBRANCH  10  19
BRANCH   4  21
HETATM   21  N2  UNL     1      24.274   6.566  51.738  1.00  0.00    -0.340 N 
HETATM   22  H16 UNL     1      24.603   7.051  52.599  1.00  0.00     0.167 HD
BRANCH  21  23
HETATM   23  C11 UNL     1      25.219   6.745  50.686  1.00  0.00     0.034 A 
HETATM   24  C12 UNL     1      25.998   7.674  50.136  1.00  0.00     0.037 A 
HETATM   25  C13 UNL     1      26.498   6.721  49.155  1.00  0.00    -0.040 A 
HETATM   26  C15 UNL     1      25.717   5.777  49.700  1.00  0.00     0.037 A 
BRANCH  25  27
HETATM   27  C14 UNL     1      27.486   6.852  48.035  1.00  0.00     0.153 C 
HETATM   28 CL1  UNL     1      28.699   5.559  48.184  1.00  0.00    -0.126 Cl
ENDBRANCH  25  27
ENDBRANCH  21  23
ENDBRANCH   4  21
TORSDOF 10
ENDMDL
MODEL 7
REMARK VINA RESULT:      -6.8      3.743      7.104
REMARK  10 active torsions:
REMARK  status: ('A' for Active; 'I' for Inactive)
REMARK    1  A    between atoms: C2_2  and  N1_3 
REMARK    2  A    between atoms: N1_3  and  C3_4 
REMARK    3  A    between atoms: N1_3  and  C5_6 
REMARK    4  A    between atoms: C5_6  and  C6_7 
REMARK    5  A    between atoms: C6_7  and  O1_8 
REMARK    6  A    between atoms: O1_8  and  C7_9 
REMARK    7  A    between atoms: C10_12  and  N2_13 
REMARK    8  A    between atoms: N2_13  and  C11_14 
REMARK    9  A    between atoms: C13_16  and  C14_17 
REMARK   10  A    between atoms: C19_25  and  O2_26 
ROOT
HETATM    1  C7  UNL     1      25.598   0.883  52.223  1.00  0.00     0.103 A 
HETATM    2  C8  UNL     1      24.228   0.960  52.347  1.00  0.00     0.057 A 
HETATM    3  C9  UNL     1      23.444   0.294  53.233  1.00  0.00     0.042 A 
HETATM    4  C10 UNL     1      22.088   0.478  53.231  1.00  0.00     0.142 A 
HETATM    5  N3  UNL     1      21.361  -0.209  54.129  1.00  0.00    -0.224 NA
HETATM    6  C16 UNL     1      21.969  -1.044  54.992  1.00  0.00     0.236 A 
HETATM    7  N4  UNL     1      23.292  -1.220  54.993  1.00  0.00    -0.241 NA
HETATM    8  C17 UNL     1      24.075  -0.571  54.130  1.00  0.00     0.075 A 
HETATM    9  C18 UNL     1      25.464  -0.698  54.061  1.00  0.00     0.072 A 
HETATM   10  C19 UNL     1      26.206   0.007  53.136  1.00  0.00     0.103 A 
ENDROOT
BRANCH   1  11
HETATM   11  O1  UNL     1      26.479   1.480  51.397  1.00  0.00    -0.347 OA
BRANCH  11  12
HETATM   12  C6  UNL     1      26.723   2.809  51.090  1.00  0.00     0.195 C 
BRANCH  12  13
HETATM   13  C5  UNL     1      26.539   3.170  49.660  1.00  0.00     0.143 C 
BRANCH  13  14
HETATM   14  N1  UNL     1      25.539   4.139  49.371  1.00  0.00    -0.411 N 
BRANCH  14  15
HETATM   15  C2  UNL     1      24.316   4.001  50.123  1.00  0.00     0.112 C 
HETATM   16  C1  UNL     1      23.433   3.034  49.345  1.00  0.00     0.026 C 
ENDBRANCH  14  15
BRANCH  14  17
HETATM   17  C3  UNL     1      25.951   5.462  49.096  1.00  0.00     0.112 C 
HETATM   18  C4  UNL     1      27.363   5.475  48.582  1.00  0.00     0.026 C 
ENDBRANCH  14  17
ENDBRANCH  13  14
ENDBRANCH  12  13
ENDBRANCH  11  12
ENDBRANCH   1  11
BRANCH  10  19
HETATM   19  O2  UNL     1      27.567  -0.191  53.153  1.00  0.00    -0.353 OA
HETATM   20  C20 UNL     1      28.426  -0.088  54.242  1.00  0.00     0.210 C 
ENDBRANCH  10  19
BRANCH   4  21
HETATM   21  N2  UNL     1      21.393   1.345  52.346  1.00  0.00    -0.340 N 
HETATM   22  H16 UNL     1      21.659   2.305  52.043  1.00  0.00     0.167 HD
BRANCH  21  23
HETATM   23  C11 UNL     1      20.163   0.964  51.735  1.00  0.00     0.034 A 
HETATM   24  C12 UNL     1      18.941   0.532  52.041  1.00  0.00     0.037 A 
HETATM   25  C13 UNL     1      18.568   0.488  50.634  1.00  0.00    -0.040 A 
HETATM   26  C15 UNL     1      19.796   0.922  50.314  1.00  0.00     0.037 A 
BRANCH  25  27
HETATM   27  C14 UNL     1      17.297   0.101  49.940  1.00  0.00     0.153 C 
HETATM   28 CL1  UNL     1      16.222   1.517  49.874  1.00  0.00    -0.126 Cl
ENDBRANCH  25  27
ENDBRANCH  21  23
ENDBRANCH   4  21
TORSDOF 10
ENDMDL
MODEL 8
REMARK VINA RESULT:      -6.7      3.450      6.835
REMARK  10 active torsions:
REMARK  status: ('A' for Active; 'I' for Inactive)
REMARK    1  A    between atoms: C2_2  and  N1_3 
REMARK    2  A    between atoms: N1_3  and  C3_4 
REMARK    3  A    between atoms: N1_3  and  C5_6 
REMARK    4  A    between atoms: C5_6  and  C6_7 
REMARK    5  A    between atoms: C6_7  and  O1_8 
REMARK    6  A    between atoms: O1_8  and  C7_9 
REMARK    7  A    between atoms: C10_12  and  N2_13 
REMARK    8  A    between atoms: N2_13  and  C11_14 
REMARK    9  A    between atoms: C13_16  and  C14_17 
REMARK   10  A    between atoms: C19_25  and  O2_26 
ROOT
HETATM    1  C7  UNL     1      26.255   1.050  52.483  1.00  0.00     0.103 A 
HETATM    2  C8  UNL     1      24.982   0.532  52.573  1.00  0.00     0.057 A 
HETATM    3  C9  UNL     1      24.455  -0.181  53.601  1.00  0.00     0.042 A 
HETATM    4  C10 UNL     1      23.164  -0.631  53.541  1.00  0.00     0.142 A 
HETATM    5  N3  UNL     1      22.696  -1.333  54.587  1.00  0.00    -0.224 NA
HETATM    6  C16 UNL     1      23.489  -1.574  55.647  1.00  0.00     0.236 A 
HETATM    7  N4  UNL     1      24.747  -1.133  55.703  1.00  0.00    -0.241 NA
HETATM    8  C17 UNL     1      25.278  -0.430  54.702  1.00  0.00     0.075 A 
HETATM    9  C18 UNL     1      26.583   0.066  54.678  1.00  0.00     0.072 A 
HETATM   10  C19 UNL     1      27.060   0.785  53.602  1.00  0.00     0.103 A 
ENDROOT
BRANCH   1  11
HETATM   11  O1  UNL     1      26.891   1.760  51.531  1.00  0.00    -0.347 OA
BRANCH  11  12
HETATM   12  C6  UNL     1      26.465   2.752  50.661  1.00  0.00     0.195 C 
BRANCH  12  13
HETATM   13  C5  UNL     1      25.018   3.085  50.747  1.00  0.00     0.143 C 
BRANCH  13  14
HETATM   14  N1  UNL     1      24.662   4.439  50.501  1.00  0.00    -0.411 N 
BRANCH  14  15
HETATM   15  C2  UNL     1      24.403   4.765  49.120  1.00  0.00     0.112 C 
HETATM   16  C1  UNL     1      23.136   4.018  48.725  1.00  0.00     0.026 C 
ENDBRANCH  14  15
BRANCH  14  17
HETATM   17  C3  UNL     1      23.857   5.102  51.454  1.00  0.00     0.112 C 
HETATM   18  C4  UNL     1      23.668   4.239  52.671  1.00  0.00     0.026 C 
ENDBRANCH  14  17
ENDBRANCH  13  14
ENDBRANCH  12  13
ENDBRANCH  11  12
ENDBRANCH   1  11
BRANCH  10  19
HETATM   19  O2  UNL     1      28.360   1.228  53.680  1.00  0.00    -0.353 OA
HETATM   20  C20 UNL     1      29.521   0.466  53.618  1.00  0.00     0.210 C 
ENDBRANCH  10  19
BRANCH   4  21
HETATM   21  N2  UNL     1      22.282  -0.407  52.450  1.00  0.00    -0.340 N 
HETATM   22  H16 UNL     1      22.072  -1.040  51.650  1.00  0.00     0.167 HD
BRANCH  21  23
HETATM   23  C11 UNL     1      21.536   0.801  52.324  1.00  0.00     0.034 A 
HETATM   24  C12 UNL     1      20.764   1.624  53.032  1.00  0.00     0.037 A 
HETATM   25  C13 UNL     1      20.579   2.494  51.880  1.00  0.00    -0.040 A 
HETATM   26  C15 UNL     1      21.353   1.672  51.156  1.00  0.00     0.037 A 
BRANCH  25  27
HETATM   27  C14 UNL     1      19.812   3.769  51.693  1.00  0.00     0.153 C 
HETATM   28 CL1  UNL     1      18.084   3.380  51.518  1.00  0.00    -0.126 Cl
ENDBRANCH  25  27
ENDBRANCH  21  23
ENDBRANCH   4  21
TORSDOF 10
ENDMDL
MODEL 9
REMARK VINA RESULT:      -6.7      2.201      5.329
REMARK  10 active torsions:
REMARK  status: ('A' for Active; 'I' for Inactive)
REMARK    1  A    between atoms: C2_2  and  N1_3 
REMARK    2  A    between atoms: N1_3  and  C3_4 
REMARK    3  A    between atoms: N1_3  and  C5_6 
REMARK    4  A    between atoms: C5_6  and  C6_7 
REMARK    5  A    between atoms: C6_7  and  O1_8 
REMARK    6  A    between atoms: O1_8  and  C7_9 
REMARK    7  A    between atoms: C10_12  and  N2_13 
REMARK    8  A    between atoms: N2_13  and  C11_14 
REMARK    9  A    between atoms: C13_16  and  C14_17 
REMARK   10  A    between atoms: C19_25  and  O2_26 
ROOT
HETATM    1  C7  UNL     1      23.160   1.022  51.850  1.00  0.00     0.103 A 
HETATM    2  C8  UNL     1      24.330   1.545  51.345  1.00  0.00     0.057 A 
HETATM    3  C9  UNL     1      25.489   1.766  52.017  1.00  0.00     0.042 A 
HETATM    4  C10 UNL     1      26.572   2.297  51.371  1.00  0.00     0.142 A 
HETATM    5  N3  UNL     1      27.692   2.497  52.086  1.00  0.00    -0.224 NA
HETATM    6  C16 UNL     1      27.724   2.178  53.393  1.00  0.00     0.236 A 
HETATM    7  N4  UNL     1      26.666   1.659  54.020  1.00  0.00    -0.241 NA
HETATM    8  C17 UNL     1      25.522   1.434  53.373  1.00  0.00     0.075 A 
HETATM    9  C18 UNL     1      24.370   0.898  53.952  1.00  0.00     0.072 A 
HETATM   10  C19 UNL     1      23.221   0.697  53.214  1.00  0.00     0.103 A 
ENDROOT
BRANCH   1  11
HETATM   11  O1  UNL     1      21.959   0.760  51.299  1.00  0.00    -0.347 OA
BRANCH  11  12
HETATM   12  C6  UNL     1      20.979   1.577  50.759  1.00  0.00     0.195 C 
BRANCH  12  13
HETATM   13  C5  UNL     1      20.339   2.513  51.721  1.00  0.00     0.143 C 
BRANCH  13  14
HETATM   14  N1  UNL     1      20.382   3.895  51.389  1.00  0.00    -0.411 N 
BRANCH  14  15
HETATM   15  C2  UNL     1      21.682   4.396  51.015  1.00  0.00     0.112 C 
HETATM   16  C1  UNL     1      22.432   4.672  52.311  1.00  0.00     0.026 C 
ENDBRANCH  14  15
BRANCH  14  17
HETATM   17  C3  UNL     1      19.283   4.450  50.697  1.00  0.00     0.112 C 
HETATM   18  C4  UNL     1      17.995   3.855  51.195  1.00  0.00     0.026 C 
ENDBRANCH  14  17
ENDBRANCH  13  14
ENDBRANCH  12  13
ENDBRANCH  11  12
ENDBRANCH   1  11
BRANCH  10  19
HETATM   19  O2  UNL     1      22.143   0.164  53.882  1.00  0.00    -0.353 OA
HETATM   20  C20 UNL     1      22.149  -0.860  54.822  1.00  0.00     0.210 C 
ENDBRANCH  10  19
BRANCH   4  21
HETATM   21  N2  UNL     1      26.597   2.652  49.995  1.00  0.00    -0.340 N 
HETATM   22  H16 UNL     1      26.711   2.026  49.171  1.00  0.00     0.167 HD
BRANCH  21  23
HETATM   23  C11 UNL     1      26.462   4.004  49.566  1.00  0.00     0.034 A 
HETATM   24  C12 UNL     1      25.621   5.035  49.632  1.00  0.00     0.037 A 
HETATM   25  C13 UNL     1      26.524   5.863  48.844  1.00  0.00    -0.040 A 
HETATM   26  C15 UNL     1      27.377   4.830  48.770  1.00  0.00     0.037 A 
BRANCH  25  27
HETATM   27  C14 UNL     1      26.434   7.282  48.368  1.00  0.00     0.153 C 
HETATM   28 CL1  UNL     1      27.279   8.333  49.529  1.00  0.00    -0.126 Cl
ENDBRANCH  25  27
ENDBRANCH  21  23
ENDBRANCH   4  21
TORSDOF 10
ENDMDL
