MODEL 1
REMARK VINA RESULT:      -7.8      0.000      0.000
REMARK  5 active torsions:
REMARK  status: ('A' for Active; 'I' for Inactive)
REMARK    1  A    between atoms: C2_2  and  C3_3 
REMARK    2  A    between atoms: C3_3  and  P1_5 
REMARK    3  A    between atoms: P1_5  and  C4_6 
REMARK    4  A    between atoms: C10_13  and  N2_14 
REMARK    5  A    between atoms: N2_14  and  C11_15 
ROOT
HETATM    1  C4  UNL     1      21.927   0.960  52.440  1.00  0.00    -0.025 A 
HETATM    2  C5  UNL     1      21.248   1.099  51.247  1.00  0.00     0.015 A 
HETATM    3  C6  UNL     1      21.881   1.759  50.187  1.00  0.00     0.033 A 
HETATM    4  C7  UNL     1      23.173   2.273  50.315  1.00  0.00     0.069 A 
HETATM    5  N1  UNL     1      23.766   2.907  49.291  1.00  0.00    -0.260 NA
HETATM    6  C8  UNL     1      25.008   3.397  49.443  1.00  0.00     0.119 A 
HETATM    7  C9  UNL     1      25.642   3.230  50.657  1.00  0.00     0.049 A 
HETATM    8  C10 UNL     1      25.068   2.576  51.755  1.00  0.00     0.046 A 
HETATM    9  C17 UNL     1      23.792   2.100  51.530  1.00  0.00     0.020 A 
HETATM   10  C18 UNL     1      23.204   1.457  52.598  1.00  0.00     0.028 A 
ENDROOT
BRANCH   8  11
HETATM   11  N2  UNL     1      25.842   2.483  52.942  1.00  0.00    -0.355 N 
HETATM   12  H11 UNL     1      25.453   3.149  53.610  1.00  0.00     0.166 HD
BRANCH  11  13
HETATM   13  C11 UNL     1      26.960   1.660  53.245  1.00  0.00     0.033 A 
HETATM   14  C12 UNL     1      28.137   2.068  53.831  1.00  0.00     0.029 A 
HETATM   15  C13 UNL     1      29.177   1.203  54.091  1.00  0.00     0.004 A 
HETATM   16  C14 UNL     1      29.089  -0.133  53.769  1.00  0.00     0.019 A 
HETATM   17  C15 UNL     1      27.914  -0.513  53.188  1.00  0.00     0.013 A 
HETATM   18 BR1  UNL     1      27.709  -2.361  52.708  1.00  0.00    -0.051 Br
HETATM   19  C16 UNL     1      26.859   0.326  52.917  1.00  0.00     0.048 A 
ENDBRANCH  11  13
ENDBRANCH   8  11
BRANCH   1  20
HETATM   20  P1  UNL     1      21.130   0.106  53.840  1.00  0.00    -0.022 P 
HETATM   21  H6  UNL     1      20.527   1.107  54.695  1.00  0.00     0.070 HD
BRANCH  20  22
HETATM   22  C3  UNL     1      22.278  -0.901  54.814  1.00  0.00     0.153 C 
HETATM   23  O1  UNL     1      21.343  -1.677  54.958  1.00  0.00    -0.293 OA
BRANCH  22  24
HETATM   24  C2  UNL     1      23.386  -1.524  55.550  1.00  0.00     0.079 C 
HETATM   25  C1  UNL     1      24.717  -0.893  55.165  1.00  0.00     0.013 C 
ENDBRANCH  22  24
ENDBRANCH  20  22
ENDBRANCH   1  20
TORSDOF 5
ENDMDL
MODEL 2
REMARK VINA RESULT:      -7.7      3.373      6.505
REMARK  5 active torsions:
REMARK  status: ('A' for Active; 'I' for Inactive)
REMARK    1  A    between atoms: C2_2  and  C3_3 
REMARK    2  A    between atoms: C3_3  and  P1_5 
REMARK    3  A    between atoms: P1_5  and  C4_6 
REMARK    4  A    between atoms: C10_13  and  N2_14 
REMARK    5  A    between atoms: N2_14  and  C11_15 
ROOT
HETATM    1  C4  UNL     1      25.416   0.656  53.763  1.00  0.00    -0.025 A 
HETATM    2  C5  UNL     1      25.633  -0.421  54.598  1.00  0.00     0.015 A 
HETATM    3  C6  UNL     1      24.539  -1.210  54.973  1.00  0.00     0.033 A 
HETATM    4  C7  UNL     1      23.248  -0.929  54.522  1.00  0.00     0.069 A 
HETATM    5  N1  UNL     1      22.208  -1.693  54.894  1.00  0.00    -0.260 NA
HETATM    6  C8  UNL     1      20.974  -1.397  54.449  1.00  0.00     0.119 A 
HETATM    7  C9  UNL     1      20.814  -0.309  53.616  1.00  0.00     0.049 A 
HETATM    8  C10 UNL     1      21.866   0.518  53.199  1.00  0.00     0.046 A 
HETATM    9  C17 UNL     1      23.102   0.158  53.694  1.00  0.00     0.020 A 
HETATM   10  C18 UNL     1      24.152   0.960  53.301  1.00  0.00     0.028 A 
ENDROOT
BRANCH   8  11
HETATM   11  N2  UNL     1      21.546   1.603  52.342  1.00  0.00    -0.355 N 
HETATM   12  H11 UNL     1      21.111   2.326  52.917  1.00  0.00     0.166 HD
BRANCH  11  13
HETATM   13  C11 UNL     1      21.746   1.756  50.943  1.00  0.00     0.033 A 
HETATM   14  C12 UNL     1      21.323   0.890  49.960  1.00  0.00     0.029 A 
HETATM   15  C13 UNL     1      21.560   1.111  48.621  1.00  0.00     0.004 A 
HETATM   16  C14 UNL     1      22.243   2.228  48.195  1.00  0.00     0.019 A 
HETATM   17  C15 UNL     1      22.652   3.071  49.187  1.00  0.00     0.013 A 
HETATM   18 BR1  UNL     1      23.612   4.655  48.678  1.00  0.00    -0.051 Br
HETATM   19  C16 UNL     1      22.431   2.877  50.530  1.00  0.00     0.048 A 
ENDBRANCH  11  13
ENDBRANCH   8  11
BRANCH   1  20
HETATM   20  P1  UNL     1      26.820   1.704  53.256  1.00  0.00    -0.022 P 
HETATM   21  H6  UNL     1      26.688   1.980  51.840  1.00  0.00     0.070 HD
BRANCH  20  22
HETATM   22  C3  UNL     1      28.433   0.942  53.570  1.00  0.00     0.153 C 
HETATM   23  O1  UNL     1      28.470   1.636  54.578  1.00  0.00    -0.293 OA
BRANCH  22  24
HETATM   24  C2  UNL     1      29.695   0.191  53.597  1.00  0.00     0.079 C 
HETATM   25  C1  UNL     1      29.437  -1.308  53.534  1.00  0.00     0.013 C 
ENDBRANCH  22  24
ENDBRANCH  20  22
ENDBRANCH   1  20
TORSDOF 5
ENDMDL
MODEL 3
REMARK VINA RESULT:      -7.5      2.509      5.180
REMARK  5 active torsions:
REMARK  status: ('A' for Active; 'I' for Inactive)
REMARK    1  A    between atoms: C2_2  and  C3_3 
REMARK    2  A    between atoms: C3_3  and  P1_5 
REMARK    3  A    between atoms: P1_5  and  C4_6 
REMARK    4  A    between atoms: C10_13  and  N2_14 
REMARK    5  A    between atoms: N2_14  and  C11_15 
ROOT
HETATM    1  C4  UNL     1      22.594  -0.606  54.110  1.00  0.00    -0.025 A 
HETATM    2  C5  UNL     1      23.048  -1.231  55.253  1.00  0.00     0.015 A 
HETATM    3  C6  UNL     1      24.420  -1.205  55.532  1.00  0.00     0.033 A 
HETATM    4  C7  UNL     1      25.326  -0.565  54.684  1.00  0.00     0.069 A 
HETATM    5  N1  UNL     1      26.639  -0.552  54.963  1.00  0.00    -0.260 NA
HETATM    6  C8  UNL     1      27.490   0.067  54.127  1.00  0.00     0.119 A 
HETATM    7  C9  UNL     1      26.982   0.678  52.999  1.00  0.00     0.049 A 
HETATM    8  C10 UNL     1      25.622   0.693  52.663  1.00  0.00     0.046 A 
HETATM    9  C17 UNL     1      24.807   0.038  53.564  1.00  0.00     0.020 A 
HETATM   10  C18 UNL     1      23.464   0.036  53.252  1.00  0.00     0.028 A 
ENDROOT
BRANCH   8  11
HETATM   11  N2  UNL     1      25.249   1.360  51.467  1.00  0.00    -0.355 N 
HETATM   12  H11 UNL     1      25.193   0.656  50.731  1.00  0.00     0.166 HD
BRANCH  11  13
HETATM   13  C11 UNL     1      24.984   2.736  51.229  1.00  0.00     0.033 A 
HETATM   14  C12 UNL     1      23.992   3.488  51.817  1.00  0.00     0.029 A 
HETATM   15  C13 UNL     1      23.800   4.822  51.530  1.00  0.00     0.004 A 
HETATM   16  C14 UNL     1      24.605   5.477  50.625  1.00  0.00     0.019 A 
HETATM   17  C15 UNL     1      25.580   4.712  50.055  1.00  0.00     0.013 A 
HETATM   18 BR1  UNL     1      26.748   5.550  48.781  1.00  0.00    -0.051 Br
HETATM   19  C16 UNL     1      25.796   3.380  50.321  1.00  0.00     0.048 A 
ENDBRANCH  11  13
ENDBRANCH   8  11
BRANCH   1  20
HETATM   20  P1  UNL     1      20.814  -0.621  53.718  1.00  0.00    -0.022 P 
HETATM   21  H6  UNL     1      20.381  -2.002  53.643  1.00  0.00     0.070 HD
BRANCH  20  22
HETATM   22  C3  UNL     1      20.415   0.216  52.162  1.00  0.00     0.153 C 
HETATM   23  O1  UNL     1      20.097   1.173  52.856  1.00  0.00    -0.293 OA
BRANCH  22  24
HETATM   24  C2  UNL     1      20.170   0.667  50.785  1.00  0.00     0.079 C 
HETATM   25  C1  UNL     1      21.481   0.939  50.061  1.00  0.00     0.013 C 
ENDBRANCH  22  24
ENDBRANCH  20  22
ENDBRANCH   1  20
TORSDOF 5
ENDMDL
MODEL 4
REMARK VINA RESULT:      -7.5      2.991      5.445
REMARK  5 active torsions:
REMARK  status: ('A' for Active; 'I' for Inactive)
REMARK    1  A    between atoms: C2_2  and  C3_3 
REMARK    2  A    between atoms: C3_3  and  P1_5 
REMARK    3  A    between atoms: P1_5  and  C4_6 
REMARK    4  A    between atoms: C10_13  and  N2_14 
REMARK    5  A    between atoms: N2_14  and  C11_15 
ROOT
HETATM    1  C4  UNL     1      23.490  -0.617  54.078  1.00  0.00    -0.025 A 
HETATM    2  C5  UNL     1      22.554  -1.268  54.855  1.00  0.00     0.015 A 
HETATM    3  C6  UNL     1      21.210  -1.223  54.467  1.00  0.00     0.033 A 
HETATM    4  C7  UNL     1      20.804  -0.538  53.319  1.00  0.00     0.069 A 
HETATM    5  N1  UNL     1      19.511  -0.500  52.962  1.00  0.00    -0.260 NA
HETATM    6  C8  UNL     1      19.147   0.170  51.855  1.00  0.00     0.119 A 
HETATM    7  C9  UNL     1      20.123   0.803  51.114  1.00  0.00     0.049 A 
HETATM    8  C10 UNL     1      21.485   0.793  51.443  1.00  0.00     0.046 A 
HETATM    9  C17 UNL     1      21.786   0.088  52.590  1.00  0.00     0.020 A 
HETATM   10  C18 UNL     1      23.120   0.068  52.938  1.00  0.00     0.028 A 
ENDROOT
BRANCH   8  11
HETATM   11  N2  UNL     1      22.373   1.492  50.584  1.00  0.00    -0.355 N 
HETATM   12  H11 UNL     1      22.539   0.899  49.771  1.00  0.00     0.166 HD
BRANCH  11  13
HETATM   13  C11 UNL     1      22.973   2.772  50.733  1.00  0.00     0.033 A 
HETATM   14  C12 UNL     1      22.477   3.824  51.469  1.00  0.00     0.029 A 
HETATM   15  C13 UNL     1      23.123   5.038  51.560  1.00  0.00     0.004 A 
HETATM   16  C14 UNL     1      24.315   5.260  50.908  1.00  0.00     0.019 A 
HETATM   17  C15 UNL     1      24.786   4.203  50.185  1.00  0.00     0.013 A 
HETATM   18 BR1  UNL     1      26.445   4.430  49.244  1.00  0.00    -0.051 Br
HETATM   19  C16 UNL     1      24.165   2.982  50.074  1.00  0.00     0.048 A 
ENDBRANCH  11  13
ENDBRANCH   8  11
BRANCH   1  20
HETATM   20  P1  UNL     1      25.248  -0.657  54.556  1.00  0.00    -0.022 P 
HETATM   21  H6  UNL     1      25.321  -0.881  55.986  1.00  0.00     0.070 HD
BRANCH  20  22
HETATM   22  C3  UNL     1      26.139   0.865  54.143  1.00  0.00     0.153 C 
HETATM   23  O1  UNL     1      26.770   0.676  55.174  1.00  0.00    -0.293 OA
BRANCH  22  24
HETATM   24  C2  UNL     1      26.703   2.105  53.592  1.00  0.00     0.079 C 
HETATM   25  C1  UNL     1      27.063   1.932  52.123  1.00  0.00     0.013 C 
ENDBRANCH  22  24
ENDBRANCH  20  22
ENDBRANCH   1  20
TORSDOF 5
ENDMDL
MODEL 5
REMARK VINA RESULT:      -7.5      3.624      6.723
REMARK  5 active torsions:
REMARK  status: ('A' for Active; 'I' for Inactive)
REMARK    1  A    between atoms: C2_2  and  C3_3 
REMARK    2  A    between atoms: C3_3  and  P1_5 
REMARK    3  A    between atoms: P1_5  and  C4_6 
REMARK    4  A    between atoms: C10_13  and  N2_14 
REMARK    5  A    between atoms: N2_14  and  C11_15 
ROOT
HETATM    1  C4  UNL     1      25.304   0.653  53.528  1.00  0.00    -0.025 A 
HETATM    2  C5  UNL     1      25.533  -0.398  54.393  1.00  0.00     0.015 A 
HETATM    3  C6  UNL     1      24.439  -1.145  54.846  1.00  0.00     0.033 A 
HETATM    4  C7  UNL     1      23.135  -0.849  54.443  1.00  0.00     0.069 A 
HETATM    5  N1  UNL     1      22.096  -1.572  54.889  1.00  0.00    -0.260 NA
HETATM    6  C8  UNL     1      20.851  -1.263  54.489  1.00  0.00     0.119 A 
HETATM    7  C9  UNL     1      20.678  -0.203  53.623  1.00  0.00     0.049 A 
HETATM    8  C10 UNL     1      21.729   0.581  53.128  1.00  0.00     0.046 A 
HETATM    9  C17 UNL     1      22.978   0.209  53.581  1.00  0.00     0.020 A 
HETATM   10  C18 UNL     1      24.027   0.970  53.111  1.00  0.00     0.028 A 
ENDROOT
BRANCH   8  11
HETATM   11  N2  UNL     1      21.395   1.642  52.245  1.00  0.00    -0.355 N 
HETATM   12  H11 UNL     1      20.921   2.358  52.796  1.00  0.00     0.166 HD
BRANCH  11  13
HETATM   13  C11 UNL     1      21.629   1.780  50.850  1.00  0.00     0.033 A 
HETATM   14  C12 UNL     1      21.412   0.819  49.889  1.00  0.00     0.029 A 
HETATM   15  C13 UNL     1      21.666   1.033  48.551  1.00  0.00     0.004 A 
HETATM   16  C14 UNL     1      22.158   2.239  48.106  1.00  0.00     0.019 A 
HETATM   17  C15 UNL     1      22.365   3.176  49.076  1.00  0.00     0.013 A 
HETATM   18 BR1  UNL     1      23.050   4.888  48.539  1.00  0.00    -0.051 Br
HETATM   19  C16 UNL     1      22.122   2.992  50.417  1.00  0.00     0.048 A 
ENDBRANCH  11  13
ENDBRANCH   8  11
BRANCH   1  20
HETATM   20  P1  UNL     1      26.706   1.646  52.920  1.00  0.00    -0.022 P 
HETATM   21  H6  UNL     1      26.968   2.695  53.885  1.00  0.00     0.070 HD
BRANCH  20  22
HETATM   22  C3  UNL     1      26.409   2.387  51.295  1.00  0.00     0.153 C 
HETATM   23  O1  UNL     1      27.526   2.877  51.408  1.00  0.00    -0.293 OA
BRANCH  22  24
HETATM   24  C2  UNL     1      25.932   2.865  49.990  1.00  0.00     0.079 C 
HETATM   25  C1  UNL     1      26.817   3.987  49.465  1.00  0.00     0.013 C 
ENDBRANCH  22  24
ENDBRANCH  20  22
ENDBRANCH   1  20
TORSDOF 5
ENDMDL
MODEL 6
REMARK VINA RESULT:      -7.4      3.314      5.112
REMARK  5 active torsions:
REMARK  status: ('A' for Active; 'I' for Inactive)
REMARK    1  A    between atoms: C2_2  and  C3_3 
REMARK    2  A    between atoms: C3_3  and  P1_5 
REMARK    3  A    between atoms: P1_5  and  C4_6 
REMARK    4  A    between atoms: C10_13  and  N2_14 
REMARK    5  A    between atoms: N2_14  and  C11_15 
ROOT
HETATM    1  C4  UNL     1      24.022   0.265  53.435  1.00  0.00    -0.025 A 
HETATM    2  C5  UNL     1      22.851  -0.459  53.532  1.00  0.00     0.015 A 
HETATM    3  C6  UNL     1      21.649   0.156  53.163  1.00  0.00     0.033 A 
HETATM    4  C7  UNL     1      21.614   1.474  52.704  1.00  0.00     0.069 A 
HETATM    5  N1  UNL     1      20.453   2.052  52.357  1.00  0.00    -0.260 NA
HETATM    6  C8  UNL     1      20.447   3.324  51.923  1.00  0.00     0.119 A 
HETATM    7  C9  UNL     1      21.646   4.002  51.844  1.00  0.00     0.049 A 
HETATM    8  C10 UNL     1      22.884   3.444  52.192  1.00  0.00     0.046 A 
HETATM    9  C17 UNL     1      22.815   2.138  52.631  1.00  0.00     0.020 A 
HETATM   10  C18 UNL     1      24.020   1.569  52.984  1.00  0.00     0.028 A 
ENDROOT
BRANCH   8  11
HETATM   11  N2  UNL     1      24.033   4.267  52.061  1.00  0.00    -0.355 N 
HETATM   12  H11 UNL     1      24.113   4.817  52.917  1.00  0.00     0.166 HD
BRANCH  11  13
HETATM   13  C11 UNL     1      24.961   4.381  50.990  1.00  0.00     0.033 A 
HETATM   14  C12 UNL     1      25.838   3.409  50.565  1.00  0.00     0.029 A 
HETATM   15  C13 UNL     1      26.709   3.601  49.515  1.00  0.00     0.004 A 
HETATM   16  C14 UNL     1      26.745   4.795  48.829  1.00  0.00     0.019 A 
HETATM   17  C15 UNL     1      25.867   5.742  49.269  1.00  0.00     0.013 A 
HETATM   18 BR1  UNL     1      25.851   7.437  48.366  1.00  0.00    -0.051 Br
HETATM   19  C16 UNL     1      24.986   5.580  50.313  1.00  0.00     0.048 A 
ENDBRANCH  11  13
ENDBRANCH   8  11
BRANCH   1  20
HETATM   20  P1  UNL     1      25.604  -0.507  53.908  1.00  0.00    -0.022 P 
HETATM   21  H6  UNL     1      25.491  -0.965  55.277  1.00  0.00     0.070 HD
BRANCH  20  22
HETATM   22  C3  UNL     1      27.020   0.614  53.766  1.00  0.00     0.153 C 
HETATM   23  O1  UNL     1      27.009   0.645  54.990  1.00  0.00    -0.293 OA
BRANCH  22  24
HETATM   24  C2  UNL     1      28.137   1.490  53.388  1.00  0.00     0.079 C 
HETATM   25  C1  UNL     1      29.310   1.317  54.343  1.00  0.00     0.013 C 
ENDBRANCH  22  24
ENDBRANCH  20  22
ENDBRANCH   1  20
TORSDOF 5
ENDMDL
MODEL 7
REMARK VINA RESULT:      -7.3      3.264      5.276
REMARK  5 active torsions:
REMARK  status: ('A' for Active; 'I' for Inactive)
REMARK    1  A    between atoms: C2_2  and  C3_3 
REMARK    2  A    between atoms: C3_3  and  P1_5 
REMARK    3  A    between atoms: P1_5  and  C4_6 
REMARK    4  A    between atoms: C10_13  and  N2_14 
REMARK    5  A    between atoms: N2_14  and  C11_15 
ROOT
HETATM    1  C4  UNL     1      20.982   0.018  52.874  1.00  0.00    -0.025 A 
HETATM    2  C5  UNL     1      20.976  -0.796  53.987  1.00  0.00     0.015 A 
HETATM    3  C6  UNL     1      22.195  -1.086  54.614  1.00  0.00     0.033 A 
HETATM    4  C7  UNL     1      23.401  -0.570  54.136  1.00  0.00     0.069 A 
HETATM    5  N1  UNL     1      24.562  -0.861  54.745  1.00  0.00    -0.260 NA
HETATM    6  C8  UNL     1      25.710  -0.355  54.262  1.00  0.00     0.119 A 
HETATM    7  C9  UNL     1      25.659   0.455  53.146  1.00  0.00     0.049 A 
HETATM    8  C10 UNL     1      24.474   0.788  52.476  1.00  0.00     0.046 A 
HETATM    9  C17 UNL     1      23.336   0.234  53.024  1.00  0.00     0.020 A 
HETATM   10  C18 UNL     1      22.158   0.543  52.378  1.00  0.00     0.028 A 
ENDROOT
BRANCH   8  11
HETATM   11  N2  UNL     1      24.580   1.631  51.338  1.00  0.00    -0.355 N 
HETATM   12  H11 UNL     1      24.740   1.030  50.529  1.00  0.00     0.166 HD
BRANCH  11  13
HETATM   13  C11 UNL     1      24.495   3.046  51.236  1.00  0.00     0.033 A 
HETATM   14  C12 UNL     1      23.676   3.869  51.975  1.00  0.00     0.029 A 
HETATM   15  C13 UNL     1      23.653   5.237  51.812  1.00  0.00     0.004 A 
HETATM   16  C14 UNL     1      24.462   5.856  50.886  1.00  0.00     0.019 A 
HETATM   17  C15 UNL     1      25.264   5.020  50.165  1.00  0.00     0.013 A 
HETATM   18 BR1  UNL     1      26.426   5.804  48.851  1.00  0.00    -0.051 Br
HETATM   19  C16 UNL     1      25.309   3.653  50.305  1.00  0.00     0.048 A 
ENDBRANCH  11  13
ENDBRANCH   8  11
BRANCH   1  20
HETATM   20  P1  UNL     1      19.413   0.414  52.035  1.00  0.00    -0.022 P 
HETATM   21  H6  UNL     1      19.013   1.748  52.434  1.00  0.00     0.070 HD
BRANCH  20  22
HETATM   22  C3  UNL     1      18.080  -0.750  52.421  1.00  0.00     0.153 C 
HETATM   23  O1  UNL     1      17.708  -0.576  51.267  1.00  0.00    -0.293 OA
BRANCH  22  24
HETATM   24  C2  UNL     1      17.111  -1.705  52.976  1.00  0.00     0.079 C 
HETATM   25  C1  UNL     1      17.820  -2.818  53.736  1.00  0.00     0.013 C 
ENDBRANCH  22  24
ENDBRANCH  20  22
ENDBRANCH   1  20
TORSDOF 5
ENDMDL
MODEL 8
REMARK VINA RESULT:      -7.1      3.928      7.067
REMARK  5 active torsions:
REMARK  status: ('A' for Active; 'I' for Inactive)
REMARK    1  A    between atoms: C2_2  and  C3_3 
REMARK    2  A    between atoms: C3_3  and  P1_5 
REMARK    3  A    between atoms: P1_5  and  C4_6 
REMARK    4  A    between atoms: C10_13  and  N2_14 
REMARK    5  A    between atoms: N2_14  and  C11_15 
ROOT
HETATM    1  C4  UNL     1      25.532   0.454  53.417  1.00  0.00    -0.025 A 
HETATM    2  C5  UNL     1      25.767  -0.265  54.572  1.00  0.00     0.015 A 
HETATM    3  C6  UNL     1      24.701  -0.958  55.160  1.00  0.00     0.033 A 
HETATM    4  C7  UNL     1      23.421  -0.935  54.604  1.00  0.00     0.069 A 
HETATM    5  N1  UNL     1      22.408  -1.601  55.181  1.00  0.00    -0.260 NA
HETATM    6  C8  UNL     1      21.184  -1.558  54.628  1.00  0.00     0.119 A 
HETATM    7  C9  UNL     1      21.005  -0.826  53.473  1.00  0.00     0.049 A 
HETATM    8  C10 UNL     1      22.028  -0.114  52.832  1.00  0.00     0.046 A 
HETATM    9  C17 UNL     1      23.256  -0.201  53.454  1.00  0.00     0.020 A 
HETATM   10  C18 UNL     1      24.277   0.495  52.844  1.00  0.00     0.028 A 
ENDROOT
BRANCH   8  11
HETATM   11  N2  UNL     1      21.691   0.597  51.650  1.00  0.00    -0.355 N 
HETATM   12  H11 UNL     1      21.785  -0.052  50.868  1.00  0.00     0.166 HD
BRANCH  11  13
HETATM   13  C11 UNL     1      21.289   1.949  51.478  1.00  0.00     0.033 A 
HETATM   14  C12 UNL     1      22.123   3.034  51.327  1.00  0.00     0.029 A 
HETATM   15  C13 UNL     1      21.651   4.318  51.166  1.00  0.00     0.004 A 
HETATM   16  C14 UNL     1      20.300   4.582  51.148  1.00  0.00     0.019 A 
HETATM   17  C15 UNL     1      19.493   3.492  51.300  1.00  0.00     0.013 A 
HETATM   18 BR1  UNL     1      17.593   3.773  51.287  1.00  0.00    -0.051 Br
HETATM   19  C16 UNL     1      19.934   2.200  51.463  1.00  0.00     0.048 A 
ENDBRANCH  11  13
ENDBRANCH   8  11
BRANCH   1  20
HETATM   20  P1  UNL     1      26.898   1.367  52.628  1.00  0.00    -0.022 P 
HETATM   21  H6  UNL     1      27.519   2.206  53.632  1.00  0.00     0.070 HD
BRANCH  20  22
HETATM   22  C3  UNL     1      26.363   2.395  51.236  1.00  0.00     0.153 C 
HETATM   23  O1  UNL     1      27.482   2.889  51.280  1.00  0.00    -0.293 OA
BRANCH  22  24
HETATM   24  C2  UNL     1      25.698   3.097  50.130  1.00  0.00     0.079 C 
HETATM   25  C1  UNL     1      26.677   4.000  49.392  1.00  0.00     0.013 C 
ENDBRANCH  22  24
ENDBRANCH  20  22
ENDBRANCH   1  20
TORSDOF 5
ENDMDL
MODEL 9
REMARK VINA RESULT:      -7.0      3.485      5.640
REMARK  5 active torsions:
REMARK  status: ('A' for Active; 'I' for Inactive)
REMARK    1  A    between atoms: C2_2  and  C3_3 
REMARK    2  A    between atoms: C3_3  and  P1_5 
REMARK    3  A    between atoms: P1_5  and  C4_6 
REMARK    4  A    between atoms: C10_13  and  N2_14 
REMARK    5  A    between atoms: N2_14  and  C11_15 
ROOT
HETATM    1  C4  UNL     1      20.058   0.427  51.502  1.00  0.00    -0.025 A 
HETATM    2  C5  UNL     1      19.159  -0.247  52.303  1.00  0.00     0.015 A 
HETATM    3  C6  UNL     1      19.631  -0.875  53.462  1.00  0.00     0.033 A 
HETATM    4  C7  UNL     1      20.981  -0.830  53.818  1.00  0.00     0.069 A 
HETATM    5  N1  UNL     1      21.419  -1.441  54.930  1.00  0.00    -0.260 NA
HETATM    6  C8  UNL     1      22.725  -1.387  55.247  1.00  0.00     0.119 A 
HETATM    7  C9  UNL     1      23.581  -0.698  54.411  1.00  0.00     0.049 A 
HETATM    8  C10 UNL     1      23.173  -0.045  53.241  1.00  0.00     0.046 A 
HETATM    9  C17 UNL     1      21.822  -0.142  52.977  1.00  0.00     0.020 A 
HETATM   10  C18 UNL     1      21.398   0.489  51.827  1.00  0.00     0.028 A 
ENDROOT
BRANCH   8  11
HETATM   11  N2  UNL     1      24.170   0.621  52.481  1.00  0.00    -0.355 N 
HETATM   12  H11 UNL     1      24.878  -0.072  52.236  1.00  0.00     0.166 HD
BRANCH  11  13
HETATM   13  C11 UNL     1      24.262   1.982  52.082  1.00  0.00     0.033 A 
HETATM   14  C12 UNL     1      23.496   3.023  52.557  1.00  0.00     0.029 A 
HETATM   15  C13 UNL     1      23.648   4.320  52.115  1.00  0.00     0.004 A 
HETATM   16  C14 UNL     1      24.588   4.641  51.162  1.00  0.00     0.019 A 
HETATM   17  C15 UNL     1      25.334   3.593  50.707  1.00  0.00     0.013 A 
HETATM   18 BR1  UNL     1      26.669   3.955  49.375  1.00  0.00    -0.051 Br
HETATM   19  C16 UNL     1      25.206   2.290  51.127  1.00  0.00     0.048 A 
ENDBRANCH  11  13
ENDBRANCH   8  11
BRANCH   1  20
HETATM   20  P1  UNL     1      19.475   1.255  49.987  1.00  0.00    -0.022 P 
HETATM   21  H6  UNL     1      18.540   0.370  49.321  1.00  0.00     0.070 HD
BRANCH  20  22
HETATM   22  C3  UNL     1      20.813   1.681  48.842  1.00  0.00     0.153 C 
HETATM   23  O1  UNL     1      20.013   2.454  48.329  1.00  0.00    -0.293 OA
BRANCH  22  24
HETATM   24  C2  UNL     1      22.040   1.849  48.053  1.00  0.00     0.079 C 
HETATM   25  C1  UNL     1      22.618   3.246  48.236  1.00  0.00     0.013 C 
ENDBRANCH  22  24
ENDBRANCH  20  22
ENDBRANCH   1  20
TORSDOF 5
ENDMDL
