MODEL 1
REMARK VINA RESULT:      -7.3      0.000      0.000
REMARK  1 active torsions:
REMARK  status: ('A' for Active; 'I' for Inactive)
REMARK    1  A    between atoms: O1_1  and  C1_2 
ROOT
HETATM    1  C1  UNL     1      21.740  -0.858  54.037  1.00  0.00     0.146 C 
HETATM    2  C2  UNL     1      23.223  -0.888  54.182  1.00  0.00     0.001 C 
HETATM    3  C3  UNL     1      24.429  -0.409  53.760  1.00  0.00    -0.022 C 
HETATM    4  C4  UNL     1      24.405   0.623  52.647  1.00  0.00     0.022 C 
HETATM    5  C5  UNL     1      25.365   1.337  51.963  1.00  0.00     0.025 C 
HETATM    6  C6  UNL     1      25.122   2.289  50.909  1.00  0.00     0.176 C 
HETATM    7  O2  UNL     1      23.870   2.572  50.479  1.00  0.00    -0.362 OA
HETATM    8  C7  UNL     1      23.088   3.138  51.410  1.00  0.00     0.270 C 
HETATM    9  N1  UNL     1      23.594   4.350  52.055  1.00  0.00    -0.249 NA
HETATM   10  C8  UNL     1      22.553   5.077  52.416  1.00  0.00     0.226 C 
HETATM   11  N2  UNL     1      21.343   4.378  52.024  1.00  0.00    -0.254 N 
HETATM   12  N3  UNL     1      19.992   3.950  52.144  1.00  0.00    -0.176 NA
HETATM   13  C9  UNL     1      19.754   2.935  51.398  1.00  0.00     0.058 C 
HETATM   14  C10 UNL     1      18.836   1.837  51.082  1.00  0.00     0.049 C 
HETATM   15  C11 UNL     1      19.270   0.759  51.692  1.00  0.00     0.019 C 
HETATM   16 CL1  UNL     1      18.150  -0.512  51.279  1.00  0.00    -0.088 Cl
HETATM   17  C12 UNL     1      20.166   0.057  52.572  1.00  0.00     0.047 C 
HETATM   18  C13 UNL     1      21.233   0.359  53.351  1.00  0.00     0.036 C 
HETATM   19  C14 UNL     1      20.836   2.733  50.397  1.00  0.00     0.093 C 
HETATM   20  C15 UNL     1      21.817   3.774  50.788  1.00  0.00     0.167 C 
ENDROOT
BRANCH   1  21
HETATM   21  O1  UNL     1      21.174  -0.797  55.331  1.00  0.00    -0.391 OA
HETATM   22  H1  UNL     1      20.269  -0.394  55.312  1.00  0.00     0.210 HD
ENDBRANCH   1  21
TORSDOF 1
ENDMDL
MODEL 2
REMARK VINA RESULT:      -7.1      2.745      4.866
REMARK  1 active torsions:
REMARK  status: ('A' for Active; 'I' for Inactive)
REMARK    1  A    between atoms: O1_1  and  C1_2 
ROOT
HETATM    1  C1  UNL     1      26.272   2.802  51.039  1.00  0.00     0.146 C 
HETATM    2  C2  UNL     1      26.563   1.445  51.582  1.00  0.00     0.001 C 
HETATM    3  C3  UNL     1      26.103   0.358  52.267  1.00  0.00    -0.022 C 
HETATM    4  C4  UNL     1      24.668   0.416  52.759  1.00  0.00     0.022 C 
HETATM    5  C5  UNL     1      23.845  -0.441  53.458  1.00  0.00     0.025 C 
HETATM    6  C6  UNL     1      22.479  -0.183  53.837  1.00  0.00     0.176 C 
HETATM    7  O2  UNL     1      21.862   0.982  53.529  1.00  0.00    -0.362 OA
HETATM    8  C7  UNL     1      21.720   1.192  52.212  1.00  0.00     0.270 C 
HETATM    9  N1  UNL     1      21.051   0.145  51.440  1.00  0.00    -0.249 NA
HETATM   10  C8  UNL     1      20.460   0.720  50.410  1.00  0.00     0.226 C 
HETATM   11  N2  UNL     1      20.717   2.148  50.469  1.00  0.00    -0.254 N 
HETATM   12  N3  UNL     1      20.967   3.447  49.946  1.00  0.00    -0.176 NA
HETATM   13  C9  UNL     1      21.453   4.226  50.840  1.00  0.00     0.058 C 
HETATM   14  C10 UNL     1      22.130   5.496  51.120  1.00  0.00     0.049 C 
HETATM   15  C11 UNL     1      23.415   5.253  51.233  1.00  0.00     0.019 C 
HETATM   16 CL1  UNL     1      24.167   6.789  51.571  1.00  0.00    -0.088 Cl
HETATM   17  C12 UNL     1      24.565   4.391  51.183  1.00  0.00     0.047 C 
HETATM   18  C13 UNL     1      24.821   3.090  50.902  1.00  0.00     0.036 C 
HETATM   19  C14 UNL     1      21.285   3.656  52.204  1.00  0.00     0.093 C 
HETATM   20  C15 UNL     1      20.703   2.324  51.914  1.00  0.00     0.167 C 
ENDROOT
BRANCH   1  21
HETATM   21  O1  UNL     1      26.772   2.861  49.718  1.00  0.00    -0.391 OA
HETATM   22  H1  UNL     1      27.690   3.235  49.695  1.00  0.00     0.210 HD
ENDBRANCH   1  21
TORSDOF 1
ENDMDL
MODEL 3
REMARK VINA RESULT:      -7.1      2.077      3.250
REMARK  1 active torsions:
REMARK  status: ('A' for Active; 'I' for Inactive)
REMARK    1  A    between atoms: O1_1  and  C1_2 
ROOT
HETATM    1  C1  UNL     1      25.718   1.281  53.256  1.00  0.00     0.146 C 
HETATM    2  C2  UNL     1      26.586   2.054  52.324  1.00  0.00     0.001 C 
HETATM    3  C3  UNL     1      26.676   2.777  51.170  1.00  0.00    -0.022 C 
HETATM    4  C4  UNL     1      25.398   2.954  50.372  1.00  0.00     0.022 C 
HETATM    5  C5  UNL     1      25.066   3.596  49.198  1.00  0.00     0.025 C 
HETATM    6  C6  UNL     1      23.758   3.639  48.596  1.00  0.00     0.176 C 
HETATM    7  O2  UNL     1      22.694   3.018  49.158  1.00  0.00    -0.362 OA
HETATM    8  C7  UNL     1      22.350   3.505  50.359  1.00  0.00     0.270 C 
HETATM    9  N1  UNL     1      22.090   4.942  50.443  1.00  0.00    -0.249 NA
HETATM   10  C8  UNL     1      21.218   5.137  51.415  1.00  0.00     0.226 C 
HETATM   11  N2  UNL     1      20.879   3.850  51.994  1.00  0.00    -0.254 N 
HETATM   12  N3  UNL     1      20.528   2.943  53.033  1.00  0.00    -0.176 NA
HETATM   13  C9  UNL     1      20.741   1.728  52.685  1.00  0.00     0.058 C 
HETATM   14  C10 UNL     1      20.869   0.335  53.123  1.00  0.00     0.049 C 
HETATM   15  C11 UNL     1      22.147   0.075  53.276  1.00  0.00     0.019 C 
HETATM   16 CL1  UNL     1      22.241  -1.590  53.788  1.00  0.00    -0.088 Cl
HETATM   17  C12 UNL     1      23.536   0.444  53.292  1.00  0.00     0.047 C 
HETATM   18  C13 UNL     1      24.269   1.568  53.097  1.00  0.00     0.036 C 
HETATM   19  C14 UNL     1      20.955   1.614  51.218  1.00  0.00     0.093 C 
HETATM   20  C15 UNL     1      20.937   3.033  50.791  1.00  0.00     0.167 C 
ENDROOT
BRANCH   1  21
HETATM   21  O1  UNL     1      26.018   1.691  54.576  1.00  0.00    -0.391 OA
HETATM   22  H1  UNL     1      26.921   1.391  54.852  1.00  0.00     0.210 HD
ENDBRANCH   1  21
TORSDOF 1
ENDMDL
MODEL 4
REMARK VINA RESULT:      -7.0      2.549      3.498
REMARK  1 active torsions:
REMARK  status: ('A' for Active; 'I' for Inactive)
REMARK    1  A    between atoms: O1_1  and  C1_2 
ROOT
HETATM    1  C1  UNL     1      21.090  -0.359  54.123  1.00  0.00     0.146 C 
HETATM    2  C2  UNL     1      22.342   0.241  53.583  1.00  0.00     0.001 C 
HETATM    3  C3  UNL     1      22.972   0.830  52.525  1.00  0.00    -0.022 C 
HETATM    4  C4  UNL     1      22.152   1.024  51.263  1.00  0.00     0.022 C 
HETATM    5  C5  UNL     1      22.398   1.564  50.019  1.00  0.00     0.025 C 
HETATM    6  C6  UNL     1      21.457   1.648  48.930  1.00  0.00     0.176 C 
HETATM    7  O2  UNL     1      20.192   1.176  49.044  1.00  0.00    -0.362 OA
HETATM    8  C7  UNL     1      19.453   1.812  49.964  1.00  0.00     0.270 C 
HETATM    9  N1  UNL     1      19.349   3.266  49.844  1.00  0.00    -0.249 NA
HETATM   10  C8  UNL     1      18.189   3.630  50.357  1.00  0.00     0.226 C 
HETATM   11  N2  UNL     1      17.499   2.441  50.825  1.00  0.00    -0.254 N 
HETATM   12  N3  UNL     1      16.658   1.679  51.682  1.00  0.00    -0.176 NA
HETATM   13  C9  UNL     1      16.851   0.421  51.530  1.00  0.00     0.058 C 
HETATM   14  C10 UNL     1      16.631  -0.925  52.068  1.00  0.00     0.049 C 
HETATM   15  C11 UNL     1      17.700  -1.269  52.749  1.00  0.00     0.019 C 
HETATM   16 CL1  UNL     1      17.387  -2.873  53.358  1.00  0.00    -0.088 Cl
HETATM   17  C12 UNL     1      18.998  -1.011  53.311  1.00  0.00     0.047 C 
HETATM   18  C13 UNL     1      19.871   0.024  53.364  1.00  0.00     0.036 C 
HETATM   19  C14 UNL     1      17.622   0.137  50.290  1.00  0.00     0.093 C 
HETATM   20  C15 UNL     1      17.942   1.501  49.806  1.00  0.00     0.167 C 
ENDROOT
BRANCH   1  21
HETATM   21  O1  UNL     1      20.878   0.161  55.421  1.00  0.00    -0.391 OA
HETATM   22  H1  UNL     1      21.729   0.455  55.836  1.00  0.00     0.210 HD
ENDBRANCH   1  21
TORSDOF 1
ENDMDL
MODEL 5
REMARK VINA RESULT:      -6.8     10.049     12.189
REMARK  1 active torsions:
REMARK  status: ('A' for Active; 'I' for Inactive)
REMARK    1  A    between atoms: O1_1  and  C1_2 
ROOT
HETATM    1  C1  UNL     1      31.998   3.909  47.326  1.00  0.00     0.146 C 
HETATM    2  C2  UNL     1      33.018   3.876  46.241  1.00  0.00     0.001 C 
HETATM    3  C3  UNL     1      33.529   4.471  45.124  1.00  0.00    -0.022 C 
HETATM    4  C4  UNL     1      32.852   5.747  44.659  1.00  0.00     0.022 C 
HETATM    5  C5  UNL     1      33.053   6.630  43.620  1.00  0.00     0.025 C 
HETATM    6  C6  UNL     1      32.271   7.810  43.347  1.00  0.00     0.176 C 
HETATM    7  O2  UNL     1      31.220   8.164  44.124  1.00  0.00    -0.362 OA
HETATM    8  C7  UNL     1      31.554   8.463  45.389  1.00  0.00     0.270 C 
HETATM    9  N1  UNL     1      32.581   9.486  45.581  1.00  0.00    -0.249 NA
HETATM   10  C8  UNL     1      32.349  10.077  46.738  1.00  0.00     0.226 C 
HETATM   11  N2  UNL     1      31.174   9.471  47.337  1.00  0.00    -0.254 N 
HETATM   12  N3  UNL     1      30.352   8.998  48.398  1.00  0.00    -0.176 NA
HETATM   13  C9  UNL     1      29.449   8.197  47.968  1.00  0.00     0.058 C 
HETATM   14  C10 UNL     1      28.439   7.193  48.315  1.00  0.00     0.049 C 
HETATM   15  C11 UNL     1      28.976   6.006  48.152  1.00  0.00     0.019 C 
HETATM   16 CL1  UNL     1      27.735   4.854  48.570  1.00  0.00    -0.088 Cl
HETATM   17  C12 UNL     1      30.073   5.127  47.850  1.00  0.00     0.047 C 
HETATM   18  C13 UNL     1      31.383   5.247  47.525  1.00  0.00     0.036 C 
HETATM   19  C14 UNL     1      29.314   8.275  46.489  1.00  0.00     0.093 C 
HETATM   20  C15 UNL     1      30.410   9.206  46.127  1.00  0.00     0.167 C 
ENDROOT
BRANCH   1  21
HETATM   21  O1  UNL     1      32.649   3.633  48.550  1.00  0.00    -0.391 OA
HETATM   22  H1  UNL     1      32.498   2.696  48.837  1.00  0.00     0.210 HD
ENDBRANCH   1  21
TORSDOF 1
ENDMDL
MODEL 6
REMARK VINA RESULT:      -6.5      3.157      5.530
REMARK  1 active torsions:
REMARK  status: ('A' for Active; 'I' for Inactive)
REMARK    1  A    between atoms: O1_1  and  C1_2 
ROOT
HETATM    1  C1  UNL     1      24.419   5.583  51.090  1.00  0.00     0.146 C 
HETATM    2  C2  UNL     1      24.133   6.167  49.750  1.00  0.00     0.001 C 
HETATM    3  C3  UNL     1      23.545   6.009  48.528  1.00  0.00    -0.022 C 
HETATM    4  C4  UNL     1      22.824   4.697  48.280  1.00  0.00     0.022 C 
HETATM    5  C5  UNL     1      22.120   4.159  47.224  1.00  0.00     0.025 C 
HETATM    6  C6  UNL     1      21.503   2.858  47.192  1.00  0.00     0.176 C 
HETATM    7  O2  UNL     1      21.570   2.011  48.247  1.00  0.00    -0.362 OA
HETATM    8  C7  UNL     1      20.962   2.466  49.351  1.00  0.00     0.270 C 
HETATM    9  N1  UNL     1      19.561   2.864  49.222  1.00  0.00    -0.249 NA
HETATM   10  C8  UNL     1      18.980   2.677  50.393  1.00  0.00     0.226 C 
HETATM   11  N2  UNL     1      19.968   2.155  51.319  1.00  0.00    -0.254 N 
HETATM   12  N3  UNL     1      20.604   1.980  52.580  1.00  0.00    -0.176 NA
HETATM   13  C9  UNL     1      21.790   1.514  52.444  1.00  0.00     0.058 C 
HETATM   14  C10 UNL     1      23.086   1.261  53.083  1.00  0.00     0.049 C 
HETATM   15  C11 UNL     1      23.890   2.251  52.772  1.00  0.00     0.019 C 
HETATM   16 CL1  UNL     1      25.411   1.897  53.548  1.00  0.00    -0.088 Cl
HETATM   17  C12 UNL     1      24.185   3.518  52.160  1.00  0.00     0.047 C 
HETATM   18  C13 UNL     1      23.514   4.463  51.457  1.00  0.00     0.036 C 
HETATM   19  C14 UNL     1      22.011   0.983  51.073  1.00  0.00     0.093 C 
HETATM   20  C15 UNL     1      20.742   1.340  50.395  1.00  0.00     0.167 C 
ENDROOT
BRANCH   1  21
HETATM   21  O1  UNL     1      24.167   6.576  52.064  1.00  0.00    -0.391 OA
HETATM   22  H1  UNL     1      24.791   6.498  52.830  1.00  0.00     0.210 HD
ENDBRANCH   1  21
TORSDOF 1
ENDMDL
MODEL 7
REMARK VINA RESULT:      -6.4     10.448     13.396
REMARK  1 active torsions:
REMARK  status: ('A' for Active; 'I' for Inactive)
REMARK    1  A    between atoms: O1_1  and  C1_2 
ROOT
HETATM    1  C1  UNL     1      32.750   7.444  43.544  1.00  0.00     0.146 C 
HETATM    2  C2  UNL     1      33.005   5.984  43.391  1.00  0.00     0.001 C 
HETATM    3  C3  UNL     1      33.099   4.763  43.995  1.00  0.00    -0.022 C 
HETATM    4  C4  UNL     1      32.866   4.723  45.495  1.00  0.00     0.022 C 
HETATM    5  C5  UNL     1      32.862   3.729  46.450  1.00  0.00     0.025 C 
HETATM    6  C6  UNL     1      32.616   3.910  47.859  1.00  0.00     0.176 C 
HETATM    7  O2  UNL     1      32.361   5.130  48.387  1.00  0.00    -0.362 OA
HETATM    8  C7  UNL     1      31.230   5.693  47.938  1.00  0.00     0.270 C 
HETATM    9  N1  UNL     1      30.000   4.912  48.073  1.00  0.00    -0.249 NA
HETATM   10  C8  UNL     1      28.995   5.760  48.189  1.00  0.00     0.226 C 
HETATM   11  N2  UNL     1      29.524   7.111  48.137  1.00  0.00    -0.254 N 
HETATM   12  N3  UNL     1      29.523   8.496  47.814  1.00  0.00    -0.176 NA
HETATM   13  C9  UNL     1      30.704   8.991  47.870  1.00  0.00     0.058 C 
HETATM   14  C10 UNL     1      31.575  10.119  47.530  1.00  0.00     0.049 C 
HETATM   15  C11 UNL     1      32.207   9.822  46.418  1.00  0.00     0.019 C 
HETATM   16 CL1  UNL     1      33.229  11.190  46.064  1.00  0.00    -0.088 Cl
HETATM   17  C12 UNL     1      32.481   8.977  45.287  1.00  0.00     0.047 C 
HETATM   18  C13 UNL     1      32.033   7.795  44.797  1.00  0.00     0.036 C 
HETATM   19  C14 UNL     1      31.641   8.077  48.577  1.00  0.00     0.093 C 
HETATM   20  C15 UNL     1      30.789   6.889  48.822  1.00  0.00     0.167 C 
ENDROOT
BRANCH   1  21
HETATM   21  O1  UNL     1      31.875   7.847  42.509  1.00  0.00    -0.391 OA
HETATM   22  H1  UNL     1      31.077   7.261  42.461  1.00  0.00     0.210 HD
ENDBRANCH   1  21
TORSDOF 1
ENDMDL
MODEL 8
REMARK VINA RESULT:      -6.4      9.078     11.362
REMARK  1 active torsions:
REMARK  status: ('A' for Active; 'I' for Inactive)
REMARK    1  A    between atoms: O1_1  and  C1_2 
ROOT
HETATM    1  C1  UNL     1      31.766   4.973  48.186  1.00  0.00     0.146 C 
HETATM    2  C2  UNL     1      32.890   5.315  47.269  1.00  0.00     0.001 C 
HETATM    3  C3  UNL     1      33.325   6.060  46.213  1.00  0.00    -0.022 C 
HETATM    4  C4  UNL     1      32.322   7.012  45.587  1.00  0.00     0.022 C 
HETATM    5  C5  UNL     1      32.359   7.915  44.546  1.00  0.00     0.025 C 
HETATM    6  C6  UNL     1      31.263   8.739  44.100  1.00  0.00     0.176 C 
HETATM    7  O2  UNL     1      30.047   8.689  44.693  1.00  0.00    -0.362 OA
HETATM    8  C7  UNL     1      30.049   9.078  45.976  1.00  0.00     0.270 C 
HETATM    9  N1  UNL     1      30.603  10.400  46.268  1.00  0.00    -0.249 NA
HETATM   10  C8  UNL     1      29.997  10.862  47.345  1.00  0.00     0.226 C 
HETATM   11  N2  UNL     1      29.034   9.872  47.792  1.00  0.00    -0.254 N 
HETATM   12  N3  UNL     1      28.277   9.130  48.741  1.00  0.00    -0.176 NA
HETATM   13  C9  UNL     1      27.795   8.061  48.222  1.00  0.00     0.058 C 
HETATM   14  C10 UNL     1      27.166   6.759  48.465  1.00  0.00     0.049 C 
HETATM   15  C11 UNL     1      28.107   5.844  48.443  1.00  0.00     0.019 C 
HETATM   16 CL1  UNL     1      27.305   4.322  48.729  1.00  0.00    -0.088 Cl
HETATM   17  C12 UNL     1      29.478   5.418  48.354  1.00  0.00     0.047 C 
HETATM   18  C13 UNL     1      30.694   6.002  48.223  1.00  0.00     0.036 C 
HETATM   19  C14 UNL     1      27.877   8.094  46.737  1.00  0.00     0.093 C 
HETATM   20  C15 UNL     1      28.614   9.358  46.497  1.00  0.00     0.167 C 
ENDROOT
BRANCH   1  21
HETATM   21  O1  UNL     1      32.271   4.941  49.507  1.00  0.00    -0.391 OA
HETATM   22  H1  UNL     1      33.262   4.915  49.514  1.00  0.00     0.210 HD
ENDBRANCH   1  21
TORSDOF 1
ENDMDL
MODEL 9
REMARK VINA RESULT:      -6.4      8.294     10.321
REMARK  1 active torsions:
REMARK  status: ('A' for Active; 'I' for Inactive)
REMARK    1  A    between atoms: O1_1  and  C1_2 
ROOT
HETATM    1  C1  UNL     1      26.799   5.909  48.740  1.00  0.00     0.146 C 
HETATM    2  C2  UNL     1      28.133   5.278  48.537  1.00  0.00     0.001 C 
HETATM    3  C3  UNL     1      29.400   5.400  48.042  1.00  0.00    -0.022 C 
HETATM    4  C4  UNL     1      29.746   6.714  47.365  1.00  0.00     0.022 C 
HETATM    5  C5  UNL     1      30.873   7.227  46.760  1.00  0.00     0.025 C 
HETATM    6  C6  UNL     1      30.993   8.531  46.159  1.00  0.00     0.176 C 
HETATM    7  O2  UNL     1      29.956   9.402  46.132  1.00  0.00    -0.362 OA
HETATM    8  C7  UNL     1      29.551   9.804  47.346  1.00  0.00     0.270 C 
HETATM    9  N1  UNL     1      30.564  10.386  48.225  1.00  0.00    -0.249 NA
HETATM   10  C8  UNL     1      29.958  11.243  49.026  1.00  0.00     0.226 C 
HETATM   11  N2  UNL     1      28.543  11.255  48.702  1.00  0.00    -0.254 N 
HETATM   12  N3  UNL     1      27.149  11.348  48.969  1.00  0.00    -0.176 NA
HETATM   13  C9  UNL     1      26.455  10.872  48.002  1.00  0.00     0.058 C 
HETATM   14  C10 UNL     1      25.138  10.410  47.553  1.00  0.00     0.049 C 
HETATM   15  C11 UNL     1      25.109   9.102  47.662  1.00  0.00     0.019 C 
HETATM   16 CL1  UNL     1      23.531   8.607  47.111  1.00  0.00    -0.088 Cl
HETATM   17  C12 UNL     1      25.675   7.836  48.042  1.00  0.00     0.047 C 
HETATM   18  C13 UNL     1      26.816   7.390  48.622  1.00  0.00     0.036 C 
HETATM   19  C14 UNL     1      27.281  10.693  46.778  1.00  0.00     0.093 C 
HETATM   20  C15 UNL     1      28.635  11.053  47.263  1.00  0.00     0.167 C 
ENDROOT
BRANCH   1  21
HETATM   21  O1  UNL     1      26.396   5.664  50.073  1.00  0.00    -0.391 OA
HETATM   22  H1  UNL     1      25.907   4.806  50.151  1.00  0.00     0.210 HD
ENDBRANCH   1  21
TORSDOF 1
ENDMDL
