MODEL 1
REMARK VINA RESULT:      -9.6      0.000      0.000
REMARK  6 active torsions:
REMARK  status: ('A' for Active; 'I' for Inactive)
REMARK       I    between atoms: N1_2  and  C2_3 
REMARK    1  A    between atoms: C2_3  and  C3_5 
REMARK    2  A    between atoms: C5_7  and  O2_8 
REMARK    3  A    between atoms: O2_8  and  C6_9 
REMARK    4  A    between atoms: C9_12  and  N2_13 
REMARK       I    between atoms: N2_13  and  C10_14 
REMARK    5  A    between atoms: C10_14  and  C11_16 
REMARK    6  A    between atoms: C15_21  and  C16_22 
ROOT
HETATM    1  C6  UNL     1      27.176   6.019  48.637  1.00  0.00     0.076 A 
HETATM    2  C7  UNL     1      27.552   4.692  48.620  1.00  0.00     0.039 A 
HETATM    3  C8  UNL     1      26.815   3.714  49.287  1.00  0.00     0.032 A 
HETATM    4  C9  UNL     1      25.697   4.179  49.953  1.00  0.00     0.035 A 
HETATM    5  C18 UNL     1      25.265   5.490  50.010  1.00  0.00     0.032 A 
HETATM    6  C19 UNL     1      26.031   6.421  49.333  1.00  0.00     0.039 A 
ENDROOT
BRANCH   4   7
HETATM    7  N2  UNL     1      24.862   3.251  50.677  1.00  0.00    -0.323 N 
HETATM    8  C10 UNL     1      25.477   2.404  51.618  1.00  0.00     0.256 C 
HETATM    9  O3  UNL     1      26.736   2.587  51.701  1.00  0.00    -0.267 OA
HETATM   10  H8  UNL     1      23.829   3.190  50.522  1.00  0.00     0.169 HD
BRANCH   8  11
HETATM   11  C11 UNL     1      24.760   1.420  52.419  1.00  0.00     0.033 A 
HETATM   12  C12 UNL     1      25.388   0.378  53.088  1.00  0.00     0.019 A 
HETATM   13  C13 UNL     1      24.646  -0.516  53.828  1.00  0.00     0.026 A 
HETATM   14  C14 UNL     1      23.274  -0.399  53.920  1.00  0.00     0.049 A 
HETATM   15 CL1  UNL     1      22.409  -1.568  54.874  1.00  0.00    -0.083 Cl
HETATM   16  C15 UNL     1      22.674   0.644  53.247  1.00  0.00     0.070 A 
HETATM   17  C17 UNL     1      23.374   1.571  52.488  1.00  0.00     0.035 A 
BRANCH  16  18
HETATM   18  C16 UNL     1      21.178   0.677  53.415  1.00  0.00     0.419 C 
HETATM   19  F1  UNL     1      20.597  -0.378  52.735  1.00  0.00    -0.166 F 
HETATM   20  F2  UNL     1      20.921   0.690  54.752  1.00  0.00    -0.166 F 
HETATM   21  F3  UNL     1      20.766   1.878  52.846  1.00  0.00    -0.166 F 
ENDBRANCH  16  18
ENDBRANCH   8  11
ENDBRANCH   4   7
BRANCH   1  22
HETATM   22  O2  UNL     1      27.967   6.929  47.948  1.00  0.00    -0.311 OA
BRANCH  22  23
HETATM   23  C5  UNL     1      29.276   7.110  48.374  1.00  0.00     0.079 A 
HETATM   24  C4  UNL     1      30.186   6.089  48.184  1.00  0.00     0.074 A 
HETATM   25  C3  UNL     1      31.509   6.175  48.572  1.00  0.00     0.126 A 
HETATM   26  N3  UNL     1      31.951   7.313  49.173  1.00  0.00    -0.255 NA
HETATM   27  C21 UNL     1      31.095   8.329  49.376  1.00  0.00     0.120 A 
HETATM   28  C20 UNL     1      29.764   8.245  48.986  1.00  0.00     0.056 A 
BRANCH  25  29
HETATM   29  C2  UNL     1      32.415   5.054  48.339  1.00  0.00     0.269 C 
HETATM   30  N1  UNL     1      33.806   5.242  48.527  1.00  0.00    -0.360 N 
HETATM   31  C1  UNL     1      34.761   4.160  48.310  1.00  0.00     0.149 C 
HETATM   32  H4  UNL     1      34.211   6.165  48.832  1.00  0.00     0.162 HD
HETATM   33  O1  UNL     1      32.085   3.895  47.974  1.00  0.00    -0.266 OA
ENDBRANCH  25  29
ENDBRANCH  22  23
ENDBRANCH   1  22
TORSDOF 6
ENDMDL
MODEL 2
REMARK VINA RESULT:      -9.6      5.489      9.620
REMARK  6 active torsions:
REMARK  status: ('A' for Active; 'I' for Inactive)
REMARK       I    between atoms: N1_2  and  C2_3 
REMARK    1  A    between atoms: C2_3  and  C3_5 
REMARK    2  A    between atoms: C5_7  and  O2_8 
REMARK    3  A    between atoms: O2_8  and  C6_9 
REMARK    4  A    between atoms: C9_12  and  N2_13 
REMARK       I    between atoms: N2_13  and  C10_14 
REMARK    5  A    between atoms: C10_14  and  C11_16 
REMARK    6  A    between atoms: C15_21  and  C16_22 
ROOT
HETATM    1  C6  UNL     1      22.825   1.950  51.804  1.00  0.00     0.076 A 
HETATM    2  C7  UNL     1      22.910   1.871  50.430  1.00  0.00     0.039 A 
HETATM    3  C8  UNL     1      23.578   2.838  49.680  1.00  0.00     0.032 A 
HETATM    4  C9  UNL     1      24.137   3.865  50.419  1.00  0.00     0.035 A 
HETATM    5  C18 UNL     1      24.089   4.003  51.792  1.00  0.00     0.032 A 
HETATM    6  C19 UNL     1      23.415   3.018  52.489  1.00  0.00     0.039 A 
ENDROOT
BRANCH   4   7
HETATM    7  N2  UNL     1      24.852   4.920  49.743  1.00  0.00    -0.323 N 
HETATM    8  C10 UNL     1      26.181   4.674  49.353  1.00  0.00     0.256 C 
HETATM    9  O3  UNL     1      26.581   3.504  49.665  1.00  0.00    -0.267 OA
HETATM   10  H8  UNL     1      24.416   5.850  49.539  1.00  0.00     0.169 HD
BRANCH   8  11
HETATM   11  C11 UNL     1      27.022   5.646  48.664  1.00  0.00     0.033 A 
HETATM   12  C12 UNL     1      26.540   6.841  48.150  1.00  0.00     0.019 A 
HETATM   13  C13 UNL     1      27.393   7.714  47.510  1.00  0.00     0.026 A 
HETATM   14  C14 UNL     1      28.734   7.421  47.366  1.00  0.00     0.049 A 
HETATM   15 CL1  UNL     1      29.746   8.573  46.546  1.00  0.00    -0.083 Cl
HETATM   16  C15 UNL     1      29.187   6.227  47.885  1.00  0.00     0.070 A 
HETATM   17  C17 UNL     1      28.371   5.314  48.537  1.00  0.00     0.035 A 
BRANCH  16  18
HETATM   18  C16 UNL     1      30.662   6.009  47.672  1.00  0.00     0.419 C 
HETATM   19  F1  UNL     1      30.995   6.245  46.350  1.00  0.00    -0.166 F 
HETATM   20  F2  UNL     1      31.322   6.799  48.564  1.00  0.00    -0.166 F 
HETATM   21  F3  UNL     1      30.889   4.670  47.974  1.00  0.00    -0.166 F 
ENDBRANCH  16  18
ENDBRANCH   8  11
ENDBRANCH   4   7
BRANCH   1  22
HETATM   22  O2  UNL     1      22.141   0.944  52.473  1.00  0.00    -0.311 OA
BRANCH  22  23
HETATM   23  C5  UNL     1      22.839   0.190  53.407  1.00  0.00     0.079 A 
HETATM   24  C4  UNL     1      24.219   0.181  53.360  1.00  0.00     0.074 A 
HETATM   25  C3  UNL     1      25.000  -0.536  54.244  1.00  0.00     0.126 A 
HETATM   26  N3  UNL     1      24.395  -1.275  55.215  1.00  0.00    -0.255 NA
HETATM   27  C21 UNL     1      23.054  -1.292  55.294  1.00  0.00     0.120 A 
HETATM   28  C20 UNL     1      22.266  -0.570  54.405  1.00  0.00     0.056 A 
BRANCH  25  29
HETATM   29  C2  UNL     1      26.455  -0.498  54.133  1.00  0.00     0.269 C 
HETATM   30  N1  UNL     1      27.171   0.527  54.801  1.00  0.00    -0.360 N 
HETATM   31  C1  UNL     1      28.625   0.616  54.727  1.00  0.00     0.149 C 
HETATM   32  H4  UNL     1      26.688   1.264  55.376  1.00  0.00     0.162 HD
HETATM   33  O1  UNL     1      27.172  -1.305  53.485  1.00  0.00    -0.266 OA
ENDBRANCH  25  29
ENDBRANCH  22  23
ENDBRANCH   1  22
TORSDOF 6
ENDMDL
MODEL 3
REMARK VINA RESULT:      -9.5      5.369      9.513
REMARK  6 active torsions:
REMARK  status: ('A' for Active; 'I' for Inactive)
REMARK       I    between atoms: N1_2  and  C2_3 
REMARK    1  A    between atoms: C2_3  and  C3_5 
REMARK    2  A    between atoms: C5_7  and  O2_8 
REMARK    3  A    between atoms: O2_8  and  C6_9 
REMARK    4  A    between atoms: C9_12  and  N2_13 
REMARK       I    between atoms: N2_13  and  C10_14 
REMARK    5  A    between atoms: C10_14  and  C11_16 
REMARK    6  A    between atoms: C15_21  and  C16_22 
ROOT
HETATM    1  C6  UNL     1      22.752   1.959  51.831  1.00  0.00     0.076 A 
HETATM    2  C7  UNL     1      22.853   1.800  50.465  1.00  0.00     0.039 A 
HETATM    3  C8  UNL     1      23.562   2.702  49.672  1.00  0.00     0.032 A 
HETATM    4  C9  UNL     1      24.144   3.750  50.362  1.00  0.00     0.035 A 
HETATM    5  C18 UNL     1      24.083   3.967  51.724  1.00  0.00     0.032 A 
HETATM    6  C19 UNL     1      23.367   3.044  52.464  1.00  0.00     0.039 A 
ENDROOT
BRANCH   4   7
HETATM    7  N2  UNL     1      24.902   4.743  49.639  1.00  0.00    -0.323 N 
HETATM    8  C10 UNL     1      26.273   4.506  49.431  1.00  0.00     0.256 C 
HETATM    9  O3  UNL     1      26.667   3.401  49.931  1.00  0.00    -0.267 OA
HETATM   10  H8  UNL     1      24.467   5.621  49.272  1.00  0.00     0.169 HD
BRANCH   8  11
HETATM   11  C11 UNL     1      27.160   5.419  48.720  1.00  0.00     0.033 A 
HETATM   12  C12 UNL     1      28.498   5.144  48.473  1.00  0.00     0.019 A 
HETATM   13  C13 UNL     1      29.277   6.054  47.793  1.00  0.00     0.026 A 
HETATM   14  C14 UNL     1      28.751   7.249  47.347  1.00  0.00     0.049 A 
HETATM   15 CL1  UNL     1      29.800   8.346  46.497  1.00  0.00    -0.083 Cl
HETATM   16  C15 UNL     1      27.420   7.499  47.606  1.00  0.00     0.070 A 
HETATM   17  C17 UNL     1      26.592   6.617  48.285  1.00  0.00     0.035 A 
BRANCH  16  18
HETATM   18  C16 UNL     1      26.951   8.829  47.077  1.00  0.00     0.419 C 
HETATM   19  F1  UNL     1      27.778   9.841  47.528  1.00  0.00    -0.166 F 
HETATM   20  F2  UNL     1      26.885   8.725  45.720  1.00  0.00    -0.166 F 
HETATM   21  F3  UNL     1      25.673   9.007  47.596  1.00  0.00    -0.166 F 
ENDBRANCH  16  18
ENDBRANCH   8  11
ENDBRANCH   4   7
BRANCH   1  22
HETATM   22  O2  UNL     1      22.026   1.015  52.544  1.00  0.00    -0.311 OA
BRANCH  22  23
HETATM   23  C5  UNL     1      22.705   0.231  53.468  1.00  0.00     0.079 A 
HETATM   24  C4  UNL     1      24.085   0.191  53.422  1.00  0.00     0.074 A 
HETATM   25  C3  UNL     1      24.849  -0.557  54.296  1.00  0.00     0.126 A 
HETATM   26  N3  UNL     1      24.225  -1.296  55.255  1.00  0.00    -0.255 NA
HETATM   27  C21 UNL     1      22.884  -1.283  55.332  1.00  0.00     0.120 A 
HETATM   28  C20 UNL     1      22.114  -0.531  54.453  1.00  0.00     0.056 A 
BRANCH  25  29
HETATM   29  C2  UNL     1      26.304  -0.550  54.187  1.00  0.00     0.269 C 
HETATM   30  N1  UNL     1      27.041   0.453  54.864  1.00  0.00    -0.360 N 
HETATM   31  C1  UNL     1      28.498   0.511  54.792  1.00  0.00     0.149 C 
HETATM   32  H4  UNL     1      26.574   1.196  55.445  1.00  0.00     0.162 HD
HETATM   33  O1  UNL     1      27.004  -1.367  53.533  1.00  0.00    -0.266 OA
ENDBRANCH  25  29
ENDBRANCH  22  23
ENDBRANCH   1  22
TORSDOF 6
ENDMDL
MODEL 4
REMARK VINA RESULT:      -9.5      1.688      2.245
REMARK  6 active torsions:
REMARK  status: ('A' for Active; 'I' for Inactive)
REMARK       I    between atoms: N1_2  and  C2_3 
REMARK    1  A    between atoms: C2_3  and  C3_5 
REMARK    2  A    between atoms: C5_7  and  O2_8 
REMARK    3  A    between atoms: O2_8  and  C6_9 
REMARK    4  A    between atoms: C9_12  and  N2_13 
REMARK       I    between atoms: N2_13  and  C10_14 
REMARK    5  A    between atoms: C10_14  and  C11_16 
REMARK    6  A    between atoms: C15_21  and  C16_22 
ROOT
HETATM    1  C6  UNL     1      27.259   6.036  48.495  1.00  0.00     0.076 A 
HETATM    2  C7  UNL     1      27.564   4.699  48.644  1.00  0.00     0.039 A 
HETATM    3  C8  UNL     1      26.767   3.846  49.406  1.00  0.00     0.032 A 
HETATM    4  C9  UNL     1      25.665   4.445  49.989  1.00  0.00     0.035 A 
HETATM    5  C18 UNL     1      25.303   5.773  49.880  1.00  0.00     0.032 A 
HETATM    6  C19 UNL     1      26.127   6.576  49.113  1.00  0.00     0.039 A 
ENDROOT
BRANCH   4   7
HETATM    7  N2  UNL     1      24.771   3.654  50.800  1.00  0.00    -0.323 N 
HETATM    8  C10 UNL     1      23.726   2.969  50.155  1.00  0.00     0.256 C 
HETATM    9  O3  UNL     1      23.717   3.152  48.893  1.00  0.00    -0.267 OA
HETATM   10  H8  UNL     1      24.877   3.578  51.838  1.00  0.00     0.169 HD
BRANCH   8  11
HETATM   11  C11 UNL     1      22.750   2.134  50.846  1.00  0.00     0.033 A 
HETATM   12  C12 UNL     1      21.392   2.155  50.561  1.00  0.00     0.019 A 
HETATM   13  C13 UNL     1      20.526   1.337  51.254  1.00  0.00     0.026 A 
HETATM   14  C14 UNL     1      20.985   0.487  52.240  1.00  0.00     0.049 A 
HETATM   15 CL1  UNL     1      19.830  -0.514  53.070  1.00  0.00    -0.083 Cl
HETATM   16  C15 UNL     1      22.339   0.485  52.503  1.00  0.00     0.070 A 
HETATM   17  C17 UNL     1      23.252   1.288  51.835  1.00  0.00     0.035 A 
BRANCH  16  18
HETATM   18  C16 UNL     1      22.730  -0.477  53.594  1.00  0.00     0.419 C 
HETATM   19  F1  UNL     1      22.097  -0.142  54.777  1.00  0.00    -0.166 F 
HETATM   20  F2  UNL     1      22.449  -1.733  53.147  1.00  0.00    -0.166 F 
HETATM   21  F3  UNL     1      24.105  -0.329  53.746  1.00  0.00    -0.166 F 
ENDBRANCH  16  18
ENDBRANCH   8  11
ENDBRANCH   4   7
BRANCH   1  22
HETATM   22  O2  UNL     1      28.107   6.815  47.719  1.00  0.00    -0.311 OA
BRANCH  22  23
HETATM   23  C5  UNL     1      29.347   7.152  48.245  1.00  0.00     0.079 A 
HETATM   24  C4  UNL     1      30.383   6.244  48.146  1.00  0.00     0.074 A 
HETATM   25  C3  UNL     1      31.651   6.487  48.637  1.00  0.00     0.126 A 
HETATM   26  N3  UNL     1      31.906   7.675  49.252  1.00  0.00    -0.255 NA
HETATM   27  C21 UNL     1      30.925   8.585  49.369  1.00  0.00     0.120 A 
HETATM   28  C20 UNL     1      29.648   8.342  48.874  1.00  0.00     0.056 A 
BRANCH  25  29
HETATM   29  C2  UNL     1      32.697   5.479  48.496  1.00  0.00     0.269 C 
HETATM   30  N1  UNL     1      32.389   4.252  47.857  1.00  0.00    -0.360 N 
HETATM   31  C1  UNL     1      33.393   3.207  47.686  1.00  0.00     0.149 C 
HETATM   32  H4  UNL     1      31.430   4.043  47.479  1.00  0.00     0.162 HD
HETATM   33  O1  UNL     1      33.886   5.582  48.895  1.00  0.00    -0.266 OA
ENDBRANCH  25  29
ENDBRANCH  22  23
ENDBRANCH   1  22
TORSDOF 6
ENDMDL
MODEL 5
REMARK VINA RESULT:      -9.2      1.682      2.077
REMARK  6 active torsions:
REMARK  status: ('A' for Active; 'I' for Inactive)
REMARK       I    between atoms: N1_2  and  C2_3 
REMARK    1  A    between atoms: C2_3  and  C3_5 
REMARK    2  A    between atoms: C5_7  and  O2_8 
REMARK    3  A    between atoms: O2_8  and  C6_9 
REMARK    4  A    between atoms: C9_12  and  N2_13 
REMARK       I    between atoms: N2_13  and  C10_14 
REMARK    5  A    between atoms: C10_14  and  C11_16 
REMARK    6  A    between atoms: C15_21  and  C16_22 
ROOT
HETATM    1  C6  UNL     1      26.335   6.214  48.644  1.00  0.00     0.076 A 
HETATM    2  C7  UNL     1      27.033   5.025  48.659  1.00  0.00     0.039 A 
HETATM    3  C8  UNL     1      26.747   4.019  49.582  1.00  0.00     0.032 A 
HETATM    4  C9  UNL     1      25.722   4.311  50.463  1.00  0.00     0.035 A 
HETATM    5  C18 UNL     1      24.985   5.478  50.501  1.00  0.00     0.032 A 
HETATM    6  C19 UNL     1      25.308   6.443  49.566  1.00  0.00     0.039 A 
ENDROOT
BRANCH   4   7
HETATM    7  N2  UNL     1      25.343   3.339  51.460  1.00  0.00    -0.323 N 
HETATM    8  C10 UNL     1      24.298   2.449  51.152  1.00  0.00     0.256 C 
HETATM    9  O3  UNL     1      23.815   2.635  49.987  1.00  0.00    -0.267 OA
HETATM   10  H8  UNL     1      25.816   3.280  52.392  1.00  0.00     0.169 HD
BRANCH   8  11
HETATM   11  C11 UNL     1      23.811   1.418  52.061  1.00  0.00     0.033 A 
HETATM   12  C12 UNL     1      24.624   0.432  52.602  1.00  0.00     0.019 A 
HETATM   13  C13 UNL     1      24.095  -0.511  53.456  1.00  0.00     0.026 A 
HETATM   14  C14 UNL     1      22.756  -0.498  53.789  1.00  0.00     0.049 A 
HETATM   15 CL1  UNL     1      22.165  -1.722  54.872  1.00  0.00    -0.083 Cl
HETATM   16  C15 UNL     1      21.970   0.491  53.239  1.00  0.00     0.070 A 
HETATM   17  C17 UNL     1      22.452   1.464  52.375  1.00  0.00     0.035 A 
BRANCH  16  18
HETATM   18  C16 UNL     1      20.528   0.412  53.668  1.00  0.00     0.419 C 
HETATM   19  F1  UNL     1      19.974  -0.788  53.261  1.00  0.00    -0.166 F 
HETATM   20  F2  UNL     1      20.495   0.614  55.015  1.00  0.00    -0.166 F 
HETATM   21  F3  UNL     1      19.887   1.463  53.020  1.00  0.00    -0.166 F 
ENDBRANCH  16  18
ENDBRANCH   8  11
ENDBRANCH   4   7
BRANCH   1  22
HETATM   22  O2  UNL     1      26.685   7.162  47.692  1.00  0.00    -0.311 OA
BRANCH  22  23
HETATM   23  C5  UNL     1      27.591   8.149  48.057  1.00  0.00     0.079 A 
HETATM   24  C4  UNL     1      28.907   7.795  48.284  1.00  0.00     0.074 A 
HETATM   25  C3  UNL     1      29.881   8.703  48.649  1.00  0.00     0.126 A 
HETATM   26  N3  UNL     1      29.543  10.014  48.798  1.00  0.00    -0.255 NA
HETATM   27  C21 UNL     1      28.273  10.398  48.586  1.00  0.00     0.120 A 
HETATM   28  C20 UNL     1      27.291   9.485  48.218  1.00  0.00     0.056 A 
BRANCH  25  29
HETATM   29  C2  UNL     1      31.253   8.256  48.872  1.00  0.00     0.269 C 
HETATM   30  N1  UNL     1      31.988   7.722  47.785  1.00  0.00    -0.360 N 
HETATM   31  C1  UNL     1      33.363   7.259  47.947  1.00  0.00     0.149 C 
HETATM   32  H4  UNL     1      31.579   7.638  46.819  1.00  0.00     0.162 HD
HETATM   33  O1  UNL     1      31.877   8.292  49.964  1.00  0.00    -0.266 OA
ENDBRANCH  25  29
ENDBRANCH  22  23
ENDBRANCH   1  22
TORSDOF 6
ENDMDL
MODEL 6
REMARK VINA RESULT:      -9.1      5.071     10.396
REMARK  6 active torsions:
REMARK  status: ('A' for Active; 'I' for Inactive)
REMARK       I    between atoms: N1_2  and  C2_3 
REMARK    1  A    between atoms: C2_3  and  C3_5 
REMARK    2  A    between atoms: C5_7  and  O2_8 
REMARK    3  A    between atoms: O2_8  and  C6_9 
REMARK    4  A    between atoms: C9_12  and  N2_13 
REMARK       I    between atoms: N2_13  and  C10_14 
REMARK    5  A    between atoms: C10_14  and  C11_16 
REMARK    6  A    between atoms: C15_21  and  C16_22 
ROOT
HETATM    1  C6  UNL     1      24.997   0.335  52.868  1.00  0.00     0.076 A 
HETATM    2  C7  UNL     1      24.442   1.588  53.024  1.00  0.00     0.039 A 
HETATM    3  C8  UNL     1      25.002   2.717  52.425  1.00  0.00     0.032 A 
HETATM    4  C9  UNL     1      26.139   2.474  51.676  1.00  0.00     0.035 A 
HETATM    5  C18 UNL     1      26.744   1.248  51.480  1.00  0.00     0.032 A 
HETATM    6  C19 UNL     1      26.149   0.162  52.095  1.00  0.00     0.039 A 
ENDROOT
BRANCH   4   7
HETATM    7  N2  UNL     1      26.801   3.572  51.012  1.00  0.00    -0.323 N 
HETATM    8  C10 UNL     1      26.297   3.991  49.767  1.00  0.00     0.256 C 
HETATM    9  O3  UNL     1      25.286   3.314  49.388  1.00  0.00    -0.267 OA
HETATM   10  H8  UNL     1      27.632   4.056  51.424  1.00  0.00     0.169 HD
BRANCH   8  11
HETATM   11  C11 UNL     1      26.863   5.085  48.985  1.00  0.00     0.033 A 
HETATM   12  C12 UNL     1      28.179   5.104  48.544  1.00  0.00     0.019 A 
HETATM   13  C13 UNL     1      28.646   6.171  47.808  1.00  0.00     0.026 A 
HETATM   14  C14 UNL     1      27.825   7.235  47.496  1.00  0.00     0.049 A 
HETATM   15 CL1  UNL     1      28.489   8.544  46.564  1.00  0.00    -0.083 Cl
HETATM   16  C15 UNL     1      26.523   7.192  47.947  1.00  0.00     0.070 A 
HETATM   17  C17 UNL     1      26.002   6.143  48.690  1.00  0.00     0.035 A 
BRANCH  16  18
HETATM   18  C16 UNL     1      25.717   8.401  47.551  1.00  0.00     0.419 C 
HETATM   19  F1  UNL     1      26.366   9.557  47.942  1.00  0.00    -0.166 F 
HETATM   20  F2  UNL     1      25.488   8.315  46.211  1.00  0.00    -0.166 F 
HETATM   21  F3  UNL     1      24.514   8.289  48.241  1.00  0.00    -0.166 F 
ENDBRANCH  16  18
ENDBRANCH   8  11
ENDBRANCH   4   7
BRANCH   1  22
HETATM   22  O2  UNL     1      24.375  -0.734  53.500  1.00  0.00    -0.311 OA
BRANCH  22  23
HETATM   23  C5  UNL     1      22.989  -0.734  53.570  1.00  0.00     0.079 A 
HETATM   24  C4  UNL     1      22.267  -0.215  52.513  1.00  0.00     0.074 A 
HETATM   25  C3  UNL     1      20.887  -0.171  52.489  1.00  0.00     0.126 A 
HETATM   26  N3  UNL     1      20.190  -0.659  53.551  1.00  0.00    -0.255 NA
HETATM   27  C21 UNL     1      20.855  -1.173  54.600  1.00  0.00     0.120 A 
HETATM   28  C20 UNL     1      22.245  -1.218  54.625  1.00  0.00     0.056 A 
BRANCH  25  29
HETATM   29  C2  UNL     1      20.192   0.394  51.335  1.00  0.00     0.269 C 
HETATM   30  N1  UNL     1      18.803   0.156  51.185  1.00  0.00    -0.360 N 
HETATM   31  C1  UNL     1      18.055   0.695  50.054  1.00  0.00     0.149 C 
HETATM   32  H4  UNL     1      18.254  -0.414  51.878  1.00  0.00     0.162 HD
HETATM   33  O1  UNL     1      20.709   1.093  50.426  1.00  0.00    -0.266 OA
ENDBRANCH  25  29
ENDBRANCH  22  23
ENDBRANCH   1  22
TORSDOF 6
ENDMDL
MODEL 7
REMARK VINA RESULT:      -8.9      6.679     10.064
REMARK  6 active torsions:
REMARK  status: ('A' for Active; 'I' for Inactive)
REMARK       I    between atoms: N1_2  and  C2_3 
REMARK    1  A    between atoms: C2_3  and  C3_5 
REMARK    2  A    between atoms: C5_7  and  O2_8 
REMARK    3  A    between atoms: O2_8  and  C6_9 
REMARK    4  A    between atoms: C9_12  and  N2_13 
REMARK       I    between atoms: N2_13  and  C10_14 
REMARK    5  A    between atoms: C10_14  and  C11_16 
REMARK    6  A    between atoms: C15_21  and  C16_22 
ROOT
HETATM    1  C6  UNL     1      25.476   3.734  49.632  1.00  0.00     0.076 A 
HETATM    2  C7  UNL     1      26.807   3.959  49.350  1.00  0.00     0.039 A 
HETATM    3  C8  UNL     1      27.258   5.192  48.880  1.00  0.00     0.032 A 
HETATM    4  C9  UNL     1      26.274   6.151  48.723  1.00  0.00     0.035 A 
HETATM    5  C18 UNL     1      24.928   5.992  48.987  1.00  0.00     0.032 A 
HETATM    6  C19 UNL     1      24.533   4.751  49.450  1.00  0.00     0.039 A 
ENDROOT
BRANCH   4   7
HETATM    7  N2  UNL     1      26.631   7.464  48.242  1.00  0.00    -0.323 N 
HETATM    8  C10 UNL     1      26.774   8.497  49.185  1.00  0.00     0.256 C 
HETATM    9  O3  UNL     1      26.561   8.111  50.381  1.00  0.00    -0.267 OA
HETATM   10  H8  UNL     1      26.782   7.665  47.226  1.00  0.00     0.169 HD
BRANCH   8  11
HETATM   11  C11 UNL     1      27.130   9.870  48.843  1.00  0.00     0.033 A 
HETATM   12  C12 UNL     1      26.210  10.807  48.396  1.00  0.00     0.019 A 
HETATM   13  C13 UNL     1      26.618  12.087  48.092  1.00  0.00     0.026 A 
HETATM   14  C14 UNL     1      27.939  12.463  48.222  1.00  0.00     0.049 A 
HETATM   15 CL1  UNL     1      28.375  14.098  47.818  1.00  0.00    -0.083 Cl
HETATM   16  C15 UNL     1      28.833  11.514  48.668  1.00  0.00     0.070 A 
HETATM   17  C17 UNL     1      28.475  10.213  48.988  1.00  0.00     0.035 A 
BRANCH  16  18
HETATM   18  C16 UNL     1      30.244  12.030  48.774  1.00  0.00     0.419 C 
HETATM   19  F1  UNL     1      30.697  12.440  47.533  1.00  0.00    -0.166 F 
HETATM   20  F2  UNL     1      30.248  13.009  49.721  1.00  0.00    -0.166 F 
HETATM   21  F3  UNL     1      31.005  10.951  49.211  1.00  0.00    -0.166 F 
ENDBRANCH  16  18
ENDBRANCH   8  11
ENDBRANCH   4   7
BRANCH   1  22
HETATM   22  O2  UNL     1      25.113   2.477  50.096  1.00  0.00    -0.311 OA
BRANCH  22  23
HETATM   23  C5  UNL     1      25.390   2.165  51.420  1.00  0.00     0.079 A 
HETATM   24  C4  UNL     1      26.293   1.155  51.692  1.00  0.00     0.074 A 
HETATM   25  C3  UNL     1      26.635   0.773  52.974  1.00  0.00     0.126 A 
HETATM   26  N3  UNL     1      26.062   1.412  54.031  1.00  0.00    -0.255 NA
HETATM   27  C21 UNL     1      25.179   2.400  53.808  1.00  0.00     0.120 A 
HETATM   28  C20 UNL     1      24.834   2.786  52.518  1.00  0.00     0.056 A 
BRANCH  25  29
HETATM   29  C2  UNL     1      27.598  -0.304  53.185  1.00  0.00     0.269 C 
HETATM   30  N1  UNL     1      28.948   0.024  53.461  1.00  0.00    -0.360 N 
HETATM   31  C1  UNL     1      29.956  -1.008  53.681  1.00  0.00     0.149 C 
HETATM   32  H4  UNL     1      29.282   1.021  53.520  1.00  0.00     0.162 HD
HETATM   33  O1  UNL     1      27.352  -1.538  53.147  1.00  0.00    -0.266 OA
ENDBRANCH  25  29
ENDBRANCH  22  23
ENDBRANCH   1  22
TORSDOF 6
ENDMDL
MODEL 8
REMARK VINA RESULT:      -8.7      1.671      2.661
REMARK  6 active torsions:
REMARK  status: ('A' for Active; 'I' for Inactive)
REMARK       I    between atoms: N1_2  and  C2_3 
REMARK    1  A    between atoms: C2_3  and  C3_5 
REMARK    2  A    between atoms: C5_7  and  O2_8 
REMARK    3  A    between atoms: O2_8  and  C6_9 
REMARK    4  A    between atoms: C9_12  and  N2_13 
REMARK       I    between atoms: N2_13  and  C10_14 
REMARK    5  A    between atoms: C10_14  and  C11_16 
REMARK    6  A    between atoms: C15_21  and  C16_22 
ROOT
HETATM    1  C6  UNL     1      26.438   5.746  48.579  1.00  0.00     0.076 A 
HETATM    2  C7  UNL     1      27.172   4.614  48.868  1.00  0.00     0.039 A 
HETATM    3  C8  UNL     1      26.595   3.504  49.483  1.00  0.00     0.032 A 
HETATM    4  C9  UNL     1      25.249   3.633  49.773  1.00  0.00     0.035 A 
HETATM    5  C18 UNL     1      24.458   4.735  49.512  1.00  0.00     0.032 A 
HETATM    6  C19 UNL     1      25.078   5.809  48.901  1.00  0.00     0.039 A 
ENDROOT
BRANCH   4   7
HETATM    7  N2  UNL     1      24.551   2.543  50.411  1.00  0.00    -0.323 N 
HETATM    8  C10 UNL     1      24.733   2.361  51.795  1.00  0.00     0.256 C 
HETATM    9  O3  UNL     1      25.520   3.222  52.309  1.00  0.00    -0.267 OA
HETATM   10  H8  UNL     1      23.924   1.893  49.881  1.00  0.00     0.169 HD
BRANCH   8  11
HETATM   11  C11 UNL     1      24.093   1.304  52.569  1.00  0.00     0.033 A 
HETATM   12  C12 UNL     1      24.782   0.220  53.093  1.00  0.00     0.019 A 
HETATM   13  C13 UNL     1      24.112  -0.743  53.817  1.00  0.00     0.026 A 
HETATM   14  C14 UNL     1      22.752  -0.652  54.033  1.00  0.00     0.049 A 
HETATM   15 CL1  UNL     1      21.978  -1.907  54.956  1.00  0.00    -0.083 Cl
HETATM   16  C15 UNL     1      22.090   0.435  53.502  1.00  0.00     0.070 A 
HETATM   17  C17 UNL     1      22.717   1.430  52.767  1.00  0.00     0.035 A 
BRANCH  16  18
HETATM   18  C16 UNL     1      20.614   0.434  53.797  1.00  0.00     0.419 C 
HETATM   19  F1  UNL     1      20.023  -0.704  53.280  1.00  0.00    -0.166 F 
HETATM   20  F2  UNL     1      20.470   0.574  55.145  1.00  0.00    -0.166 F 
HETATM   21  F3  UNL     1      20.104   1.556  53.152  1.00  0.00    -0.166 F 
ENDBRANCH  16  18
ENDBRANCH   8  11
ENDBRANCH   4   7
BRANCH   1  22
HETATM   22  O2  UNL     1      27.092   6.806  47.966  1.00  0.00    -0.311 OA
BRANCH  22  23
HETATM   23  C5  UNL     1      28.476   6.863  48.061  1.00  0.00     0.079 A 
HETATM   24  C4  UNL     1      29.089   8.097  48.154  1.00  0.00     0.074 A 
HETATM   25  C3  UNL     1      30.457   8.255  48.253  1.00  0.00     0.126 A 
HETATM   26  N3  UNL     1      31.253   7.151  48.260  1.00  0.00    -0.255 NA
HETATM   27  C21 UNL     1      30.695   5.932  48.171  1.00  0.00     0.120 A 
HETATM   28  C20 UNL     1      29.318   5.770  48.072  1.00  0.00     0.056 A 
BRANCH  25  29
HETATM   29  C2  UNL     1      31.034   9.593  48.348  1.00  0.00     0.269 C 
HETATM   30  N1  UNL     1      30.276  10.629  48.948  1.00  0.00    -0.360 N 
HETATM   31  C1  UNL     1      30.800  11.986  49.072  1.00  0.00     0.149 C 
HETATM   32  H4  UNL     1      29.310  10.467  49.330  1.00  0.00     0.162 HD
HETATM   33  O1  UNL     1      32.172   9.941  47.939  1.00  0.00    -0.266 OA
ENDBRANCH  25  29
ENDBRANCH  22  23
ENDBRANCH   1  22
TORSDOF 6
ENDMDL
MODEL 9
REMARK VINA RESULT:      -8.7      2.546      4.201
REMARK  6 active torsions:
REMARK  status: ('A' for Active; 'I' for Inactive)
REMARK       I    between atoms: N1_2  and  C2_3 
REMARK    1  A    between atoms: C2_3  and  C3_5 
REMARK    2  A    between atoms: C5_7  and  O2_8 
REMARK    3  A    between atoms: O2_8  and  C6_9 
REMARK    4  A    between atoms: C9_12  and  N2_13 
REMARK       I    between atoms: N2_13  and  C10_14 
REMARK    5  A    between atoms: C10_14  and  C11_16 
REMARK    6  A    between atoms: C15_21  and  C16_22 
ROOT
HETATM    1  C6  UNL     1      27.030   6.095  48.458  1.00  0.00     0.076 A 
HETATM    2  C7  UNL     1      27.549   4.819  48.522  1.00  0.00     0.039 A 
HETATM    3  C8  UNL     1      26.987   3.840  49.342  1.00  0.00     0.032 A 
HETATM    4  C9  UNL     1      25.887   4.252  50.071  1.00  0.00     0.035 A 
HETATM    5  C18 UNL     1      25.318   5.511  50.052  1.00  0.00     0.032 A 
HETATM    6  C19 UNL     1      25.913   6.444  49.223  1.00  0.00     0.039 A 
ENDROOT
BRANCH   4   7
HETATM    7  N2  UNL     1      25.227   3.319  50.952  1.00  0.00    -0.323 N 
HETATM    8  C10 UNL     1      26.030   2.461  51.726  1.00  0.00     0.256 C 
HETATM    9  O3  UNL     1      27.277   2.639  51.531  1.00  0.00    -0.267 OA
HETATM   10  H8  UNL     1      24.185   3.263  51.029  1.00  0.00     0.169 HD
BRANCH   8  11
HETATM   11  C11 UNL     1      25.502   1.470  52.657  1.00  0.00     0.033 A 
HETATM   12  C12 UNL     1      26.265   0.880  53.655  1.00  0.00     0.019 A 
HETATM   13  C13 UNL     1      25.700  -0.049  54.501  1.00  0.00     0.026 A 
HETATM   14  C14 UNL     1      24.375  -0.412  54.375  1.00  0.00     0.049 A 
HETATM   15 CL1  UNL     1      23.735  -1.592  55.481  1.00  0.00    -0.083 Cl
HETATM   16  C15 UNL     1      23.638   0.188  53.376  1.00  0.00     0.070 A 
HETATM   17  C17 UNL     1      24.159   1.129  52.499  1.00  0.00     0.035 A 
BRANCH  16  18
HETATM   18  C16 UNL     1      22.208  -0.280  53.329  1.00  0.00     0.419 C 
HETATM   19  F1  UNL     1      21.570   0.012  54.521  1.00  0.00    -0.166 F 
HETATM   20  F2  UNL     1      21.631   0.289  52.234  1.00  0.00    -0.166 F 
HETATM   21  F3  UNL     1      22.272  -1.659  53.163  1.00  0.00    -0.166 F 
ENDBRANCH  16  18
ENDBRANCH   8  11
ENDBRANCH   4   7
BRANCH   1  22
HETATM   22  O2  UNL     1      27.651   7.008  47.616  1.00  0.00    -0.311 OA
BRANCH  22  23
HETATM   23  C5  UNL     1      28.176   8.163  48.180  1.00  0.00     0.079 A 
HETATM   24  C4  UNL     1      27.458   9.339  48.084  1.00  0.00     0.074 A 
HETATM   25  C3  UNL     1      27.896  10.536  48.613  1.00  0.00     0.126 A 
HETATM   26  N3  UNL     1      29.092  10.577  49.262  1.00  0.00    -0.255 NA
HETATM   27  C21 UNL     1      29.821   9.454  49.376  1.00  0.00     0.120 A 
HETATM   28  C20 UNL     1      29.382   8.247  48.844  1.00  0.00     0.056 A 
BRANCH  25  29
HETATM   29  C2  UNL     1      27.082  11.740  48.473  1.00  0.00     0.269 C 
HETATM   30  N1  UNL     1      27.718  12.971  48.177  1.00  0.00    -0.360 N 
HETATM   31  C1  UNL     1      26.957  14.207  48.025  1.00  0.00     0.149 C 
HETATM   32  H4  UNL     1      28.760  13.048  48.053  1.00  0.00     0.162 HD
HETATM   33  O1  UNL     1      25.831  11.809  48.592  1.00  0.00    -0.266 OA
ENDBRANCH  25  29
ENDBRANCH  22  23
ENDBRANCH   1  22
TORSDOF 6
ENDMDL
