MODEL 1
REMARK VINA RESULT:      -8.8      0.000      0.000
REMARK  4 active torsions:
REMARK  status: ('A' for Active; 'I' for Inactive)
REMARK    1  A    between atoms: N1_1  and  C1_2 
REMARK    2  A    between atoms: N2_5  and  C4_6 
REMARK    3  A    between atoms: C4_6  and  C5_7 
REMARK    4  A    between atoms: C9_14  and  C10_15 
ROOT
HETATM    1  C5  UNL     1      22.858   0.369  52.707  1.00  0.00    -0.009 A 
HETATM    2  C6  UNL     1      21.500   0.304  53.044  1.00  0.00     0.030 A 
HETATM    3  C7  UNL     1      21.366  -0.354  54.240  1.00  0.00     0.119 A 
HETATM    4  N3  UNL     1      22.597  -0.688  54.635  1.00  0.00    -0.241 N 
HETATM    5  N4  UNL     1      23.042  -1.350  55.708  1.00  0.00    -0.161 NA
HETATM    6  C8  UNL     1      24.344  -1.588  55.877  1.00  0.00     0.255 A 
HETATM    7  N5  UNL     1      25.208  -1.165  54.968  1.00  0.00    -0.242 NA
HETATM    8  C9  UNL     1      24.873  -0.476  53.829  1.00  0.00     0.073 A 
HETATM    9  C16 UNL     1      23.491  -0.268  53.735  1.00  0.00     0.091 A 
ENDROOT
BRANCH   1  10
HETATM   10  C4  UNL     1      23.313   1.106  51.515  1.00  0.00     0.158 C 
BRANCH  10  11
HETATM   11  N2  UNL     1      23.127   2.496  51.705  1.00  0.00    -0.408 N 
HETATM   12  C3  UNL     1      23.781   3.251  52.667  1.00  0.00     0.119 C 
HETATM   13  C2  UNL     1      23.417   4.733  52.617  1.00  0.00     0.055 C 
HETATM   14  C1  UNL     1      22.108   5.023  51.979  1.00  0.00     0.221 C 
HETATM   15  C18 UNL     1      21.733   4.211  50.799  1.00  0.00     0.055 C 
HETATM   16  C17 UNL     1      22.794   3.191  50.484  1.00  0.00     0.119 C 
BRANCH  14  17
HETATM   17  N1  UNL     1      22.106   6.446  51.583  1.00  0.00     0.083 N 
HETATM   18  H1  UNL     1      21.120   6.769  51.592  1.00  0.00     0.313 HD
HETATM   19  H2  UNL     1      22.759   7.011  52.164  1.00  0.00     0.313 HD
ENDBRANCH  14  17
ENDBRANCH  10  11
ENDBRANCH   1  10
BRANCH   8  20
HETATM   20  C10 UNL     1      25.908  -0.111  52.890  1.00  0.00     0.068 A 
HETATM   21  C11 UNL     1      26.507  -1.402  52.359  1.00  0.00     0.045 A 
HETATM   22  C12 UNL     1      27.891  -1.649  52.733  1.00  0.00     0.018 A 
HETATM   23  C13 UNL     1      28.764  -0.974  53.457  1.00  0.00     0.134 A 
HETATM   24  F1  UNL     1      30.026  -1.283  53.750  1.00  0.00    -0.205 F 
HETATM   25  C14 UNL     1      28.159   0.255  53.954  1.00  0.00     0.069 A 
HETATM   26 CL1  UNL     1      29.049   1.384  54.952  1.00  0.00    -0.081 Cl
HETATM   27  C15 UNL     1      26.942   0.633  53.718  1.00  0.00     0.011 A 
ENDBRANCH   8  20
TORSDOF 4
ENDMDL
MODEL 2
REMARK VINA RESULT:      -8.0      1.607      1.984
REMARK  4 active torsions:
REMARK  status: ('A' for Active; 'I' for Inactive)
REMARK    1  A    between atoms: N1_1  and  C1_2 
REMARK    2  A    between atoms: N2_5  and  C4_6 
REMARK    3  A    between atoms: C4_6  and  C5_7 
REMARK    4  A    between atoms: C9_14  and  C10_15 
ROOT
HETATM    1  C5  UNL     1      22.860   0.613  52.583  1.00  0.00    -0.009 A 
HETATM    2  C6  UNL     1      21.530   0.727  53.006  1.00  0.00     0.030 A 
HETATM    3  C7  UNL     1      21.391   0.102  54.220  1.00  0.00     0.119 A 
HETATM    4  N3  UNL     1      22.592  -0.384  54.542  1.00  0.00    -0.241 N 
HETATM    5  N4  UNL     1      23.017  -1.088  55.595  1.00  0.00    -0.161 NA
HETATM    6  C8  UNL     1      24.286  -1.490  55.686  1.00  0.00     0.255 A 
HETATM    7  N5  UNL     1      25.136  -1.190  54.717  1.00  0.00    -0.242 NA
HETATM    8  C9  UNL     1      24.818  -0.474  53.590  1.00  0.00     0.073 A 
HETATM    9  C16 UNL     1      23.471  -0.091  53.579  1.00  0.00     0.091 A 
ENDROOT
BRANCH   1  10
HETATM   10  C4  UNL     1      23.326   1.274  51.352  1.00  0.00     0.158 C 
BRANCH  10  11
HETATM   11  N2  UNL     1      22.240   1.908  50.701  1.00  0.00    -0.408 N 
HETATM   12  C3  UNL     1      22.024   3.276  50.688  1.00  0.00     0.119 C 
HETATM   13  C2  UNL     1      20.797   3.683  49.874  1.00  0.00     0.055 C 
HETATM   14  C1  UNL     1      19.787   2.608  49.708  1.00  0.00     0.221 C 
HETATM   15  C18 UNL     1      20.288   1.230  49.504  1.00  0.00     0.055 C 
HETATM   16  C17 UNL     1      21.792   1.191  49.529  1.00  0.00     0.119 C 
BRANCH  14  17
HETATM   17  N1  UNL     1      18.933   2.966  48.558  1.00  0.00     0.083 N 
HETATM   18  H1  UNL     1      19.222   2.371  47.759  1.00  0.00     0.313 HD
HETATM   19  H2  UNL     1      17.920   2.918  48.797  1.00  0.00     0.313 HD
ENDBRANCH  14  17
ENDBRANCH  10  11
ENDBRANCH   1  10
BRANCH   8  20
HETATM   20  C10 UNL     1      25.828  -0.254  52.581  1.00  0.00     0.068 A 
HETATM   21  C11 UNL     1      26.717  -1.487  52.560  1.00  0.00     0.045 A 
HETATM   22  C12 UNL     1      28.088  -1.275  52.997  1.00  0.00     0.018 A 
HETATM   23  C13 UNL     1      28.747  -0.213  53.422  1.00  0.00     0.134 A 
HETATM   24  F1  UNL     1      30.018  -0.114  53.805  1.00  0.00    -0.205 F 
HETATM   25  C14 UNL     1      27.867   0.949  53.433  1.00  0.00     0.069 A 
HETATM   26 CL1  UNL     1      28.429   2.526  53.946  1.00  0.00    -0.081 Cl
HETATM   27  C15 UNL     1      26.621   0.943  53.076  1.00  0.00     0.011 A 
ENDBRANCH   8  20
TORSDOF 4
ENDMDL
MODEL 3
REMARK VINA RESULT:      -7.8      3.831      7.260
REMARK  4 active torsions:
REMARK  status: ('A' for Active; 'I' for Inactive)
REMARK    1  A    between atoms: N1_1  and  C1_2 
REMARK    2  A    between atoms: N2_5  and  C4_6 
REMARK    3  A    between atoms: C4_6  and  C5_7 
REMARK    4  A    between atoms: C9_14  and  C10_15 
ROOT
HETATM    1  C5  UNL     1      25.543   2.362  51.930  1.00  0.00    -0.009 A 
HETATM    2  C6  UNL     1      26.759   2.672  51.305  1.00  0.00     0.030 A 
HETATM    3  C7  UNL     1      26.503   3.250  50.088  1.00  0.00     0.119 A 
HETATM    4  N3  UNL     1      25.175   3.298  49.957  1.00  0.00    -0.241 N 
HETATM    5  N4  UNL     1      24.391   3.742  48.970  1.00  0.00    -0.161 NA
HETATM    6  C8  UNL     1      23.062   3.663  49.060  1.00  0.00     0.255 A 
HETATM    7  N5  UNL     1      22.512   3.135  50.142  1.00  0.00    -0.242 NA
HETATM    8  C9  UNL     1      23.210   2.648  51.219  1.00  0.00     0.073 A 
HETATM    9  C16 UNL     1      24.594   2.774  51.041  1.00  0.00     0.091 A 
ENDROOT
BRANCH   1  10
HETATM   10  C4  UNL     1      25.508   1.816  53.298  1.00  0.00     0.158 C 
BRANCH  10  11
HETATM   11  N2  UNL     1      26.469   0.786  53.434  1.00  0.00    -0.408 N 
HETATM   12  C3  UNL     1      27.615   0.879  54.208  1.00  0.00     0.119 C 
HETATM   13  C2  UNL     1      28.450  -0.399  54.202  1.00  0.00     0.055 C 
HETATM   14  C1  UNL     1      28.227  -1.272  53.021  1.00  0.00     0.221 C 
HETATM   15  C18 UNL     1      26.842  -1.385  52.512  1.00  0.00     0.055 C 
HETATM   16  C17 UNL     1      25.897  -0.535  53.318  1.00  0.00     0.119 C 
BRANCH  14  17
HETATM   17  N1  UNL     1      28.708  -2.625  53.365  1.00  0.00     0.083 N 
HETATM   18  H1  UNL     1      28.255  -2.898  54.258  1.00  0.00     0.313 HD
HETATM   19  H2  UNL     1      28.571  -3.296  52.580  1.00  0.00     0.313 HD
ENDBRANCH  14  17
ENDBRANCH  10  11
ENDBRANCH   1  10
BRANCH   8  20
HETATM   20  C10 UNL     1      22.492   2.052  52.320  1.00  0.00     0.068 A 
HETATM   21  C11 UNL     1      22.517   0.547  52.110  1.00  0.00     0.045 A 
HETATM   22  C12 UNL     1      21.227  -0.067  51.836  1.00  0.00     0.018 A 
HETATM   23  C13 UNL     1      20.003   0.415  51.725  1.00  0.00     0.134 A 
HETATM   24  F1  UNL     1      18.868  -0.233  51.468  1.00  0.00    -0.205 F 
HETATM   25  C14 UNL     1      20.013   1.858  51.928  1.00  0.00     0.069 A 
HETATM   26 CL1  UNL     1      18.548   2.812  51.848  1.00  0.00    -0.081 Cl
HETATM   27  C15 UNL     1      21.069   2.566  52.183  1.00  0.00     0.011 A 
ENDBRANCH   8  20
TORSDOF 4
ENDMDL
MODEL 4
REMARK VINA RESULT:      -7.7      3.481      6.531
REMARK  4 active torsions:
REMARK  status: ('A' for Active; 'I' for Inactive)
REMARK    1  A    between atoms: N1_1  and  C1_2 
REMARK    2  A    between atoms: N2_5  and  C4_6 
REMARK    3  A    between atoms: C4_6  and  C5_7 
REMARK    4  A    between atoms: C9_14  and  C10_15 
ROOT
HETATM    1  C5  UNL     1      23.004   1.590  51.882  1.00  0.00    -0.009 A 
HETATM    2  C6  UNL     1      22.119   0.504  51.899  1.00  0.00     0.030 A 
HETATM    3  C7  UNL     1      21.576   0.349  50.649  1.00  0.00     0.119 A 
HETATM    4  N3  UNL     1      22.104   1.304  49.879  1.00  0.00    -0.241 N 
HETATM    5  N4  UNL     1      21.916   1.621  48.595  1.00  0.00    -0.161 NA
HETATM    6  C8  UNL     1      22.553   2.655  48.042  1.00  0.00     0.255 A 
HETATM    7  N5  UNL     1      23.383   3.379  48.777  1.00  0.00    -0.242 NA
HETATM    8  C9  UNL     1      23.658   3.150  50.103  1.00  0.00     0.073 A 
HETATM    9  C16 UNL     1      22.951   2.048  50.598  1.00  0.00     0.091 A 
ENDROOT
BRANCH   1  10
HETATM   10  C4  UNL     1      23.809   1.934  53.068  1.00  0.00     0.158 C 
BRANCH  10  11
HETATM   11  N2  UNL     1      25.027   1.213  53.053  1.00  0.00    -0.408 N 
HETATM   12  C3  UNL     1      26.276   1.787  52.870  1.00  0.00     0.119 C 
HETATM   13  C2  UNL     1      27.418   0.775  52.940  1.00  0.00     0.055 C 
HETATM   14  C1  UNL     1      27.016  -0.625  52.651  1.00  0.00     0.221 C 
HETATM   15  C18 UNL     1      25.702  -1.075  53.163  1.00  0.00     0.055 C 
HETATM   16  C17 UNL     1      24.995   0.037  53.890  1.00  0.00     0.119 C 
BRANCH  14  17
HETATM   17  N1  UNL     1      28.058  -1.515  53.200  1.00  0.00     0.083 N 
HETATM   18  H1  UNL     1      28.095  -1.355  54.225  1.00  0.00     0.313 HD
HETATM   19  H2  UNL     1      27.912  -2.506  52.916  1.00  0.00     0.313 HD
ENDBRANCH  14  17
ENDBRANCH  10  11
ENDBRANCH   1  10
BRANCH   8  20
HETATM   20  C10 UNL     1      24.548   4.043  50.807  1.00  0.00     0.068 A 
HETATM   21  C11 UNL     1      23.905   5.420  50.794  1.00  0.00     0.045 A 
HETATM   22  C12 UNL     1      24.610   6.432  50.024  1.00  0.00     0.018 A 
HETATM   23  C13 UNL     1      25.722   6.413  49.312  1.00  0.00     0.134 A 
HETATM   24  F1  UNL     1      26.298   7.403  48.633  1.00  0.00    -0.205 F 
HETATM   25  C14 UNL     1      26.312   5.080  49.342  1.00  0.00     0.069 A 
HETATM   26 CL1  UNL     1      27.798   4.711  48.495  1.00  0.00    -0.081 Cl
HETATM   27  C15 UNL     1      25.820   4.063  49.976  1.00  0.00     0.011 A 
ENDBRANCH   8  20
TORSDOF 4
ENDMDL
MODEL 5
REMARK VINA RESULT:      -7.6      3.599      6.179
REMARK  4 active torsions:
REMARK  status: ('A' for Active; 'I' for Inactive)
REMARK    1  A    between atoms: N1_1  and  C1_2 
REMARK    2  A    between atoms: N2_5  and  C4_6 
REMARK    3  A    between atoms: C4_6  and  C5_7 
REMARK    4  A    between atoms: C9_14  and  C10_15 
ROOT
HETATM    1  C5  UNL     1      24.588  -0.492  53.396  1.00  0.00    -0.009 A 
HETATM    2  C6  UNL     1      24.788  -1.215  54.579  1.00  0.00     0.030 A 
HETATM    3  C7  UNL     1      23.625  -1.215  55.306  1.00  0.00     0.119 A 
HETATM    4  N3  UNL     1      22.731  -0.516  54.602  1.00  0.00    -0.241 N 
HETATM    5  N4  UNL     1      21.458  -0.191  54.847  1.00  0.00    -0.161 NA
HETATM    6  C8  UNL     1      20.761   0.551  53.985  1.00  0.00     0.255 A 
HETATM    7  N5  UNL     1      21.339   0.974  52.872  1.00  0.00    -0.242 NA
HETATM    8  C9  UNL     1      22.635   0.705  52.511  1.00  0.00     0.073 A 
HETATM    9  C16 UNL     1      23.290  -0.080  53.469  1.00  0.00     0.091 A 
ENDROOT
BRANCH   1  10
HETATM   10  C4  UNL     1      25.642  -0.404  52.370  1.00  0.00     0.158 C 
BRANCH  10  11
HETATM   11  N2  UNL     1      26.833   0.105  52.942  1.00  0.00    -0.408 N 
HETATM   12  C3  UNL     1      27.963  -0.654  53.205  1.00  0.00     0.119 C 
HETATM   13  C2  UNL     1      29.115   0.165  53.785  1.00  0.00     0.055 C 
HETATM   14  C1  UNL     1      28.697   1.424  54.453  1.00  0.00     0.221 C 
HETATM   15  C18 UNL     1      27.590   2.187  53.832  1.00  0.00     0.055 C 
HETATM   16  C17 UNL     1      27.072   1.488  52.604  1.00  0.00     0.119 C 
BRANCH  14  17
HETATM   17  N1  UNL     1      29.880   2.304  54.534  1.00  0.00     0.083 N 
HETATM   18  H1  UNL     1      29.773   2.891  55.383  1.00  0.00     0.313 HD
HETATM   19  H2  UNL     1      30.769   1.764  54.483  1.00  0.00     0.313 HD
ENDBRANCH  14  17
ENDBRANCH  10  11
ENDBRANCH   1  10
BRANCH   8  20
HETATM   20  C10 UNL     1      23.163   1.267  51.290  1.00  0.00     0.068 A 
HETATM   21  C11 UNL     1      23.616   2.682  51.606  1.00  0.00     0.045 A 
HETATM   22  C12 UNL     1      22.859   3.740  50.954  1.00  0.00     0.018 A 
HETATM   23  C13 UNL     1      21.832   3.736  50.124  1.00  0.00     0.134 A 
HETATM   24  F1  UNL     1      21.198   4.769  49.572  1.00  0.00    -0.205 F 
HETATM   25  C14 UNL     1      21.421   2.366  49.843  1.00  0.00     0.069 A 
HETATM   26 CL1  UNL     1      20.083   2.005  48.775  1.00  0.00    -0.081 Cl
HETATM   27  C15 UNL     1      21.982   1.306  50.335  1.00  0.00     0.011 A 
ENDBRANCH   8  20
TORSDOF 4
ENDMDL
MODEL 6
REMARK VINA RESULT:      -7.6      2.215      4.652
REMARK  4 active torsions:
REMARK  status: ('A' for Active; 'I' for Inactive)
REMARK    1  A    between atoms: N1_1  and  C1_2 
REMARK    2  A    between atoms: N2_5  and  C4_6 
REMARK    3  A    between atoms: C4_6  and  C5_7 
REMARK    4  A    between atoms: C9_14  and  C10_15 
ROOT
HETATM    1  C5  UNL     1      23.651   1.164  52.436  1.00  0.00    -0.009 A 
HETATM    2  C6  UNL     1      22.559   1.385  51.588  1.00  0.00     0.030 A 
HETATM    3  C7  UNL     1      22.981   2.082  50.484  1.00  0.00     0.119 A 
HETATM    4  N3  UNL     1      24.291   2.289  50.639  1.00  0.00    -0.241 N 
HETATM    5  N4  UNL     1      25.190   2.923  49.881  1.00  0.00    -0.161 NA
HETATM    6  C8  UNL     1      26.465   3.021  50.264  1.00  0.00     0.255 A 
HETATM    7  N5  UNL     1      26.844   2.484  51.413  1.00  0.00    -0.242 NA
HETATM    8  C9  UNL     1      26.015   1.809  52.274  1.00  0.00     0.073 A 
HETATM    9  C16 UNL     1      24.701   1.751  51.793  1.00  0.00     0.091 A 
ENDROOT
BRANCH   1  10
HETATM   10  C4  UNL     1      23.514   0.353  53.658  1.00  0.00     0.158 C 
BRANCH  10  11
HETATM   11  N2  UNL     1      22.229  -0.239  53.706  1.00  0.00    -0.408 N 
HETATM   12  C3  UNL     1      21.996  -1.601  53.808  1.00  0.00     0.119 C 
HETATM   13  C2  UNL     1      20.511  -1.953  53.880  1.00  0.00     0.055 C 
HETATM   14  C1  UNL     1      19.608  -0.923  53.308  1.00  0.00     0.221 C 
HETATM   15  C18 UNL     1      19.963   0.496  53.538  1.00  0.00     0.055 C 
HETATM   16  C17 UNL     1      21.241   0.614  54.325  1.00  0.00     0.119 C 
BRANCH  14  17
HETATM   17  N1  UNL     1      18.256  -1.157  53.852  1.00  0.00     0.083 N 
HETATM   18  H1  UNL     1      18.346  -1.848  54.622  1.00  0.00     0.313 HD
HETATM   19  H2  UNL     1      17.783  -0.267  54.114  1.00  0.00     0.313 HD
ENDBRANCH  14  17
ENDBRANCH  10  11
ENDBRANCH   1  10
BRANCH   8  20
HETATM   20  C10 UNL     1      26.543   1.311  53.522  1.00  0.00     0.068 A 
HETATM   21  C11 UNL     1      27.785   2.126  53.841  1.00  0.00     0.045 A 
HETATM   22  C12 UNL     1      29.039   1.390  53.811  1.00  0.00     0.018 A 
HETATM   23  C13 UNL     1      29.341   0.130  53.557  1.00  0.00     0.134 A 
HETATM   24  F1  UNL     1      30.535  -0.460  53.553  1.00  0.00    -0.205 F 
HETATM   25  C14 UNL     1      28.131  -0.622  53.252  1.00  0.00     0.069 A 
HETATM   26 CL1  UNL     1      28.179  -2.329  52.868  1.00  0.00    -0.081 Cl
HETATM   27  C15 UNL     1      26.932  -0.129  53.235  1.00  0.00     0.011 A 
ENDBRANCH   8  20
TORSDOF 4
ENDMDL
MODEL 7
REMARK VINA RESULT:      -7.5      2.816      4.602
REMARK  4 active torsions:
REMARK  status: ('A' for Active; 'I' for Inactive)
REMARK    1  A    between atoms: N1_1  and  C1_2 
REMARK    2  A    between atoms: N2_5  and  C4_6 
REMARK    3  A    between atoms: C4_6  and  C5_7 
REMARK    4  A    between atoms: C9_14  and  C10_15 
ROOT
HETATM    1  C5  UNL     1      23.159   2.148  51.016  1.00  0.00    -0.009 A 
HETATM    2  C6  UNL     1      22.444   2.693  49.942  1.00  0.00     0.030 A 
HETATM    3  C7  UNL     1      23.314   3.354  49.113  1.00  0.00     0.119 A 
HETATM    4  N3  UNL     1      24.530   3.225  49.651  1.00  0.00    -0.241 N 
HETATM    5  N4  UNL     1      25.727   3.682  49.271  1.00  0.00    -0.161 NA
HETATM    6  C8  UNL     1      26.818   3.439  50.000  1.00  0.00     0.255 A 
HETATM    7  N5  UNL     1      26.713   2.736  51.117  1.00  0.00    -0.242 NA
HETATM    8  C9  UNL     1      25.541   2.215  51.608  1.00  0.00     0.073 A 
HETATM    9  C16 UNL     1      24.452   2.515  50.780  1.00  0.00     0.091 A 
ENDROOT
BRANCH   1  10
HETATM   10  C4  UNL     1      22.495   1.299  52.021  1.00  0.00     0.158 C 
BRANCH  10  11
HETATM   11  N2  UNL     1      21.094   1.307  51.812  1.00  0.00    -0.408 N 
HETATM   12  C3  UNL     1      20.359   0.214  51.383  1.00  0.00     0.119 C 
HETATM   13  C2  UNL     1      18.861   0.498  51.284  1.00  0.00     0.055 C 
HETATM   14  C1  UNL     1      18.519   1.934  51.127  1.00  0.00     0.221 C 
HETATM   15  C18 UNL     1      19.329   2.913  51.887  1.00  0.00     0.055 C 
HETATM   16  C17 UNL     1      20.401   2.224  52.687  1.00  0.00     0.119 C 
BRANCH  14  17
HETATM   17  N1  UNL     1      17.103   2.104  51.512  1.00  0.00     0.083 N 
HETATM   18  H1  UNL     1      16.949   3.115  51.690  1.00  0.00     0.313 HD
HETATM   19  H2  UNL     1      16.458   1.677  50.815  1.00  0.00     0.313 HD
ENDBRANCH  14  17
ENDBRANCH  10  11
ENDBRANCH   1  10
BRANCH   8  20
HETATM   20  C10 UNL     1      25.553   1.506  52.865  1.00  0.00     0.068 A 
HETATM   21  C11 UNL     1      26.695   2.073  53.690  1.00  0.00     0.045 A 
HETATM   22  C12 UNL     1      27.794   1.156  53.951  1.00  0.00     0.018 A 
HETATM   23  C13 UNL     1      28.019  -0.101  53.614  1.00  0.00     0.134 A 
HETATM   24  F1  UNL     1      29.068  -0.869  53.902  1.00  0.00    -0.205 F 
HETATM   25  C14 UNL     1      26.908  -0.614  52.823  1.00  0.00     0.069 A 
HETATM   26 CL1  UNL     1      26.890  -2.255  52.213  1.00  0.00    -0.081 Cl
HETATM   27  C15 UNL     1      25.851   0.062  52.498  1.00  0.00     0.011 A 
ENDBRANCH   8  20
TORSDOF 4
ENDMDL
MODEL 8
REMARK VINA RESULT:      -7.3      3.607      5.881
REMARK  4 active torsions:
REMARK  status: ('A' for Active; 'I' for Inactive)
REMARK    1  A    between atoms: N1_1  and  C1_2 
REMARK    2  A    between atoms: N2_5  and  C4_6 
REMARK    3  A    between atoms: C4_6  and  C5_7 
REMARK    4  A    between atoms: C9_14  and  C10_15 
ROOT
HETATM    1  C5  UNL     1      22.534   4.732  49.610  1.00  0.00    -0.009 A 
HETATM    2  C6  UNL     1      22.152   5.295  48.386  1.00  0.00     0.030 A 
HETATM    3  C7  UNL     1      21.604   4.317  47.594  1.00  0.00     0.119 A 
HETATM    4  N3  UNL     1      21.644   3.185  48.299  1.00  0.00    -0.241 N 
HETATM    5  N4  UNL     1      21.263   1.938  48.008  1.00  0.00    -0.161 NA
HETATM    6  C8  UNL     1      21.428   0.946  48.885  1.00  0.00     0.255 A 
HETATM    7  N5  UNL     1      21.980   1.200  50.061  1.00  0.00    -0.242 NA
HETATM    8  C9  UNL     1      22.409   2.436  50.474  1.00  0.00     0.073 A 
HETATM    9  C16 UNL     1      22.194   3.415  49.495  1.00  0.00     0.091 A 
ENDROOT
BRANCH   1  10
HETATM   10  C4  UNL     1      23.067   5.568  50.699  1.00  0.00     0.158 C 
BRANCH  10  11
HETATM   11  N2  UNL     1      24.318   6.114  50.324  1.00  0.00    -0.408 N 
HETATM   12  C3  UNL     1      24.727   7.408  50.606  1.00  0.00     0.119 C 
HETATM   13  C2  UNL     1      26.141   7.712  50.116  1.00  0.00     0.055 C 
HETATM   14  C1  UNL     1      26.607   6.840  49.009  1.00  0.00     0.221 C 
HETATM   15  C18 UNL     1      26.218   5.412  49.058  1.00  0.00     0.055 C 
HETATM   16  C17 UNL     1      25.368   5.124  50.266  1.00  0.00     0.119 C 
BRANCH  14  17
HETATM   17  N1  UNL     1      28.081   6.918  48.965  1.00  0.00     0.083 N 
HETATM   18  H1  UNL     1      28.331   7.827  48.529  1.00  0.00     0.313 HD
HETATM   19  H2  UNL     1      28.506   6.748  49.900  1.00  0.00     0.313 HD
ENDBRANCH  14  17
ENDBRANCH  10  11
ENDBRANCH   1  10
BRANCH   8  20
HETATM   20  C10 UNL     1      23.040   2.573  51.766  1.00  0.00     0.068 A 
HETATM   21  C11 UNL     1      24.379   1.860  51.688  1.00  0.00     0.045 A 
HETATM   22  C12 UNL     1      24.504   0.673  52.520  1.00  0.00     0.018 A 
HETATM   23  C13 UNL     1      23.680   0.063  53.352  1.00  0.00     0.134 A 
HETATM   24  F1  UNL     1      23.884  -1.034  54.079  1.00  0.00    -0.205 F 
HETATM   25  C14 UNL     1      22.405   0.769  53.401  1.00  0.00     0.069 A 
HETATM   26 CL1  UNL     1      21.085   0.220  54.410  1.00  0.00    -0.081 Cl
HETATM   27  C15 UNL     1      22.122   1.840  52.729  1.00  0.00     0.011 A 
ENDBRANCH   8  20
TORSDOF 4
ENDMDL
MODEL 9
REMARK VINA RESULT:      -7.1      4.632      6.607
REMARK  4 active torsions:
REMARK  status: ('A' for Active; 'I' for Inactive)
REMARK    1  A    between atoms: N1_1  and  C1_2 
REMARK    2  A    between atoms: N2_5  and  C4_6 
REMARK    3  A    between atoms: C4_6  and  C5_7 
REMARK    4  A    between atoms: C9_14  and  C10_15 
ROOT
HETATM    1  C5  UNL     1      23.053   0.884  52.017  1.00  0.00    -0.009 A 
HETATM    2  C6  UNL     1      24.132   0.430  52.785  1.00  0.00     0.030 A 
HETATM    3  C7  UNL     1      23.668  -0.438  53.741  1.00  0.00     0.119 A 
HETATM    4  N3  UNL     1      22.346  -0.521  53.575  1.00  0.00    -0.241 N 
HETATM    5  N4  UNL     1      21.405  -1.202  54.235  1.00  0.00    -0.161 NA
HETATM    6  C8  UNL     1      20.119  -1.106  53.892  1.00  0.00     0.255 A 
HETATM    7  N5  UNL     1      19.770  -0.323  52.883  1.00  0.00    -0.242 NA
HETATM    8  C9  UNL     1      20.644   0.422  52.131  1.00  0.00     0.073 A 
HETATM    9  C16 UNL     1      21.968   0.259  52.558  1.00  0.00     0.091 A 
ENDROOT
BRANCH   1  10
HETATM   10  C4  UNL     1      23.264   1.758  50.849  1.00  0.00     0.158 C 
BRANCH  10  11
HETATM   11  N2  UNL     1      23.464   3.093  51.273  1.00  0.00    -0.408 N 
HETATM   12  C3  UNL     1      22.913   3.643  52.420  1.00  0.00     0.119 C 
HETATM   13  C2  UNL     1      23.331   5.094  52.652  1.00  0.00     0.055 C 
HETATM   14  C1  UNL     1      23.767   5.810  51.426  1.00  0.00     0.221 C 
HETATM   15  C18 UNL     1      24.557   5.045  50.436  1.00  0.00     0.055 C 
HETATM   16  C17 UNL     1      24.751   3.620  50.882  1.00  0.00     0.119 C 
BRANCH  14  17
HETATM   17  N1  UNL     1      24.560   6.982  51.848  1.00  0.00     0.083 N 
HETATM   18  H1  UNL     1      24.253   7.236  52.806  1.00  0.00     0.313 HD
HETATM   19  H2  UNL     1      25.582   6.816  51.744  1.00  0.00     0.313 HD
ENDBRANCH  14  17
ENDBRANCH  10  11
ENDBRANCH   1  10
BRANCH   8  20
HETATM   20  C10 UNL     1      20.131   1.275  51.085  1.00  0.00     0.068 A 
HETATM   21  C11 UNL     1      19.562   2.515  51.756  1.00  0.00     0.045 A 
HETATM   22  C12 UNL     1      18.121   2.677  51.649  1.00  0.00     0.018 A 
HETATM   23  C13 UNL     1      17.171   1.959  51.079  1.00  0.00     0.134 A 
HETATM   24  F1  UNL     1      15.860   2.190  51.032  1.00  0.00    -0.205 F 
HETATM   25  C14 UNL     1      17.748   0.778  50.448  1.00  0.00     0.069 A 
HETATM   26 CL1  UNL     1      16.758  -0.391  49.601  1.00  0.00    -0.081 Cl
HETATM   27  C15 UNL     1      19.008   0.477  50.444  1.00  0.00     0.011 A 
ENDBRANCH   8  20
TORSDOF 4
ENDMDL
