MODEL 1
REMARK VINA RESULT:      -7.7      0.000      0.000
REMARK  5 active torsions:
REMARK  status: ('A' for Active; 'I' for Inactive)
REMARK    1  A    between atoms: C3_3  and  C4_4 
REMARK    2  A    between atoms: C5_6  and  N2_7 
REMARK    3  A    between atoms: N4_13  and  C10_14 
REMARK    4  A    between atoms: C11_15  and  C12_16 
REMARK    5  A    between atoms: C17_21  and  N5_22 
ROOT
HETATM    1  C4  UNL     1      26.538   6.360  49.231  1.00  0.00     0.089 A 
HETATM    2  N1  UNL     1      25.786   7.336  49.782  1.00  0.00    -0.062 NA
HETATM    3  C5  UNL     1      24.772   7.038  50.643  1.00  0.00     0.722 A 
HETATM    4  N3  UNL     1      24.509   5.753  50.953  1.00  0.00    -0.044 NA
HETATM    5  C6  UNL     1      25.230   4.737  50.431  1.00  0.00     0.166 A 
HETATM    6  C7  UNL     1      26.255   5.051  49.561  1.00  0.00     0.042 A 
HETATM    7  C8  UNL     1      26.852   3.867  49.154  1.00  0.00     0.035 A 
HETATM    8  C9  UNL     1      26.156   2.860  49.803  1.00  0.00     0.100 A 
HETATM    9  N4  UNL     1      25.182   3.377  50.570  1.00  0.00    -0.308 N 
ENDROOT
BRANCH   9  10
HETATM   10  C10 UNL     1      24.223   2.757  51.407  1.00  0.00     0.029 C 
HETATM   11  C11 UNL     1      22.932   2.479  51.137  1.00  0.00    -0.019 C 
HETATM   12  C19 UNL     1      22.333   1.847  52.337  1.00  0.00     0.068 C 
HETATM   13  C20 UNL     1      23.056   0.656  52.824  1.00  0.00    -0.026 C 
HETATM   14  C21 UNL     1      24.333   0.933  53.048  1.00  0.00    -0.024 C 
HETATM   15  C22 UNL     1      24.738   2.360  52.759  1.00  0.00     0.085 C 
BRANCH  11  16
HETATM   16  C12 UNL     1      22.438   2.855  49.828  1.00  0.00    -0.001 A 
HETATM   17  C13 UNL     1      22.647   1.986  48.777  1.00  0.00     0.014 A 
HETATM   18  C14 UNL     1      22.216   2.233  47.492  1.00  0.00     0.001 A 
HETATM   19  C15 UNL     1      21.530   3.428  47.239  1.00  0.00     0.002 A 
HETATM   20  C16 UNL     1      21.317   4.299  48.282  1.00  0.00     0.030 A 
HETATM   21  C17 UNL     1      21.760   4.024  49.557  1.00  0.00     0.038 A 
BRANCH  21  22
HETATM   22  N5  UNL     1      21.486   4.951  50.593  1.00  0.00    -0.394 N 
HETATM   23  C18 UNL     1      20.944   6.261  50.291  1.00  0.00     0.146 C 
HETATM   24  H14 UNL     1      21.621   4.818  51.616  1.00  0.00     0.159 HD
ENDBRANCH  21  22
ENDBRANCH  11  16
ENDBRANCH   9  10
BRANCH   3  25
HETATM   25  N2  UNL     1      23.986   8.082  51.217  1.00  0.00    -0.231 N 
HETATM   26  H6  UNL     1      23.536   8.028  52.161  1.00  0.00     0.174 HD
HETATM   27  H7  UNL     1      23.860   8.947  50.649  1.00  0.00     0.174 HD
ENDBRANCH   3  25
BRANCH   1  28
HETATM   28  C3  UNL     1      27.604   6.757  48.317  1.00  0.00     0.029 C 
HETATM   29  C2  UNL     1      27.304   7.666  47.397  1.00  0.00    -0.029 C 
HETATM   30  C1  UNL     1      28.305   8.156  46.400  1.00  0.00     0.036 C 
ENDBRANCH   1  28
TORSDOF 5
ENDMDL
MODEL 2
REMARK VINA RESULT:      -7.7      2.178      4.791
REMARK  5 active torsions:
REMARK  status: ('A' for Active; 'I' for Inactive)
REMARK    1  A    between atoms: C3_3  and  C4_4 
REMARK    2  A    between atoms: C5_6  and  N2_7 
REMARK    3  A    between atoms: N4_13  and  C10_14 
REMARK    4  A    between atoms: C11_15  and  C12_16 
REMARK    5  A    between atoms: C17_21  and  N5_22 
ROOT
HETATM    1  C4  UNL     1      25.652   6.009  49.658  1.00  0.00     0.089 A 
HETATM    2  N1  UNL     1      24.614   6.673  50.208  1.00  0.00    -0.062 NA
HETATM    3  C5  UNL     1      23.699   6.026  50.983  1.00  0.00     0.722 A 
HETATM    4  N3  UNL     1      23.825   4.703  51.210  1.00  0.00    -0.044 NA
HETATM    5  C6  UNL     1      24.845   3.989  50.685  1.00  0.00     0.166 A 
HETATM    6  C7  UNL     1      25.765   4.656  49.901  1.00  0.00     0.042 A 
HETATM    7  C8  UNL     1      26.713   3.737  49.474  1.00  0.00     0.035 A 
HETATM    8  C9  UNL     1      26.326   2.525  50.024  1.00  0.00     0.100 A 
HETATM    9  N4  UNL     1      25.206   2.672  50.751  1.00  0.00    -0.308 N 
ENDROOT
BRANCH   9  10
HETATM   10  C10 UNL     1      24.443   1.736  51.490  1.00  0.00     0.029 C 
HETATM   11  C11 UNL     1      24.841   0.956  52.515  1.00  0.00    -0.019 C 
HETATM   12  C19 UNL     1      23.687   0.129  52.944  1.00  0.00     0.068 C 
HETATM   13  C20 UNL     1      22.477   0.902  53.286  1.00  0.00    -0.026 C 
HETATM   14  C21 UNL     1      22.120   1.694  52.284  1.00  0.00    -0.024 C 
HETATM   15  C22 UNL     1      23.009   1.624  51.065  1.00  0.00     0.085 C 
BRANCH  11  16
HETATM   16  C12 UNL     1      26.224   1.071  52.932  1.00  0.00    -0.001 A 
HETATM   17  C13 UNL     1      26.605   2.203  53.622  1.00  0.00     0.014 A 
HETATM   18  C14 UNL     1      27.890   2.418  54.075  1.00  0.00     0.001 A 
HETATM   19  C15 UNL     1      28.857   1.437  53.819  1.00  0.00     0.002 A 
HETATM   20  C16 UNL     1      28.484   0.306  53.132  1.00  0.00     0.030 A 
HETATM   21  C17 UNL     1      27.192   0.119  52.693  1.00  0.00     0.038 A 
BRANCH  21  22
HETATM   22  N5  UNL     1      26.865  -1.080  52.012  1.00  0.00    -0.394 N 
HETATM   23  C18 UNL     1      27.204  -2.370  52.580  1.00  0.00     0.146 C 
HETATM   24  H14 UNL     1      26.376  -1.179  51.100  1.00  0.00     0.159 HD
ENDBRANCH  21  22
ENDBRANCH  11  16
ENDBRANCH   9  10
BRANCH   3  25
HETATM   25  N2  UNL     1      22.607   6.743  51.557  1.00  0.00    -0.231 N 
HETATM   26  H6  UNL     1      22.063   7.486  51.059  1.00  0.00     0.174 HD
HETATM   27  H7  UNL     1      22.345   6.501  52.537  1.00  0.00     0.174 HD
ENDBRANCH   3  25
BRANCH   1  28
HETATM   28  C3  UNL     1      26.589   6.769  48.836  1.00  0.00     0.029 C 
HETATM   29  C2  UNL     1      26.097   7.377  47.763  1.00  0.00    -0.029 C 
HETATM   30  C1  UNL     1      26.950   8.185  46.839  1.00  0.00     0.036 C 
ENDBRANCH   1  28
TORSDOF 5
ENDMDL
MODEL 3
REMARK VINA RESULT:      -7.5      3.391      7.492
REMARK  5 active torsions:
REMARK  status: ('A' for Active; 'I' for Inactive)
REMARK    1  A    between atoms: C3_3  and  C4_4 
REMARK    2  A    between atoms: C5_6  and  N2_7 
REMARK    3  A    between atoms: N4_13  and  C10_14 
REMARK    4  A    between atoms: C11_15  and  C12_16 
REMARK    5  A    between atoms: C17_21  and  N5_22 
ROOT
HETATM    1  C4  UNL     1      20.933  -0.757  53.648  1.00  0.00     0.089 A 
HETATM    2  N1  UNL     1      21.502  -1.301  54.744  1.00  0.00    -0.062 NA
HETATM    3  C5  UNL     1      22.837  -1.163  54.983  1.00  0.00     0.722 A 
HETATM    4  N3  UNL     1      23.607  -0.473  54.117  1.00  0.00    -0.044 NA
HETATM    5  C6  UNL     1      23.089   0.092  53.004  1.00  0.00     0.166 A 
HETATM    6  C7  UNL     1      21.736  -0.055  52.774  1.00  0.00     0.042 A 
HETATM    7  C8  UNL     1      21.428   0.600  51.590  1.00  0.00     0.035 A 
HETATM    8  C9  UNL     1      22.626   1.129  51.138  1.00  0.00     0.100 A 
HETATM    9  N4  UNL     1      23.625   0.827  51.983  1.00  0.00    -0.308 N 
ENDROOT
BRANCH   9  10
HETATM   10  C10 UNL     1      25.006   1.141  51.948  1.00  0.00     0.029 C 
HETATM   11  C11 UNL     1      25.585   2.351  51.819  1.00  0.00    -0.019 C 
HETATM   12  C19 UNL     1      27.056   2.163  51.814  1.00  0.00     0.068 C 
HETATM   13  C20 UNL     1      27.580   1.431  52.983  1.00  0.00    -0.026 C 
HETATM   14  C21 UNL     1      26.974   0.260  53.123  1.00  0.00    -0.024 C 
HETATM   15  C22 UNL     1      25.918  -0.042  52.085  1.00  0.00     0.085 C 
BRANCH  11  16
HETATM   16  C12 UNL     1      24.703   3.494  51.696  1.00  0.00    -0.001 A 
HETATM   17  C13 UNL     1      23.937   3.847  52.788  1.00  0.00     0.014 A 
HETATM   18  C14 UNL     1      23.070   4.919  52.790  1.00  0.00     0.001 A 
HETATM   19  C15 UNL     1      22.959   5.687  51.624  1.00  0.00     0.002 A 
HETATM   20  C16 UNL     1      23.719   5.341  50.532  1.00  0.00     0.030 A 
HETATM   21  C17 UNL     1      24.579   4.265  50.560  1.00  0.00     0.038 A 
BRANCH  21  22
HETATM   22  N5  UNL     1      25.354   3.975  49.409  1.00  0.00    -0.394 N 
HETATM   23  C18 UNL     1      26.519   4.773  49.082  1.00  0.00     0.146 C 
HETATM   24  H14 UNL     1      25.202   3.215  48.716  1.00  0.00     0.159 HD
ENDBRANCH  21  22
ENDBRANCH  11  16
ENDBRANCH   9  10
BRANCH   3  25
HETATM   25  N2  UNL     1      23.424  -1.744  56.146  1.00  0.00    -0.231 N 
HETATM   26  H6  UNL     1      23.191  -1.462  57.127  1.00  0.00     0.174 HD
HETATM   27  H7  UNL     1      24.129  -2.497  55.994  1.00  0.00     0.174 HD
ENDBRANCH   3  25
BRANCH   1  28
HETATM   28  C3  UNL     1      19.498  -0.950  53.459  1.00  0.00     0.029 C 
HETATM   29  C2  UNL     1      19.015  -2.163  53.703  1.00  0.00    -0.029 C 
HETATM   30  C1  UNL     1      17.565  -2.493  53.545  1.00  0.00     0.036 C 
ENDBRANCH   1  28
TORSDOF 5
ENDMDL
MODEL 4
REMARK VINA RESULT:      -7.2      2.395      3.957
REMARK  5 active torsions:
REMARK  status: ('A' for Active; 'I' for Inactive)
REMARK    1  A    between atoms: C3_3  and  C4_4 
REMARK    2  A    between atoms: C5_6  and  N2_7 
REMARK    3  A    between atoms: N4_13  and  C10_14 
REMARK    4  A    between atoms: C11_15  and  C12_16 
REMARK    5  A    between atoms: C17_21  and  N5_22 
ROOT
HETATM    1  C4  UNL     1      24.137   6.122  50.222  1.00  0.00     0.089 A 
HETATM    2  N1  UNL     1      25.261   5.878  49.516  1.00  0.00    -0.062 NA
HETATM    3  C5  UNL     1      25.978   4.736  49.713  1.00  0.00     0.722 A 
HETATM    4  N3  UNL     1      25.566   3.832  50.623  1.00  0.00    -0.044 NA
HETATM    5  C6  UNL     1      24.449   4.025  51.358  1.00  0.00     0.166 A 
HETATM    6  C7  UNL     1      23.730   5.186  51.150  1.00  0.00     0.042 A 
HETATM    7  C8  UNL     1      22.635   5.172  52.001  1.00  0.00     0.035 A 
HETATM    8  C9  UNL     1      22.731   3.984  52.707  1.00  0.00     0.100 A 
HETATM    9  N4  UNL     1      23.817   3.292  52.324  1.00  0.00    -0.308 N 
ENDROOT
BRANCH   9  10
HETATM   10  C10 UNL     1      24.328   2.043  52.752  1.00  0.00     0.029 C 
HETATM   11  C11 UNL     1      23.756   0.827  52.649  1.00  0.00    -0.019 C 
HETATM   12  C19 UNL     1      24.670  -0.169  53.261  1.00  0.00     0.068 C 
HETATM   13  C20 UNL     1      26.037  -0.162  52.707  1.00  0.00    -0.026 C 
HETATM   14  C21 UNL     1      26.573   1.050  52.778  1.00  0.00    -0.024 C 
HETATM   15  C22 UNL     1      25.684   2.108  53.388  1.00  0.00     0.085 C 
BRANCH  11  16
HETATM   16  C12 UNL     1      22.450   0.763  52.026  1.00  0.00    -0.001 A 
HETATM   17  C13 UNL     1      22.363   0.987  50.667  1.00  0.00     0.014 A 
HETATM   18  C14 UNL     1      21.177   0.946  49.966  1.00  0.00     0.001 A 
HETATM   19  C15 UNL     1      19.999   0.662  50.669  1.00  0.00     0.002 A 
HETATM   20  C16 UNL     1      20.077   0.438  52.023  1.00  0.00     0.030 A 
HETATM   21  C17 UNL     1      21.278   0.485  52.697  1.00  0.00     0.038 A 
BRANCH  21  22
HETATM   22  N5  UNL     1      21.295   0.219  54.089  1.00  0.00    -0.394 N 
HETATM   23  C18 UNL     1      21.262  -1.143  54.582  1.00  0.00     0.146 C 
HETATM   24  H14 UNL     1      21.337   0.909  54.866  1.00  0.00     0.159 HD
ENDBRANCH  21  22
ENDBRANCH  11  16
ENDBRANCH   9  10
BRANCH   3  25
HETATM   25  N2  UNL     1      27.164   4.493  48.958  1.00  0.00    -0.231 N 
HETATM   26  H6  UNL     1      27.336   4.866  47.995  1.00  0.00     0.174 HD
HETATM   27  H7  UNL     1      27.899   3.905  49.407  1.00  0.00     0.174 HD
ENDBRANCH   3  25
BRANCH   1  28
HETATM   28  C3  UNL     1      23.424   7.369  49.959  1.00  0.00     0.029 C 
HETATM   29  C2  UNL     1      23.754   8.032  48.856  1.00  0.00    -0.029 C 
HETATM   30  C1  UNL     1      23.100   9.321  48.473  1.00  0.00     0.036 C 
ENDBRANCH   1  28
TORSDOF 5
ENDMDL
MODEL 5
REMARK VINA RESULT:      -7.2      2.222      5.677
REMARK  5 active torsions:
REMARK  status: ('A' for Active; 'I' for Inactive)
REMARK    1  A    between atoms: C3_3  and  C4_4 
REMARK    2  A    between atoms: C5_6  and  N2_7 
REMARK    3  A    between atoms: N4_13  and  C10_14 
REMARK    4  A    between atoms: C11_15  and  C12_16 
REMARK    5  A    between atoms: C17_21  and  N5_22 
ROOT
HETATM    1  C4  UNL     1      25.908   1.065  52.831  1.00  0.00     0.089 A 
HETATM    2  N1  UNL     1      24.813   0.561  53.436  1.00  0.00    -0.062 NA
HETATM    3  C5  UNL     1      23.565   0.803  52.944  1.00  0.00     0.722 A 
HETATM    4  N3  UNL     1      23.415   1.556  51.836  1.00  0.00    -0.044 NA
HETATM    5  C6  UNL     1      24.477   2.086  51.189  1.00  0.00     0.166 A 
HETATM    6  C7  UNL     1      25.735   1.833  51.698  1.00  0.00     0.042 A 
HETATM    7  C8  UNL     1      26.663   2.466  50.884  1.00  0.00     0.035 A 
HETATM    8  C9  UNL     1      25.922   3.091  49.895  1.00  0.00     0.100 A 
HETATM    9  N4  UNL     1      24.609   2.865  50.074  1.00  0.00    -0.308 N 
ENDROOT
BRANCH   9  10
HETATM   10  C10 UNL     1      23.479   3.289  49.333  1.00  0.00     0.029 C 
HETATM   11  C11 UNL     1      23.112   4.545  49.013  1.00  0.00    -0.019 C 
HETATM   12  C19 UNL     1      21.844   4.477  48.248  1.00  0.00     0.068 C 
HETATM   13  C20 UNL     1      21.895   3.605  47.059  1.00  0.00    -0.026 C 
HETATM   14  C21 UNL     1      22.295   2.382  47.382  1.00  0.00    -0.024 C 
HETATM   15  C22 UNL     1      22.599   2.175  48.847  1.00  0.00     0.085 C 
BRANCH  11  16
HETATM   16  C12 UNL     1      23.968   5.619  49.475  1.00  0.00    -0.001 A 
HETATM   17  C13 UNL     1      24.964   6.068  48.632  1.00  0.00     0.014 A 
HETATM   18  C14 UNL     1      25.832   7.088  48.960  1.00  0.00     0.001 A 
HETATM   19  C15 UNL     1      25.696   7.698  50.214  1.00  0.00     0.002 A 
HETATM   20  C16 UNL     1      24.706   7.256  51.059  1.00  0.00     0.030 A 
HETATM   21  C17 UNL     1      23.852   6.235  50.702  1.00  0.00     0.038 A 
BRANCH  21  22
HETATM   22  N5  UNL     1      22.835   5.843  51.609  1.00  0.00    -0.394 N 
HETATM   23  C18 UNL     1      23.142   5.000  52.746  1.00  0.00     0.146 C 
HETATM   24  H14 UNL     1      21.827   6.095  51.578  1.00  0.00     0.159 HD
ENDBRANCH  21  22
ENDBRANCH  11  16
ENDBRANCH   9  10
BRANCH   3  25
HETATM   25  N2  UNL     1      22.417   0.263  53.595  1.00  0.00    -0.231 N 
HETATM   26  H6  UNL     1      22.103   0.536  54.556  1.00  0.00     0.174 HD
HETATM   27  H7  UNL     1      21.864  -0.448  53.069  1.00  0.00     0.174 HD
ENDBRANCH   3  25
BRANCH   1  28
HETATM   28  C3  UNL     1      27.210   0.764  53.419  1.00  0.00     0.029 C 
HETATM   29  C2  UNL     1      27.741  -0.421  53.139  1.00  0.00    -0.029 C 
HETATM   30  C1  UNL     1      29.067  -0.851  53.679  1.00  0.00     0.036 C 
ENDBRANCH   1  28
TORSDOF 5
ENDMDL
MODEL 6
REMARK VINA RESULT:      -7.1      3.525      5.667
REMARK  5 active torsions:
REMARK  status: ('A' for Active; 'I' for Inactive)
REMARK    1  A    between atoms: C3_3  and  C4_4 
REMARK    2  A    between atoms: C5_6  and  N2_7 
REMARK    3  A    between atoms: N4_13  and  C10_14 
REMARK    4  A    between atoms: C11_15  and  C12_16 
REMARK    5  A    between atoms: C17_21  and  N5_22 
ROOT
HETATM    1  C4  UNL     1      26.366   0.122  53.447  1.00  0.00     0.089 A 
HETATM    2  N1  UNL     1      26.074  -0.682  54.490  1.00  0.00    -0.062 NA
HETATM    3  C5  UNL     1      24.782  -0.918  54.854  1.00  0.00     0.722 A 
HETATM    4  N3  UNL     1      23.775  -0.343  54.167  1.00  0.00    -0.044 NA
HETATM    5  C6  UNL     1      24.009   0.471  53.114  1.00  0.00     0.166 A 
HETATM    6  C7  UNL     1      25.323   0.702  52.756  1.00  0.00     0.042 A 
HETATM    7  C8  UNL     1      25.326   1.556  51.662  1.00  0.00     0.035 A 
HETATM    8  C9  UNL     1      23.992   1.816  51.393  1.00  0.00     0.100 A 
HETATM    9  N4  UNL     1      23.199   1.168  52.261  1.00  0.00    -0.308 N 
ENDROOT
BRANCH   9  10
HETATM   10  C10 UNL     1      21.789   1.124  52.386  1.00  0.00     0.029 C 
HETATM   11  C11 UNL     1      20.858   1.521  51.496  1.00  0.00    -0.019 C 
HETATM   12  C19 UNL     1      19.519   1.294  52.093  1.00  0.00     0.068 C 
HETATM   13  C20 UNL     1      19.281  -0.089  52.549  1.00  0.00    -0.026 C 
HETATM   14  C21 UNL     1      20.226  -0.481  53.393  1.00  0.00    -0.024 C 
HETATM   15  C22 UNL     1      21.294   0.548  53.680  1.00  0.00     0.085 C 
BRANCH  11  16
HETATM   16  C12 UNL     1      21.336   2.068  50.243  1.00  0.00    -0.001 A 
HETATM   17  C13 UNL     1      21.653   1.191  49.226  1.00  0.00     0.014 A 
HETATM   18  C14 UNL     1      22.109   1.596  47.990  1.00  0.00     0.001 A 
HETATM   19  C15 UNL     1      22.260   2.969  47.755  1.00  0.00     0.002 A 
HETATM   20  C16 UNL     1      21.946   3.849  48.763  1.00  0.00     0.030 A 
HETATM   21  C17 UNL     1      21.492   3.414  49.988  1.00  0.00     0.038 A 
BRANCH  21  22
HETATM   22  N5  UNL     1      21.161   4.374  50.978  1.00  0.00    -0.394 N 
HETATM   23  C18 UNL     1      22.186   4.941  51.831  1.00  0.00     0.146 C 
HETATM   24  H14 UNL     1      20.222   4.764  51.194  1.00  0.00     0.159 HD
ENDBRANCH  21  22
ENDBRANCH  11  16
ENDBRANCH   9  10
BRANCH   3  25
HETATM   25  N2  UNL     1      24.490  -1.772  55.959  1.00  0.00    -0.231 N 
HETATM   26  H6  UNL     1      23.974  -1.468  56.818  1.00  0.00     0.174 HD
HETATM   27  H7  UNL     1      24.817  -2.760  55.893  1.00  0.00     0.174 HD
ENDBRANCH   3  25
BRANCH   1  28
HETATM   28  C3  UNL     1      27.773   0.330  53.120  1.00  0.00     0.029 C 
HETATM   29  C2  UNL     1      28.656  -0.459  53.722  1.00  0.00    -0.029 C 
HETATM   30  C1  UNL     1      30.127  -0.349  53.475  1.00  0.00     0.036 C 
ENDBRANCH   1  28
TORSDOF 5
ENDMDL
MODEL 7
REMARK VINA RESULT:      -6.8      1.764      2.598
REMARK  5 active torsions:
REMARK  status: ('A' for Active; 'I' for Inactive)
REMARK    1  A    between atoms: C3_3  and  C4_4 
REMARK    2  A    between atoms: C5_6  and  N2_7 
REMARK    3  A    between atoms: N4_13  and  C10_14 
REMARK    4  A    between atoms: C11_15  and  C12_16 
REMARK    5  A    between atoms: C17_21  and  N5_22 
ROOT
HETATM    1  C4  UNL     1      24.957   7.216  49.429  1.00  0.00     0.089 A 
HETATM    2  N1  UNL     1      26.102   6.662  48.978  1.00  0.00    -0.062 NA
HETATM    3  C5  UNL     1      26.431   5.378  49.295  1.00  0.00     0.722 A 
HETATM    4  N3  UNL     1      25.607   4.644  50.069  1.00  0.00    -0.044 NA
HETATM    5  C6  UNL     1      24.449   5.149  50.548  1.00  0.00     0.166 A 
HETATM    6  C7  UNL     1      24.127   6.451  50.220  1.00  0.00     0.042 A 
HETATM    7  C8  UNL     1      22.909   6.754  50.812  1.00  0.00     0.035 A 
HETATM    8  C9  UNL     1      22.531   5.607  51.490  1.00  0.00     0.100 A 
HETATM    9  N4  UNL     1      23.452   4.641  51.334  1.00  0.00    -0.308 N 
ENDROOT
BRANCH   9  10
HETATM   10  C10 UNL     1      23.508   3.315  51.828  1.00  0.00     0.029 C 
HETATM   11  C11 UNL     1      22.965   2.201  51.299  1.00  0.00    -0.019 C 
HETATM   12  C19 UNL     1      23.280   1.061  52.193  1.00  0.00     0.068 C 
HETATM   13  C20 UNL     1      24.718   0.884  52.473  1.00  0.00    -0.026 C 
HETATM   14  C21 UNL     1      25.249   2.000  52.957  1.00  0.00    -0.024 C 
HETATM   15  C22 UNL     1      24.287   3.156  53.101  1.00  0.00     0.085 C 
BRANCH  11  16
HETATM   16  C12 UNL     1      22.221   2.354  50.065  1.00  0.00    -0.001 A 
HETATM   17  C13 UNL     1      22.919   2.328  48.875  1.00  0.00     0.014 A 
HETATM   18  C14 UNL     1      22.318   2.456  47.641  1.00  0.00     0.001 A 
HETATM   19  C15 UNL     1      20.928   2.621  47.593  1.00  0.00     0.002 A 
HETATM   20  C16 UNL     1      20.226   2.648  48.774  1.00  0.00     0.030 A 
HETATM   21  C17 UNL     1      20.854   2.517  49.993  1.00  0.00     0.038 A 
BRANCH  21  22
HETATM   22  N5  UNL     1      20.071   2.527  51.174  1.00  0.00    -0.394 N 
HETATM   23  C18 UNL     1      19.302   3.699  51.543  1.00  0.00     0.146 C 
HETATM   24  H14 UNL     1      19.953   1.758  51.864  1.00  0.00     0.159 HD
ENDBRANCH  21  22
ENDBRANCH  11  16
ENDBRANCH   9  10
BRANCH   3  25
HETATM   25  N2  UNL     1      27.645   4.806  48.810  1.00  0.00    -0.231 N 
HETATM   26  H6  UNL     1      28.437   5.359  48.406  1.00  0.00     0.174 HD
HETATM   27  H7  UNL     1      27.736   3.768  48.868  1.00  0.00     0.174 HD
ENDBRANCH   3  25
BRANCH   1  28
HETATM   28  C3  UNL     1      24.674   8.598  49.050  1.00  0.00     0.029 C 
HETATM   29  C2  UNL     1      25.708   9.348  48.687  1.00  0.00    -0.029 C 
HETATM   30  C1  UNL     1      25.554  10.778  48.279  1.00  0.00     0.036 C 
ENDBRANCH   1  28
TORSDOF 5
ENDMDL
MODEL 8
REMARK VINA RESULT:      -6.7      5.348     10.665
REMARK  5 active torsions:
REMARK  status: ('A' for Active; 'I' for Inactive)
REMARK    1  A    between atoms: C3_3  and  C4_4 
REMARK    2  A    between atoms: C5_6  and  N2_7 
REMARK    3  A    between atoms: N4_13  and  C10_14 
REMARK    4  A    between atoms: C11_15  and  C12_16 
REMARK    5  A    between atoms: C17_21  and  N5_22 
ROOT
HETATM    1  C4  UNL     1      28.553   7.201  47.586  1.00  0.00     0.089 A 
HETATM    2  N1  UNL     1      28.067   7.618  46.398  1.00  0.00    -0.062 NA
HETATM    3  C5  UNL     1      28.865   8.269  45.504  1.00  0.00     0.722 A 
HETATM    4  N3  UNL     1      30.158   8.503  45.803  1.00  0.00    -0.044 NA
HETATM    5  C6  UNL     1      30.696   8.108  46.978  1.00  0.00     0.166 A 
HETATM    6  C7  UNL     1      29.878   7.449  47.875  1.00  0.00     0.042 A 
HETATM    7  C8  UNL     1      30.633   7.140  48.997  1.00  0.00     0.035 A 
HETATM    8  C9  UNL     1      31.902   7.630  48.736  1.00  0.00     0.100 A 
HETATM    9  N4  UNL     1      31.945   8.211  47.526  1.00  0.00    -0.308 N 
ENDROOT
BRANCH   9  10
HETATM   10  C10 UNL     1      33.003   8.845  46.830  1.00  0.00     0.029 C 
HETATM   11  C11 UNL     1      33.930   8.285  46.029  1.00  0.00    -0.019 C 
HETATM   12  C19 UNL     1      34.838   9.356  45.552  1.00  0.00     0.068 C 
HETATM   13  C20 UNL     1      34.156  10.484  44.889  1.00  0.00    -0.026 C 
HETATM   14  C21 UNL     1      33.219  11.000  45.673  1.00  0.00    -0.024 C 
HETATM   15  C22 UNL     1      33.072  10.332  47.020  1.00  0.00     0.085 C 
BRANCH  11  16
HETATM   16  C12 UNL     1      33.857   6.851  45.840  1.00  0.00    -0.001 A 
HETATM   17  C13 UNL     1      33.157   6.371  44.752  1.00  0.00     0.014 A 
HETATM   18  C14 UNL     1      33.026   5.028  44.467  1.00  0.00     0.001 A 
HETATM   19  C15 UNL     1      33.635   4.104  45.325  1.00  0.00     0.002 A 
HETATM   20  C16 UNL     1      34.335   4.575  46.411  1.00  0.00     0.030 A 
HETATM   21  C17 UNL     1      34.449   5.923  46.670  1.00  0.00     0.038 A 
BRANCH  21  22
HETATM   22  N5  UNL     1      35.207   6.345  47.791  1.00  0.00    -0.394 N 
HETATM   23  C18 UNL     1      35.198   5.578  49.021  1.00  0.00     0.146 C 
HETATM   24  H14 UNL     1      35.818   7.183  47.865  1.00  0.00     0.159 HD
ENDBRANCH  21  22
ENDBRANCH  11  16
ENDBRANCH   9  10
BRANCH   3  25
HETATM   25  N2  UNL     1      28.336   8.703  44.252  1.00  0.00    -0.231 N 
HETATM   26  H6  UNL     1      28.698   8.391  43.320  1.00  0.00     0.174 HD
HETATM   27  H7  UNL     1      27.539   9.375  44.282  1.00  0.00     0.174 HD
ENDBRANCH   3  25
BRANCH   1  28
HETATM   28  C3  UNL     1      27.637   6.514  48.493  1.00  0.00     0.029 C 
HETATM   29  C2  UNL     1      27.656   5.186  48.478  1.00  0.00    -0.029 C 
HETATM   30  C1  UNL     1      26.768   4.364  49.355  1.00  0.00     0.036 C 
ENDBRANCH   1  28
TORSDOF 5
ENDMDL
MODEL 9
REMARK VINA RESULT:      -6.7      2.251      4.855
REMARK  5 active torsions:
REMARK  status: ('A' for Active; 'I' for Inactive)
REMARK    1  A    between atoms: C3_3  and  C4_4 
REMARK    2  A    between atoms: C5_6  and  N2_7 
REMARK    3  A    between atoms: N4_13  and  C10_14 
REMARK    4  A    between atoms: C11_15  and  C12_16 
REMARK    5  A    between atoms: C17_21  and  N5_22 
ROOT
HETATM    1  C4  UNL     1      26.343   2.725  51.774  1.00  0.00     0.089 A 
HETATM    2  N1  UNL     1      27.128   3.082  50.735  1.00  0.00    -0.062 NA
HETATM    3  C5  UNL     1      26.685   3.958  49.790  1.00  0.00     0.722 A 
HETATM    4  N3  UNL     1      25.447   4.481  49.886  1.00  0.00    -0.044 NA
HETATM    5  C6  UNL     1      24.619   4.159  50.904  1.00  0.00     0.166 A 
HETATM    6  C7  UNL     1      25.079   3.270  51.856  1.00  0.00     0.042 A 
HETATM    7  C8  UNL     1      24.075   3.089  52.796  1.00  0.00     0.035 A 
HETATM    8  C9  UNL     1      23.024   3.887  52.373  1.00  0.00     0.100 A 
HETATM    9  N4  UNL     1      23.346   4.531  51.239  1.00  0.00    -0.308 N 
ENDROOT
BRANCH   9  10
HETATM   10  C10 UNL     1      22.612   5.442  50.441  1.00  0.00     0.029 C 
HETATM   11  C11 UNL     1      21.763   5.172  49.430  1.00  0.00    -0.019 C 
HETATM   12  C19 UNL     1      21.259   6.458  48.891  1.00  0.00     0.068 C 
HETATM   13  C20 UNL     1      20.641   7.341  49.898  1.00  0.00    -0.026 C 
HETATM   14  C21 UNL     1      21.473   7.567  50.907  1.00  0.00    -0.024 C 
HETATM   15  C22 UNL     1      22.817   6.886  50.793  1.00  0.00     0.085 C 
BRANCH  11  16
HETATM   16  C12 UNL     1      21.559   3.776  49.096  1.00  0.00    -0.001 A 
HETATM   17  C13 UNL     1      22.421   3.188  48.193  1.00  0.00     0.014 A 
HETATM   18  C14 UNL     1      22.328   1.869  47.806  1.00  0.00     0.001 A 
HETATM   19  C15 UNL     1      21.307   1.084  48.357  1.00  0.00     0.002 A 
HETATM   20  C16 UNL     1      20.445   1.663  49.258  1.00  0.00     0.030 A 
HETATM   21  C17 UNL     1      20.562   2.985  49.627  1.00  0.00     0.038 A 
BRANCH  21  22
HETATM   22  N5  UNL     1      19.657   3.516  50.580  1.00  0.00    -0.394 N 
HETATM   23  C18 UNL     1      19.392   2.813  51.819  1.00  0.00     0.146 C 
HETATM   24  H14 UNL     1      19.120   4.404  50.519  1.00  0.00     0.159 HD
ENDBRANCH  21  22
ENDBRANCH  11  16
ENDBRANCH   9  10
BRANCH   3  25
HETATM   25  N2  UNL     1      27.528   4.325  48.698  1.00  0.00    -0.231 N 
HETATM   26  H6  UNL     1      28.145   5.170  48.689  1.00  0.00     0.174 HD
HETATM   27  H7  UNL     1      27.517   3.701  47.862  1.00  0.00     0.174 HD
ENDBRANCH   3  25
BRANCH   1  28
HETATM   28  C3  UNL     1      26.886   1.780  52.744  1.00  0.00     0.029 C 
HETATM   29  C2  UNL     1      26.915   0.500  52.390  1.00  0.00    -0.029 C 
HETATM   30  C1  UNL     1      27.444  -0.569  53.293  1.00  0.00     0.036 C 
ENDBRANCH   1  28
TORSDOF 5
ENDMDL
