MODEL 1
REMARK VINA RESULT:      -8.2      0.000      0.000
REMARK  4 active torsions:
REMARK  status: ('A' for Active; 'I' for Inactive)
REMARK    1  A    between atoms: N1_1  and  C1_2 
REMARK    2  A    between atoms: C1_2  and  N5_21 
REMARK    3  A    between atoms: C2_3  and  N2_4 
REMARK    4  A    between atoms: N5_21  and  C16_22 
ROOT
HETATM    1  N2  UNL     1      22.346   0.701  51.286  1.00  0.00    -0.266 NA
HETATM    2  C3  UNL     1      22.099   1.919  50.898  1.00  0.00     0.017 C 
HETATM    3  C4  UNL     1      22.275   1.964  49.386  1.00  0.00     0.092 C 
HETATM    4  C5  UNL     1      23.110   3.186  49.077  1.00  0.00    -0.037 C 
HETATM    5  C6  UNL     1      22.419   4.187  48.556  1.00  0.00     0.120 C 
HETATM    6  N3  UNL     1      22.932   5.401  48.198  1.00  0.00    -0.277 NA
HETATM    7  C7  UNL     1      22.919   6.218  47.308  1.00  0.00     0.089 C 
HETATM    8  C8  UNL     1      23.823   7.231  47.877  1.00  0.00     0.051 C 
HETATM    9  C9  UNL     1      23.169   8.198  48.797  1.00  0.00     0.036 C 
HETATM   10  P1  UNL     1      22.359   7.574  50.290  1.00  0.00    -0.129 P 
HETATM   11  C10 UNL     1      23.181   6.219  51.186  1.00  0.00     0.032 C 
HETATM   12  C11 UNL     1      22.135   5.249  51.692  1.00  0.00     0.014 C 
HETATM   13  C12 UNL     1      22.696   3.972  52.240  1.00  0.00     0.031 C 
HETATM   14  C13 UNL     1      24.058   3.678  51.709  1.00  0.00     0.088 C 
HETATM   15  N4  UNL     1      24.762   3.239  50.736  1.00  0.00    -0.301 NA
HETATM   16  C14 UNL     1      24.594   3.317  49.311  1.00  0.00     0.184 C 
HETATM   17  C15 UNL     1      21.732   2.861  51.997  1.00  0.00     0.065 C 
HETATM   18  H12 UNL     1      20.912   7.369  50.129  1.00  0.00     0.057 HD
ENDROOT
BRANCH   1  19
HETATM   19  C2  UNL     1      22.294   0.246  52.607  1.00  0.00     0.164 C 
HETATM   20  C1  UNL     1      22.813  -0.214  53.704  1.00  0.00     0.117 C 
BRANCH  20  21
HETATM   21  N1  UNL     1      21.938  -0.479  54.820  1.00  0.00    -0.384 N 
HETATM   22  H1  UNL     1      20.910  -0.302  54.714  1.00  0.00     0.157 HD
HETATM   23  H2  UNL     1      22.412  -0.843  55.696  1.00  0.00     0.157 HD
ENDBRANCH  20  21
BRANCH  20  24
HETATM   24  N5  UNL     1      24.204  -0.471  53.851  1.00  0.00    -0.342 N 
HETATM   25  H23 UNL     1      24.344  -1.455  54.162  1.00  0.00     0.167 HD
BRANCH  24  26
HETATM   26  C16 UNL     1      25.486   0.133  53.726  1.00  0.00     0.035 A 
HETATM   27  C17 UNL     1      25.730   1.480  53.763  1.00  0.00     0.029 A 
HETATM   28  C18 UNL     1      27.029   1.902  53.626  1.00  0.00     0.004 A 
HETATM   29  C19 UNL     1      28.045   0.987  53.458  1.00  0.00     0.024 A 
HETATM   30  C20 UNL     1      27.817  -0.391  53.417  1.00  0.00     0.036 A 
HETATM   31 CL1  UNL     1      29.160  -1.498  53.200  1.00  0.00    -0.084 Cl
HETATM   32  C21 UNL     1      26.497  -0.784  53.558  1.00  0.00     0.053 A 
ENDBRANCH  24  26
ENDBRANCH  20  24
ENDBRANCH   1  19
TORSDOF 4
ENDMDL
MODEL 2
REMARK VINA RESULT:      -8.1      3.165      4.283
REMARK  4 active torsions:
REMARK  status: ('A' for Active; 'I' for Inactive)
REMARK    1  A    between atoms: N1_1  and  C1_2 
REMARK    2  A    between atoms: C1_2  and  N5_21 
REMARK    3  A    between atoms: C2_3  and  N2_4 
REMARK    4  A    between atoms: N5_21  and  C16_22 
ROOT
HETATM    1  N2  UNL     1      23.261   1.272  51.895  1.00  0.00    -0.266 NA
HETATM    2  C3  UNL     1      22.183   1.263  51.165  1.00  0.00     0.017 C 
HETATM    3  C4  UNL     1      22.286   2.418  50.178  1.00  0.00     0.092 C 
HETATM    4  C5  UNL     1      20.959   3.142  50.209  1.00  0.00    -0.037 C 
HETATM    5  C6  UNL     1      20.203   2.916  49.146  1.00  0.00     0.120 C 
HETATM    6  N3  UNL     1      18.960   3.440  48.933  1.00  0.00    -0.277 NA
HETATM    7  C7  UNL     1      18.280   3.974  48.089  1.00  0.00     0.089 C 
HETATM    8  C8  UNL     1      17.033   4.165  48.847  1.00  0.00     0.051 C 
HETATM    9  C9  UNL     1      16.127   2.987  48.855  1.00  0.00     0.036 C 
HETATM   10  P1  UNL     1      16.725   1.428  49.553  1.00  0.00    -0.129 P 
HETATM   11  C10 UNL     1      17.748   1.520  51.056  1.00  0.00     0.032 C 
HETATM   12  C11 UNL     1      18.854   0.490  50.971  1.00  0.00     0.014 C 
HETATM   13  C12 UNL     1      19.902   0.623  52.035  1.00  0.00     0.031 C 
HETATM   14  C13 UNL     1      19.954   1.999  52.607  1.00  0.00     0.088 C 
HETATM   15  N4  UNL     1      20.345   3.208  52.468  1.00  0.00    -0.301 NA
HETATM   16  C14 UNL     1      20.480   4.051  51.312  1.00  0.00     0.184 C 
HETATM   17  C15 UNL     1      21.217   0.174  51.495  1.00  0.00     0.065 C 
HETATM   18  H12 UNL     1      17.258   0.501  48.545  1.00  0.00     0.057 HD
ENDROOT
BRANCH   1  19
HETATM   19  C2  UNL     1      23.552   0.369  52.921  1.00  0.00     0.164 C 
HETATM   20  C1  UNL     1      24.290  -0.511  53.526  1.00  0.00     0.117 C 
BRANCH  20  21
HETATM   21  N1  UNL     1      23.805  -1.082  54.759  1.00  0.00    -0.384 N 
HETATM   22  H1  UNL     1      23.486  -2.081  54.766  1.00  0.00     0.157 HD
HETATM   23  H2  UNL     1      23.806  -0.432  55.596  1.00  0.00     0.157 HD
ENDBRANCH  20  21
BRANCH  20  24
HETATM   24  N5  UNL     1      25.552  -0.936  53.027  1.00  0.00    -0.342 N 
HETATM   25  H23 UNL     1      25.407  -1.636  52.270  1.00  0.00     0.167 HD
BRANCH  24  26
HETATM   26  C16 UNL     1      26.953  -0.750  53.186  1.00  0.00     0.035 A 
HETATM   27  C17 UNL     1      27.891  -1.746  53.146  1.00  0.00     0.029 A 
HETATM   28  C18 UNL     1      29.207  -1.399  53.319  1.00  0.00     0.004 A 
HETATM   29  C19 UNL     1      29.558  -0.083  53.525  1.00  0.00     0.024 A 
HETATM   30  C20 UNL     1      28.618   0.949  53.569  1.00  0.00     0.036 A 
HETATM   31 CL1  UNL     1      29.138   2.602  53.836  1.00  0.00    -0.084 Cl
HETATM   32  C21 UNL     1      27.299   0.566  53.392  1.00  0.00     0.053 A 
ENDBRANCH  24  26
ENDBRANCH  20  24
ENDBRANCH   1  19
TORSDOF 4
ENDMDL
MODEL 3
REMARK VINA RESULT:      -8.1      2.584      4.387
REMARK  4 active torsions:
REMARK  status: ('A' for Active; 'I' for Inactive)
REMARK    1  A    between atoms: N1_1  and  C1_2 
REMARK    2  A    between atoms: C1_2  and  N5_21 
REMARK    3  A    between atoms: C2_3  and  N2_4 
REMARK    4  A    between atoms: N5_21  and  C16_22 
ROOT
HETATM    1  N2  UNL     1      24.541   2.893  52.986  1.00  0.00    -0.266 NA
HETATM    2  C3  UNL     1      24.253   3.788  52.086  1.00  0.00     0.017 C 
HETATM    3  C4  UNL     1      23.380   4.844  52.750  1.00  0.00     0.092 C 
HETATM    4  C5  UNL     1      22.215   5.099  51.820  1.00  0.00    -0.037 C 
HETATM    5  C6  UNL     1      22.294   6.248  51.169  1.00  0.00     0.120 C 
HETATM    6  N3  UNL     1      21.380   6.710  50.266  1.00  0.00    -0.277 NA
HETATM    7  C7  UNL     1      20.761   7.701  49.956  1.00  0.00     0.089 C 
HETATM    8  C8  UNL     1      20.006   7.181  48.803  1.00  0.00     0.051 C 
HETATM    9  C9  UNL     1      20.743   7.217  47.513  1.00  0.00     0.036 C 
HETATM   10  P1  UNL     1      22.291   6.292  47.364  1.00  0.00    -0.129 P 
HETATM   11  C10 UNL     1      22.370   4.655  48.156  1.00  0.00     0.032 C 
HETATM   12  C11 UNL     1      23.740   4.462  48.769  1.00  0.00     0.014 C 
HETATM   13  C12 UNL     1      23.855   3.255  49.651  1.00  0.00     0.031 C 
HETATM   14  C13 UNL     1      22.530   2.808  50.171  1.00  0.00     0.088 C 
HETATM   15  N4  UNL     1      21.591   2.989  51.020  1.00  0.00    -0.301 NA
HETATM   16  C14 UNL     1      21.041   4.177  51.611  1.00  0.00     0.184 C 
HETATM   17  C15 UNL     1      24.838   3.526  50.737  1.00  0.00     0.065 C 
HETATM   18  H12 UNL     1      23.488   7.111  47.605  1.00  0.00     0.057 HD
ENDROOT
BRANCH   1  19
HETATM   19  C2  UNL     1      25.326   1.756  52.775  1.00  0.00     0.164 C 
HETATM   20  C1  UNL     1      25.539   0.475  52.740  1.00  0.00     0.117 C 
BRANCH  20  21
HETATM   21  N1  UNL     1      26.849   0.008  52.356  1.00  0.00    -0.384 N 
HETATM   22  H1  UNL     1      27.192  -0.910  52.730  1.00  0.00     0.157 HD
HETATM   23  H2  UNL     1      27.389   0.645  51.703  1.00  0.00     0.157 HD
ENDBRANCH  20  21
BRANCH  20  24
HETATM   24  N5  UNL     1      24.541  -0.483  53.064  1.00  0.00    -0.342 N 
HETATM   25  H23 UNL     1      24.946  -1.441  53.004  1.00  0.00     0.167 HD
BRANCH  24  26
HETATM   26  C16 UNL     1      23.176  -0.612  53.445  1.00  0.00     0.035 A 
HETATM   27  C17 UNL     1      22.736  -1.068  54.659  1.00  0.00     0.029 A 
HETATM   28  C18 UNL     1      21.381  -1.132  54.869  1.00  0.00     0.004 A 
HETATM   29  C19 UNL     1      20.504  -0.745  53.879  1.00  0.00     0.024 A 
HETATM   30  C20 UNL     1      20.932  -0.276  52.635  1.00  0.00     0.036 A 
HETATM   31 CL1  UNL     1      19.757   0.200  51.423  1.00  0.00    -0.084 Cl
HETATM   32  C21 UNL     1      22.304  -0.224  52.454  1.00  0.00     0.053 A 
ENDBRANCH  24  26
ENDBRANCH  20  24
ENDBRANCH   1  19
TORSDOF 4
ENDMDL
MODEL 4
REMARK VINA RESULT:      -7.8      2.032      3.187
REMARK  4 active torsions:
REMARK  status: ('A' for Active; 'I' for Inactive)
REMARK    1  A    between atoms: N1_1  and  C1_2 
REMARK    2  A    between atoms: C1_2  and  N5_21 
REMARK    3  A    between atoms: C2_3  and  N2_4 
REMARK    4  A    between atoms: N5_21  and  C16_22 
ROOT
HETATM    1  N2  UNL     1      25.237   2.928  51.015  1.00  0.00    -0.266 NA
HETATM    2  C3  UNL     1      25.055   3.653  49.949  1.00  0.00     0.017 C 
HETATM    3  C4  UNL     1      26.306   4.497  49.748  1.00  0.00     0.092 C 
HETATM    4  C5  UNL     1      25.844   5.911  49.474  1.00  0.00    -0.037 C 
HETATM    5  C6  UNL     1      25.963   6.274  48.207  1.00  0.00     0.120 C 
HETATM    6  N3  UNL     1      25.610   7.491  47.697  1.00  0.00    -0.277 NA
HETATM    7  C7  UNL     1      26.002   8.371  46.968  1.00  0.00     0.089 C 
HETATM    8  C8  UNL     1      24.865   9.302  47.054  1.00  0.00     0.051 C 
HETATM    9  C9  UNL     1      23.748   9.002  46.120  1.00  0.00     0.036 C 
HETATM   10  P1  UNL     1      22.905   7.406  46.247  1.00  0.00    -0.129 P 
HETATM   11  C10 UNL     1      22.600   6.749  47.917  1.00  0.00     0.032 C 
HETATM   12  C11 UNL     1      22.816   5.251  47.912  1.00  0.00     0.014 C 
HETATM   13  C12 UNL     1      22.826   4.627  49.274  1.00  0.00     0.031 C 
HETATM   14  C13 UNL     1      23.157   5.611  50.345  1.00  0.00     0.088 C 
HETATM   15  N4  UNL     1      24.065   6.275  50.953  1.00  0.00    -0.301 NA
HETATM   16  C14 UNL     1      25.292   6.868  50.500  1.00  0.00     0.184 C 
HETATM   17  C15 UNL     1      23.740   3.449  49.273  1.00  0.00     0.065 C 
HETATM   18  H12 UNL     1      23.420   6.396  45.312  1.00  0.00     0.057 HD
ENDROOT
BRANCH   1  19
HETATM   19  C2  UNL     1      24.318   2.016  51.540  1.00  0.00     0.164 C 
HETATM   20  C1  UNL     1      23.964   1.014  52.287  1.00  0.00     0.117 C 
BRANCH  20  21
HETATM   21  N1  UNL     1      22.581   0.602  52.275  1.00  0.00    -0.384 N 
HETATM   22  H1  UNL     1      22.146   0.254  53.163  1.00  0.00     0.157 HD
HETATM   23  H2  UNL     1      22.088   0.683  51.340  1.00  0.00     0.157 HD
ENDBRANCH  20  21
BRANCH  20  24
HETATM   24  N5  UNL     1      24.880   0.305  53.112  1.00  0.00    -0.342 N 
HETATM   25  H23 UNL     1      24.369  -0.111  53.919  1.00  0.00     0.167 HD
BRANCH  24  26
HETATM   26  C16 UNL     1      26.252  -0.047  53.237  1.00  0.00     0.035 A 
HETATM   27  C17 UNL     1      26.789  -1.260  52.899  1.00  0.00     0.029 A 
HETATM   28  C18 UNL     1      28.138  -1.441  53.083  1.00  0.00     0.004 A 
HETATM   29  C19 UNL     1      28.913  -0.422  53.591  1.00  0.00     0.024 A 
HETATM   30  C20 UNL     1      28.386   0.823  53.941  1.00  0.00     0.036 A 
HETATM   31 CL1  UNL     1      29.435   2.074  54.582  1.00  0.00    -0.084 Cl
HETATM   32  C21 UNL     1      27.023   0.973  53.745  1.00  0.00     0.053 A 
ENDBRANCH  24  26
ENDBRANCH  20  24
ENDBRANCH   1  19
TORSDOF 4
ENDMDL
MODEL 5
REMARK VINA RESULT:      -7.8      2.522      3.779
REMARK  4 active torsions:
REMARK  status: ('A' for Active; 'I' for Inactive)
REMARK    1  A    between atoms: N1_1  and  C1_2 
REMARK    2  A    between atoms: C1_2  and  N5_21 
REMARK    3  A    between atoms: C2_3  and  N2_4 
REMARK    4  A    between atoms: N5_21  and  C16_22 
ROOT
HETATM    1  N2  UNL     1      25.071   2.603  50.841  1.00  0.00    -0.266 NA
HETATM    2  C3  UNL     1      24.041   3.321  50.496  1.00  0.00     0.017 C 
HETATM    3  C4  UNL     1      24.014   3.384  48.975  1.00  0.00     0.092 C 
HETATM    4  C5  UNL     1      23.788   4.831  48.598  1.00  0.00    -0.037 C 
HETATM    5  C6  UNL     1      22.564   5.084  48.163  1.00  0.00     0.120 C 
HETATM    6  N3  UNL     1      22.101   6.308  47.770  1.00  0.00    -0.277 NA
HETATM    7  C7  UNL     1      21.470   6.854  46.897  1.00  0.00     0.089 C 
HETATM    8  C8  UNL     1      21.509   8.243  47.384  1.00  0.00     0.051 C 
HETATM    9  C9  UNL     1      20.456   8.579  48.378  1.00  0.00     0.036 C 
HETATM   10  P1  UNL     1      20.400   7.662  49.937  1.00  0.00    -0.129 P 
HETATM   11  C10 UNL     1      21.988   7.255  50.728  1.00  0.00     0.032 C 
HETATM   12  C11 UNL     1      21.908   5.867  51.325  1.00  0.00     0.014 C 
HETATM   13  C12 UNL     1      23.222   5.323  51.797  1.00  0.00     0.031 C 
HETATM   14  C13 UNL     1      24.380   5.982  51.126  1.00  0.00     0.088 C 
HETATM   15  N4  UNL     1      25.112   6.067  50.082  1.00  0.00    -0.301 NA
HETATM   16  C14 UNL     1      24.816   5.930  48.683  1.00  0.00     0.184 C 
HETATM   17  C15 UNL     1      23.232   3.841  51.638  1.00  0.00     0.065 C 
HETATM   18  H12 UNL     1      19.455   6.537  49.922  1.00  0.00     0.057 HD
ENDROOT
BRANCH   1  19
HETATM   19  C2  UNL     1      25.447   2.306  52.154  1.00  0.00     0.164 C 
HETATM   20  C1  UNL     1      25.442   1.588  53.235  1.00  0.00     0.117 C 
BRANCH  20  21
HETATM   21  N1  UNL     1      26.231   2.032  54.359  1.00  0.00    -0.384 N 
HETATM   22  H1  UNL     1      26.840   2.879  54.250  1.00  0.00     0.157 HD
HETATM   23  H2  UNL     1      26.137   1.453  55.242  1.00  0.00     0.157 HD
ENDBRANCH  20  21
BRANCH  20  24
HETATM   24  N5  UNL     1      24.692   0.387  53.361  1.00  0.00    -0.342 N 
HETATM   25  H23 UNL     1      25.331  -0.431  53.276  1.00  0.00     0.167 HD
BRANCH  24  26
HETATM   26  C16 UNL     1      23.374  -0.109  53.564  1.00  0.00     0.035 A 
HETATM   27  C17 UNL     1      22.983  -0.908  54.604  1.00  0.00     0.029 A 
HETATM   28  C18 UNL     1      21.669  -1.303  54.654  1.00  0.00     0.004 A 
HETATM   29  C19 UNL     1      20.783  -0.897  53.680  1.00  0.00     0.024 A 
HETATM   30  C20 UNL     1      21.161  -0.082  52.611  1.00  0.00     0.036 A 
HETATM   31 CL1  UNL     1      19.978   0.395  51.408  1.00  0.00    -0.084 Cl
HETATM   32  C21 UNL     1      22.492   0.298  52.589  1.00  0.00     0.053 A 
ENDBRANCH  24  26
ENDBRANCH  20  24
ENDBRANCH   1  19
TORSDOF 4
ENDMDL
MODEL 6
REMARK VINA RESULT:      -7.7      1.835      2.862
REMARK  4 active torsions:
REMARK  status: ('A' for Active; 'I' for Inactive)
REMARK    1  A    between atoms: N1_1  and  C1_2 
REMARK    2  A    between atoms: C1_2  and  N5_21 
REMARK    3  A    between atoms: C2_3  and  N2_4 
REMARK    4  A    between atoms: N5_21  and  C16_22 
ROOT
HETATM    1  N2  UNL     1      22.990   2.411  52.666  1.00  0.00    -0.266 NA
HETATM    2  C3  UNL     1      23.029   2.871  51.449  1.00  0.00     0.017 C 
HETATM    3  C4  UNL     1      23.030   4.391  51.531  1.00  0.00     0.092 C 
HETATM    4  C5  UNL     1      22.007   4.886  50.533  1.00  0.00    -0.037 C 
HETATM    5  C6  UNL     1      22.538   5.413  49.441  1.00  0.00     0.120 C 
HETATM    6  N3  UNL     1      21.836   5.922  48.386  1.00  0.00    -0.277 NA
HETATM    7  C7  UNL     1      21.789   6.870  47.639  1.00  0.00     0.089 C 
HETATM    8  C8  UNL     1      20.637   6.484  46.807  1.00  0.00     0.051 C 
HETATM    9  C9  UNL     1      20.968   5.584  45.671  1.00  0.00     0.036 C 
HETATM   10  P1  UNL     1      21.703   3.969  46.022  1.00  0.00    -0.129 P 
HETATM   11  C10 UNL     1      21.072   3.054  47.463  1.00  0.00     0.032 C 
HETATM   12  C11 UNL     1      22.224   2.363  48.160  1.00  0.00     0.014 C 
HETATM   13  C12 UNL     1      21.873   1.773  49.492  1.00  0.00     0.031 C 
HETATM   14  C13 UNL     1      20.672   2.418  50.097  1.00  0.00     0.088 C 
HETATM   15  N4  UNL     1      20.193   3.419  50.732  1.00  0.00    -0.301 NA
HETATM   16  C14 UNL     1      20.511   4.819  50.704  1.00  0.00     0.184 C 
HETATM   17  C15 UNL     1      23.064   1.822  50.387  1.00  0.00     0.065 C 
HETATM   18  H12 UNL     1      23.170   3.960  45.926  1.00  0.00     0.057 HD
ENDROOT
BRANCH   1  19
HETATM   19  C2  UNL     1      22.976   1.060  53.021  1.00  0.00     0.164 C 
HETATM   20  C1  UNL     1      23.509  -0.033  53.477  1.00  0.00     0.117 C 
BRANCH  20  21
HETATM   21  N1  UNL     1      22.693  -1.221  53.541  1.00  0.00    -0.384 N 
HETATM   22  H1  UNL     1      21.986  -1.313  54.311  1.00  0.00     0.157 HD
HETATM   23  H2  UNL     1      22.871  -1.940  52.783  1.00  0.00     0.157 HD
ENDBRANCH  20  21
BRANCH  20  24
HETATM   24  N5  UNL     1      24.859  -0.109  53.914  1.00  0.00    -0.342 N 
HETATM   25  H23 UNL     1      24.958  -0.881  54.605  1.00  0.00     0.167 HD
BRANCH  24  26
HETATM   26  C16 UNL     1      26.138   0.492  53.748  1.00  0.00     0.035 A 
HETATM   27  C17 UNL     1      26.376   1.839  53.692  1.00  0.00     0.029 A 
HETATM   28  C18 UNL     1      27.673   2.258  53.526  1.00  0.00     0.004 A 
HETATM   29  C19 UNL     1      28.693   1.338  53.421  1.00  0.00     0.024 A 
HETATM   30  C20 UNL     1      28.472  -0.041  53.475  1.00  0.00     0.036 A 
HETATM   31 CL1  UNL     1      29.820  -1.153  53.333  1.00  0.00    -0.084 Cl
HETATM   32  C21 UNL     1      27.154  -0.430  53.642  1.00  0.00     0.053 A 
ENDBRANCH  24  26
ENDBRANCH  20  24
ENDBRANCH   1  19
TORSDOF 4
ENDMDL
MODEL 7
REMARK VINA RESULT:      -7.7      1.605      2.150
REMARK  4 active torsions:
REMARK  status: ('A' for Active; 'I' for Inactive)
REMARK    1  A    between atoms: N1_1  and  C1_2 
REMARK    2  A    between atoms: C1_2  and  N5_21 
REMARK    3  A    between atoms: C2_3  and  N2_4 
REMARK    4  A    between atoms: N5_21  and  C16_22 
ROOT
HETATM    1  N2  UNL     1      24.180   2.632  50.558  1.00  0.00    -0.266 NA
HETATM    2  C3  UNL     1      23.503   3.603  50.016  1.00  0.00     0.017 C 
HETATM    3  C4  UNL     1      24.369   4.214  48.923  1.00  0.00     0.092 C 
HETATM    4  C5  UNL     1      24.309   5.715  49.101  1.00  0.00    -0.037 C 
HETATM    5  C6  UNL     1      23.559   6.329  48.200  1.00  0.00     0.120 C 
HETATM    6  N3  UNL     1      23.332   7.675  48.144  1.00  0.00    -0.277 NA
HETATM    7  C7  UNL     1      23.298   8.606  47.375  1.00  0.00     0.089 C 
HETATM    8  C8  UNL     1      22.947   9.693  48.305  1.00  0.00     0.051 C 
HETATM    9  C9  UNL     1      21.491   9.836  48.569  1.00  0.00     0.036 C 
HETATM   10  P1  UNL     1      20.595   8.446  49.302  1.00  0.00    -0.129 P 
HETATM   11  C10 UNL     1      21.440   7.495  50.604  1.00  0.00     0.032 C 
HETATM   12  C11 UNL     1      21.120   6.025  50.437  1.00  0.00     0.014 C 
HETATM   13  C12 UNL     1      21.941   5.115  51.300  1.00  0.00     0.031 C 
HETATM   14  C13 UNL     1      23.224   5.746  51.726  1.00  0.00     0.088 C 
HETATM   15  N4  UNL     1      24.422   6.065  51.414  1.00  0.00    -0.301 NA
HETATM   16  C14 UNL     1      25.013   6.500  50.178  1.00  0.00     0.184 C 
HETATM   17  C15 UNL     1      22.144   3.815  50.598  1.00  0.00     0.065 C 
HETATM   18  H12 UNL     1      19.919   7.597  48.311  1.00  0.00     0.057 HD
ENDROOT
BRANCH   1  19
HETATM   19  C2  UNL     1      23.734   1.818  51.602  1.00  0.00     0.164 C 
HETATM   20  C1  UNL     1      23.896   0.965  52.567  1.00  0.00     0.117 C 
BRANCH  20  21
HETATM   21  N1  UNL     1      22.734   0.537  53.308  1.00  0.00    -0.384 N 
HETATM   22  H1  UNL     1      22.578   0.916  54.274  1.00  0.00     0.157 HD
HETATM   23  H2  UNL     1      22.101  -0.152  52.809  1.00  0.00     0.157 HD
ENDBRANCH  20  21
BRANCH  20  24
HETATM   24  N5  UNL     1      25.166   0.433  52.924  1.00  0.00    -0.342 N 
HETATM   25  H23 UNL     1      25.093  -0.601  53.025  1.00  0.00     0.167 HD
BRANCH  24  26
HETATM   26  C16 UNL     1      26.512   0.803  53.193  1.00  0.00     0.035 A 
HETATM   27  C17 UNL     1      26.959   2.086  53.361  1.00  0.00     0.029 A 
HETATM   28  C18 UNL     1      28.295   2.275  53.615  1.00  0.00     0.004 A 
HETATM   29  C19 UNL     1      29.147   1.195  53.695  1.00  0.00     0.024 A 
HETATM   30  C20 UNL     1      28.712  -0.122  53.526  1.00  0.00     0.036 A 
HETATM   31 CL1  UNL     1      29.854  -1.447  53.642  1.00  0.00    -0.084 Cl
HETATM   32  C21 UNL     1      27.360  -0.278  53.272  1.00  0.00     0.053 A 
ENDBRANCH  24  26
ENDBRANCH  20  24
ENDBRANCH   1  19
TORSDOF 4
ENDMDL
MODEL 8
REMARK VINA RESULT:      -7.7      2.619      4.176
REMARK  4 active torsions:
REMARK  status: ('A' for Active; 'I' for Inactive)
REMARK    1  A    between atoms: N1_1  and  C1_2 
REMARK    2  A    between atoms: C1_2  and  N5_21 
REMARK    3  A    between atoms: C2_3  and  N2_4 
REMARK    4  A    between atoms: N5_21  and  C16_22 
ROOT
HETATM    1  N2  UNL     1      26.554   3.183  50.776  1.00  0.00    -0.266 NA
HETATM    2  C3  UNL     1      25.652   3.688  49.986  1.00  0.00     0.017 C 
HETATM    3  C4  UNL     1      26.042   5.133  49.707  1.00  0.00     0.092 C 
HETATM    4  C5  UNL     1      24.796   5.969  49.893  1.00  0.00    -0.037 C 
HETATM    5  C6  UNL     1      24.260   6.387  48.757  1.00  0.00     0.120 C 
HETATM    6  N3  UNL     1      23.130   7.146  48.647  1.00  0.00    -0.277 NA
HETATM    7  C7  UNL     1      22.681   8.113  48.078  1.00  0.00     0.089 C 
HETATM    8  C8  UNL     1      21.322   8.136  48.645  1.00  0.00     0.051 C 
HETATM    9  C9  UNL     1      20.348   7.254  47.951  1.00  0.00     0.036 C 
HETATM   10  P1  UNL     1      20.670   5.475  47.886  1.00  0.00    -0.129 P 
HETATM   11  C10 UNL     1      21.367   4.693  49.376  1.00  0.00     0.032 C 
HETATM   12  C11 UNL     1      22.385   3.652  48.964  1.00  0.00     0.014 C 
HETATM   13  C12 UNL     1      23.198   3.105  50.098  1.00  0.00     0.031 C 
HETATM   14  C13 UNL     1      23.236   4.033  51.265  1.00  0.00     0.088 C 
HETATM   15  N4  UNL     1      23.738   5.087  51.786  1.00  0.00    -0.301 NA
HETATM   16  C14 UNL     1      24.171   6.332  51.215  1.00  0.00     0.184 C 
HETATM   17  C15 UNL     1      24.559   2.746  49.605  1.00  0.00     0.065 C 
HETATM   18  H12 UNL     1      21.327   5.043  46.644  1.00  0.00     0.057 HD
ENDROOT
BRANCH   1  19
HETATM   19  C2  UNL     1      26.559   1.874  51.268  1.00  0.00     0.164 C 
HETATM   20  C1  UNL     1      26.090   0.892  51.975  1.00  0.00     0.117 C 
BRANCH  20  21
HETATM   21  N1  UNL     1      26.791  -0.369  51.949  1.00  0.00    -0.384 N 
HETATM   22  H1  UNL     1      26.419  -1.171  52.513  1.00  0.00     0.157 HD
HETATM   23  H2  UNL     1      27.661  -0.397  51.343  1.00  0.00     0.157 HD
ENDBRANCH  20  21
BRANCH  20  24
HETATM   24  N5  UNL     1      24.920   1.005  52.774  1.00  0.00    -0.342 N 
HETATM   25  H23 UNL     1      24.830   1.983  53.121  1.00  0.00     0.167 HD
BRANCH  24  26
HETATM   26  C16 UNL     1      23.816   0.262  53.276  1.00  0.00     0.035 A 
HETATM   27  C17 UNL     1      23.870  -0.628  54.315  1.00  0.00     0.029 A 
HETATM   28  C18 UNL     1      22.710  -1.267  54.677  1.00  0.00     0.004 A 
HETATM   29  C19 UNL     1      21.535  -1.009  54.006  1.00  0.00     0.024 A 
HETATM   30  C20 UNL     1      21.458  -0.106  52.943  1.00  0.00     0.036 A 
HETATM   31 CL1  UNL     1      19.926   0.172  52.135  1.00  0.00    -0.084 Cl
HETATM   32  C21 UNL     1      22.644   0.521  52.602  1.00  0.00     0.053 A 
ENDBRANCH  24  26
ENDBRANCH  20  24
ENDBRANCH   1  19
TORSDOF 4
ENDMDL
MODEL 9
REMARK VINA RESULT:      -7.5      3.676      5.582
REMARK  4 active torsions:
REMARK  status: ('A' for Active; 'I' for Inactive)
REMARK    1  A    between atoms: N1_1  and  C1_2 
REMARK    2  A    between atoms: C1_2  and  N5_21 
REMARK    3  A    between atoms: C2_3  and  N2_4 
REMARK    4  A    between atoms: N5_21  and  C16_22 
ROOT
HETATM    1  N2  UNL     1      25.450   5.651  50.091  1.00  0.00    -0.266 NA
HETATM    2  C3  UNL     1      25.555   6.475  49.089  1.00  0.00     0.017 C 
HETATM    3  C4  UNL     1      26.933   6.278  48.472  1.00  0.00     0.092 C 
HETATM    4  C5  UNL     1      27.524   7.654  48.267  1.00  0.00    -0.037 C 
HETATM    5  C6  UNL     1      27.532   8.049  47.004  1.00  0.00     0.120 C 
HETATM    6  N3  UNL     1      28.000   9.250  46.553  1.00  0.00    -0.277 NA
HETATM    7  C7  UNL     1      28.686   9.744  45.690  1.00  0.00     0.089 C 
HETATM    8  C8  UNL     1      28.580  11.165  46.059  1.00  0.00     0.051 C 
HETATM    9  C9  UNL     1      27.378  11.855  45.523  1.00  0.00     0.036 C 
HETATM   10  P1  UNL     1      25.739  11.248  45.990  1.00  0.00    -0.129 P 
HETATM   11  C10 UNL     1      25.506  10.699  47.710  1.00  0.00     0.032 C 
HETATM   12  C11 UNL     1      24.618   9.474  47.728  1.00  0.00     0.014 C 
HETATM   13  C12 UNL     1      24.543   8.788  49.058  1.00  0.00     0.031 C 
HETATM   14  C13 UNL     1      25.720   9.096  49.921  1.00  0.00     0.088 C 
HETATM   15  N4  UNL     1      26.949   8.864  50.188  1.00  0.00    -0.301 NA
HETATM   16  C14 UNL     1      28.073   8.544  49.353  1.00  0.00     0.184 C 
HETATM   17  C15 UNL     1      24.349   7.324  48.852  1.00  0.00     0.065 C 
HETATM   18  H12 UNL     1      25.151  10.330  45.004  1.00  0.00     0.057 HD
ENDROOT
BRANCH   1  19
HETATM   19  C2  UNL     1      24.333   5.522  50.920  1.00  0.00     0.164 C 
HETATM   20  C1  UNL     1      23.677   5.026  51.925  1.00  0.00     0.117 C 
BRANCH  20  21
HETATM   21  N1  UNL     1      22.331   5.490  52.162  1.00  0.00    -0.384 N 
HETATM   22  H1  UNL     1      21.542   4.799  52.132  1.00  0.00     0.157 HD
HETATM   23  H2  UNL     1      22.232   6.528  52.354  1.00  0.00     0.157 HD
ENDBRANCH  20  21
BRANCH  20  24
HETATM   24  N5  UNL     1      24.225   4.048  52.798  1.00  0.00    -0.342 N 
HETATM   25  H23 UNL     1      24.729   4.521  53.577  1.00  0.00     0.167 HD
BRANCH  24  26
HETATM   26  C16 UNL     1      24.335   2.643  52.998  1.00  0.00     0.035 A 
HETATM   27  C17 UNL     1      23.375   1.723  52.675  1.00  0.00     0.029 A 
HETATM   28  C18 UNL     1      23.637   0.401  52.934  1.00  0.00     0.004 A 
HETATM   29  C19 UNL     1      24.836   0.027  53.500  1.00  0.00     0.024 A 
HETATM   30  C20 UNL     1      25.830   0.950  53.837  1.00  0.00     0.036 A 
HETATM   31 CL1  UNL     1      27.332   0.402  54.555  1.00  0.00    -0.084 Cl
HETATM   32  C21 UNL     1      25.534   2.275  53.564  1.00  0.00     0.053 A 
ENDBRANCH  24  26
ENDBRANCH  20  24
ENDBRANCH   1  19
TORSDOF 4
ENDMDL
