MODEL 1
REMARK VINA RESULT:      -7.1      0.000      0.000
REMARK  9 active torsions:
REMARK  status: ('A' for Active; 'I' for Inactive)
REMARK    1  A    between atoms: O1_2  and  C2_3 
REMARK    2  A    between atoms: C2_3  and  C3_4 
REMARK    3  A    between atoms: C4_5  and  C5_6 
REMARK    4  A    between atoms: C5_6  and  N1_7 
REMARK    5  A    between atoms: N1_7  and  C6_8 
REMARK    6  A    between atoms: C9_11  and  O2_12 
REMARK    7  A    between atoms: C13_16  and  C14_17 
REMARK    8  A    between atoms: C15_18  and  N2_19 
REMARK    9  A    between atoms: N2_19  and  C16_20 
ROOT
HETATM    1  C2  UNL     1      26.209   6.261  48.907  1.00  0.00     0.068 C 
HETATM    2  C13 UNL     1      26.935   5.157  48.954  1.00  0.00     0.038 C 
ENDROOT
BRANCH   1   3
HETATM    3  O1  UNL     1      26.760   7.506  48.596  1.00  0.00    -0.356 OA
HETATM    4  C1  UNL     1      27.285   7.778  47.328  1.00  0.00     0.210 C 
ENDBRANCH   1   3
BRANCH   1   5
HETATM    5  C3  UNL     1      24.778   6.309  49.167  1.00  0.00     0.034 C 
HETATM    6  C4  UNL     1      24.168   7.014  50.103  1.00  0.00    -0.005 C 
BRANCH   6   7
HETATM    7  C5  UNL     1      22.698   7.018  50.316  1.00  0.00     0.147 C 
BRANCH   7   8
HETATM    8  N1  UNL     1      22.296   6.498  51.594  1.00  0.00    -0.386 N 
HETATM    9  H8  UNL     1      21.838   7.126  52.292  1.00  0.00     0.160 HD
BRANCH   8  10
HETATM   10  C6  UNL     1      22.525   5.122  51.905  1.00  0.00     0.028 A 
HETATM   11  C7  UNL     1      21.665   4.168  51.400  1.00  0.00     0.032 A 
HETATM   12  C8  UNL     1      21.911   2.832  51.718  1.00  0.00     0.039 A 
HETATM   13  C9  UNL     1      22.992   2.490  52.518  1.00  0.00     0.068 A 
HETATM   14  C11 UNL     1      23.849   3.459  53.019  1.00  0.00     0.039 A 
HETATM   15  C12 UNL     1      23.597   4.778  52.699  1.00  0.00     0.032 A 
BRANCH  13  16
HETATM   16  O2  UNL     1      23.311   1.192  52.883  1.00  0.00    -0.356 OA
HETATM   17  C10 UNL     1      22.448   0.139  52.517  1.00  0.00     0.210 C 
ENDBRANCH  13  16
ENDBRANCH   8  10
ENDBRANCH   7   8
ENDBRANCH   6   7
ENDBRANCH   1   5
BRANCH   2  18
HETATM   18  C14 UNL     1      26.398   3.842  49.274  1.00  0.00     0.020 C 
HETATM   19  C15 UNL     1      26.650   3.283  50.424  1.00  0.00     0.089 C 
BRANCH  19  20
HETATM   20  N2  UNL     1      26.202   2.024  50.869  1.00  0.00    -0.352 N 
HETATM   21  H19 UNL     1      25.448   1.378  50.520  1.00  0.00     0.166 HD
BRANCH  20  22
HETATM   22  C16 UNL     1      26.904   1.517  52.018  1.00  0.00     0.129 C 
HETATM   23  N3  UNL     1      27.691   2.394  52.558  1.00  0.00    -0.226 NA
HETATM   24  C17 UNL     1      28.576   2.402  53.672  1.00  0.00     0.234 C 
HETATM   25  N4  UNL     1      29.161   1.519  54.427  1.00  0.00    -0.252 NA
HETATM   26  C18 UNL     1      29.160   0.092  54.456  1.00  0.00     0.142 C 
HETATM   27  C19 UNL     1      28.595  -0.868  53.758  1.00  0.00     0.154 C 
HETATM   28  O3  UNL     1      27.762  -0.626  52.696  1.00  0.00    -0.354 OA
HETATM   29  C20 UNL     1      26.602   0.085  52.378  1.00  0.00     0.253 C 
ENDBRANCH  20  22
ENDBRANCH  19  20
ENDBRANCH   2  18
TORSDOF 9
ENDMDL
MODEL 2
REMARK VINA RESULT:      -7.0      3.260      4.518
REMARK  9 active torsions:
REMARK  status: ('A' for Active; 'I' for Inactive)
REMARK    1  A    between atoms: O1_2  and  C2_3 
REMARK    2  A    between atoms: C2_3  and  C3_4 
REMARK    3  A    between atoms: C4_5  and  C5_6 
REMARK    4  A    between atoms: C5_6  and  N1_7 
REMARK    5  A    between atoms: N1_7  and  C6_8 
REMARK    6  A    between atoms: C9_11  and  O2_12 
REMARK    7  A    between atoms: C13_16  and  C14_17 
REMARK    8  A    between atoms: C15_18  and  N2_19 
REMARK    9  A    between atoms: N2_19  and  C16_20 
ROOT
HETATM    1  C2  UNL     1      22.626   2.343  48.557  1.00  0.00     0.068 C 
HETATM    2  C13 UNL     1      23.607   2.953  49.200  1.00  0.00     0.038 C 
ENDROOT
BRANCH   1   3
HETATM    3  O1  UNL     1      22.432   2.484  47.181  1.00  0.00    -0.356 OA
HETATM    4  C1  UNL     1      21.595   3.477  46.658  1.00  0.00     0.210 C 
ENDBRANCH   1   3
BRANCH   1   5
HETATM    5  C3  UNL     1      21.652   1.469  49.193  1.00  0.00     0.034 C 
HETATM    6  C4  UNL     1      20.453   1.809  49.633  1.00  0.00    -0.005 C 
BRANCH   6   7
HETATM    7  C5  UNL     1      19.504   0.865  50.276  1.00  0.00     0.147 C 
BRANCH   7   8
HETATM    8  N1  UNL     1      19.302   1.110  51.678  1.00  0.00    -0.386 N 
HETATM    9  H8  UNL     1      18.565   1.782  51.988  1.00  0.00     0.160 HD
BRANCH   8  10
HETATM   10  C6  UNL     1      20.111   0.432  52.641  1.00  0.00     0.028 A 
HETATM   11  C7  UNL     1      21.355   0.943  52.951  1.00  0.00     0.032 A 
HETATM   12  C8  UNL     1      22.125   0.262  53.894  1.00  0.00     0.039 A 
HETATM   13  C9  UNL     1      21.640  -0.892  54.494  1.00  0.00     0.068 A 
HETATM   14  C11 UNL     1      20.388  -1.395  54.173  1.00  0.00     0.039 A 
HETATM   15  C12 UNL     1      19.634  -0.715  53.238  1.00  0.00     0.032 A 
BRANCH  13  16
HETATM   16  O2  UNL     1      22.335  -1.630  55.438  1.00  0.00    -0.356 OA
HETATM   17  C10 UNL     1      23.723  -1.432  55.586  1.00  0.00     0.210 C 
ENDBRANCH  13  16
ENDBRANCH   8  10
ENDBRANCH   7   8
ENDBRANCH   6   7
ENDBRANCH   1   5
BRANCH   2  18
HETATM   18  C14 UNL     1      23.842   2.832  50.631  1.00  0.00     0.020 C 
HETATM   19  C15 UNL     1      25.053   2.855  51.110  1.00  0.00     0.089 C 
BRANCH  19  20
HETATM   20  N2  UNL     1      25.430   2.749  52.463  1.00  0.00    -0.352 N 
HETATM   21  H19 UNL     1      25.111   3.257  53.328  1.00  0.00     0.166 HD
BRANCH  20  22
HETATM   22  C16 UNL     1      26.442   1.760  52.721  1.00  0.00     0.129 C 
HETATM   23  N3  UNL     1      26.009   0.545  52.587  1.00  0.00    -0.226 NA
HETATM   24  C17 UNL     1      26.584  -0.750  52.723  1.00  0.00     0.234 C 
HETATM   25  N4  UNL     1      27.645  -1.265  53.270  1.00  0.00    -0.252 NA
HETATM   26  C18 UNL     1      28.739  -0.719  54.005  1.00  0.00     0.142 C 
HETATM   27  C19 UNL     1      29.102   0.477  54.413  1.00  0.00     0.154 C 
HETATM   28  O3  UNL     1      28.364   1.605  54.161  1.00  0.00    -0.354 OA
HETATM   29  C20 UNL     1      27.798   2.305  53.091  1.00  0.00     0.253 C 
ENDBRANCH  20  22
ENDBRANCH  19  20
ENDBRANCH   2  18
TORSDOF 9
ENDMDL
MODEL 3
REMARK VINA RESULT:      -7.0      1.419      1.997
REMARK  9 active torsions:
REMARK  status: ('A' for Active; 'I' for Inactive)
REMARK    1  A    between atoms: O1_2  and  C2_3 
REMARK    2  A    between atoms: C2_3  and  C3_4 
REMARK    3  A    between atoms: C4_5  and  C5_6 
REMARK    4  A    between atoms: C5_6  and  N1_7 
REMARK    5  A    between atoms: N1_7  and  C6_8 
REMARK    6  A    between atoms: C9_11  and  O2_12 
REMARK    7  A    between atoms: C13_16  and  C14_17 
REMARK    8  A    between atoms: C15_18  and  N2_19 
REMARK    9  A    between atoms: N2_19  and  C16_20 
ROOT
HETATM    1  C2  UNL     1      25.195   6.224  49.806  1.00  0.00     0.068 C 
HETATM    2  C13 UNL     1      26.197   5.458  49.410  1.00  0.00     0.038 C 
ENDROOT
BRANCH   1   3
HETATM    3  O1  UNL     1      25.266   7.619  49.787  1.00  0.00    -0.356 OA
HETATM    4  C1  UNL     1      26.460   8.294  50.062  1.00  0.00     0.210 C 
ENDBRANCH   1   3
BRANCH   1   5
HETATM    5  C3  UNL     1      23.924   5.715  50.300  1.00  0.00     0.034 C 
HETATM    6  C4  UNL     1      23.626   5.415  51.552  1.00  0.00    -0.005 C 
BRANCH   6   7
HETATM    7  C5  UNL     1      22.304   4.897  51.991  1.00  0.00     0.147 C 
BRANCH   7   8
HETATM    8  N1  UNL     1      21.947   3.640  51.394  1.00  0.00    -0.386 N 
HETATM    9  H8  UNL     1      21.757   3.585  50.368  1.00  0.00     0.160 HD
BRANCH   8  10
HETATM   10  C6  UNL     1      21.853   2.469  52.207  1.00  0.00     0.028 A 
HETATM   11  C7  UNL     1      20.615   2.073  52.673  1.00  0.00     0.032 A 
HETATM   12  C8  UNL     1      20.550   0.927  53.465  1.00  0.00     0.039 A 
HETATM   13  C9  UNL     1      21.704   0.216  53.766  1.00  0.00     0.068 A 
HETATM   14  C11 UNL     1      22.942   0.625  53.291  1.00  0.00     0.039 A 
HETATM   15  C12 UNL     1      22.996   1.761  52.508  1.00  0.00     0.032 A 
BRANCH  13  16
HETATM   16  O2  UNL     1      21.734  -0.930  54.543  1.00  0.00    -0.356 OA
HETATM   17  C10 UNL     1      22.927  -1.287  55.203  1.00  0.00     0.210 C 
ENDBRANCH  13  16
ENDBRANCH   8  10
ENDBRANCH   7   8
ENDBRANCH   6   7
ENDBRANCH   1   5
BRANCH   2  18
HETATM   18  C14 UNL     1      26.162   4.003  49.416  1.00  0.00     0.020 C 
HETATM   19  C15 UNL     1      26.485   3.334  50.486  1.00  0.00     0.089 C 
BRANCH  19  20
HETATM   20  N2  UNL     1      26.498   1.934  50.638  1.00  0.00    -0.352 N 
HETATM   21  H19 UNL     1      26.174   1.152  50.012  1.00  0.00     0.166 HD
BRANCH  20  22
HETATM   22  C16 UNL     1      27.059   1.477  51.881  1.00  0.00     0.129 C 
HETATM   23  N3  UNL     1      27.789   2.374  52.467  1.00  0.00    -0.226 NA
HETATM   24  C17 UNL     1      28.543   2.429  53.673  1.00  0.00     0.234 C 
HETATM   25  N4  UNL     1      29.028   1.579  54.529  1.00  0.00    -0.252 NA
HETATM   26  C18 UNL     1      29.009   0.156  54.623  1.00  0.00     0.142 C 
HETATM   27  C19 UNL     1      28.516  -0.833  53.911  1.00  0.00     0.154 C 
HETATM   28  O3  UNL     1      27.812  -0.636  52.751  1.00  0.00    -0.354 OA
HETATM   29  C20 UNL     1      26.703   0.066  52.271  1.00  0.00     0.253 C 
ENDBRANCH  20  22
ENDBRANCH  19  20
ENDBRANCH   2  18
TORSDOF 9
ENDMDL
MODEL 4
REMARK VINA RESULT:      -7.0      2.107      6.353
REMARK  9 active torsions:
REMARK  status: ('A' for Active; 'I' for Inactive)
REMARK    1  A    between atoms: O1_2  and  C2_3 
REMARK    2  A    between atoms: C2_3  and  C3_4 
REMARK    3  A    between atoms: C4_5  and  C5_6 
REMARK    4  A    between atoms: C5_6  and  N1_7 
REMARK    5  A    between atoms: N1_7  and  C6_8 
REMARK    6  A    between atoms: C9_11  and  O2_12 
REMARK    7  A    between atoms: C13_16  and  C14_17 
REMARK    8  A    between atoms: C15_18  and  N2_19 
REMARK    9  A    between atoms: N2_19  and  C16_20 
ROOT
HETATM    1  C2  UNL     1      20.786   0.493  52.950  1.00  0.00     0.068 C 
HETATM    2  C13 UNL     1      20.989  -0.418  53.886  1.00  0.00     0.038 C 
ENDROOT
BRANCH   1   3
HETATM    3  O1  UNL     1      19.641   0.503  52.150  1.00  0.00    -0.356 OA
HETATM    4  C1  UNL     1      18.597  -0.406  52.356  1.00  0.00     0.210 C 
ENDBRANCH   1   3
BRANCH   1   5
HETATM    5  C3  UNL     1      21.713   1.574  52.648  1.00  0.00     0.034 C 
HETATM    6  C4  UNL     1      22.369   1.759  51.515  1.00  0.00    -0.005 C 
BRANCH   6   7
HETATM    7  C5  UNL     1      23.305   2.886  51.271  1.00  0.00     0.147 C 
BRANCH   7   8
HETATM    8  N1  UNL     1      24.265   2.628  50.234  1.00  0.00    -0.386 N 
HETATM    9  H8  UNL     1      24.384   1.659  49.862  1.00  0.00     0.160 HD
BRANCH   8  10
HETATM   10  C6  UNL     1      25.055   3.700  49.715  1.00  0.00     0.028 A 
HETATM   11  C7  UNL     1      26.403   3.498  49.500  1.00  0.00     0.032 A 
HETATM   12  C8  UNL     1      27.151   4.560  48.993  1.00  0.00     0.039 A 
HETATM   13  C9  UNL     1      26.543   5.777  48.716  1.00  0.00     0.068 A 
HETATM   14  C11 UNL     1      25.187   5.967  48.937  1.00  0.00     0.039 A 
HETATM   15  C12 UNL     1      24.455   4.911  49.439  1.00  0.00     0.032 A 
BRANCH  13  16
HETATM   16  O2  UNL     1      27.207   6.883  48.212  1.00  0.00    -0.356 OA
HETATM   17  C10 UNL     1      26.509   7.793  47.392  1.00  0.00     0.210 C 
ENDBRANCH  13  16
ENDBRANCH   8  10
ENDBRANCH   7   8
ENDBRANCH   6   7
ENDBRANCH   1   5
BRANCH   2  18
HETATM   18  C14 UNL     1      22.167  -0.462  54.739  1.00  0.00     0.020 C 
HETATM   19  C15 UNL     1      23.295  -0.936  54.290  1.00  0.00     0.089 C 
BRANCH  19  20
HETATM   20  N2  UNL     1      24.509  -1.041  54.996  1.00  0.00    -0.352 N 
HETATM   21  H19 UNL     1      24.762  -1.512  55.903  1.00  0.00     0.166 HD
BRANCH  20  22
HETATM   22  C16 UNL     1      25.621  -0.382  54.364  1.00  0.00     0.129 C 
HETATM   23  N3  UNL     1      26.697  -0.399  55.087  1.00  0.00    -0.226 NA
HETATM   24  C17 UNL     1      28.023   0.093  54.932  1.00  0.00     0.234 C 
HETATM   25  N4  UNL     1      28.632   0.958  54.175  1.00  0.00    -0.252 NA
HETATM   26  C18 UNL     1      28.203   1.824  53.126  1.00  0.00     0.142 C 
HETATM   27  C19 UNL     1      27.065   2.091  52.525  1.00  0.00     0.154 C 
HETATM   28  O3  UNL     1      25.885   1.477  52.859  1.00  0.00    -0.354 OA
HETATM   29  C20 UNL     1      25.339   0.198  53.002  1.00  0.00     0.253 C 
ENDBRANCH  20  22
ENDBRANCH  19  20
ENDBRANCH   2  18
TORSDOF 9
ENDMDL
MODEL 5
REMARK VINA RESULT:      -6.9      4.196      6.537
REMARK  9 active torsions:
REMARK  status: ('A' for Active; 'I' for Inactive)
REMARK    1  A    between atoms: O1_2  and  C2_3 
REMARK    2  A    between atoms: C2_3  and  C3_4 
REMARK    3  A    between atoms: C4_5  and  C5_6 
REMARK    4  A    between atoms: C5_6  and  N1_7 
REMARK    5  A    between atoms: N1_7  and  C6_8 
REMARK    6  A    between atoms: C9_11  and  O2_12 
REMARK    7  A    between atoms: C13_16  and  C14_17 
REMARK    8  A    between atoms: C15_18  and  N2_19 
REMARK    9  A    between atoms: N2_19  and  C16_20 
ROOT
HETATM    1  C2  UNL     1      26.960   6.809  48.209  1.00  0.00     0.068 C 
HETATM    2  C13 UNL     1      27.986   7.617  48.002  1.00  0.00     0.038 C 
ENDROOT
BRANCH   1   3
HETATM    3  O1  UNL     1      25.641   7.193  47.954  1.00  0.00    -0.356 OA
HETATM    4  C1  UNL     1      25.304   7.947  46.825  1.00  0.00     0.210 C 
ENDBRANCH   1   3
BRANCH   1   5
HETATM    5  C3  UNL     1      27.081   5.450  48.716  1.00  0.00     0.034 C 
HETATM    6  C4  UNL     1      26.193   4.797  49.445  1.00  0.00    -0.005 C 
BRANCH   6   7
HETATM    7  C5  UNL     1      26.379   3.406  49.932  1.00  0.00     0.147 C 
BRANCH   7   8
HETATM    8  N1  UNL     1      26.414   3.293  51.365  1.00  0.00    -0.386 N 
HETATM    9  H8  UNL     1      26.074   4.083  51.958  1.00  0.00     0.160 HD
BRANCH   8  10
HETATM   10  C6  UNL     1      26.916   2.100  51.971  1.00  0.00     0.028 A 
HETATM   11  C7  UNL     1      26.308   0.895  51.683  1.00  0.00     0.032 A 
HETATM   12  C8  UNL     1      26.817  -0.255  52.287  1.00  0.00     0.039 A 
HETATM   13  C9  UNL     1      27.902  -0.172  53.149  1.00  0.00     0.068 A 
HETATM   14  C11 UNL     1      28.503   1.046  53.430  1.00  0.00     0.039 A 
HETATM   15  C12 UNL     1      27.993   2.178  52.828  1.00  0.00     0.032 A 
BRANCH  13  16
HETATM   16  O2  UNL     1      28.471  -1.259  53.792  1.00  0.00    -0.356 OA
HETATM   17  C10 UNL     1      29.875  -1.356  53.875  1.00  0.00     0.210 C 
ENDBRANCH  13  16
ENDBRANCH   8  10
ENDBRANCH   7   8
ENDBRANCH   6   7
ENDBRANCH   1   5
BRANCH   2  18
HETATM   18  C14 UNL     1      29.372   7.255  48.254  1.00  0.00     0.020 C 
HETATM   19  C15 UNL     1      30.319   8.145  48.165  1.00  0.00     0.089 C 
BRANCH  19  20
HETATM   20  N2  UNL     1      31.696   7.941  48.379  1.00  0.00    -0.352 N 
HETATM   21  H19 UNL     1      32.423   8.505  48.891  1.00  0.00     0.166 HD
BRANCH  20  22
HETATM   22  C16 UNL     1      32.216   6.735  47.791  1.00  0.00     0.129 C 
HETATM   23  N3  UNL     1      32.272   6.786  46.497  1.00  0.00    -0.226 NA
HETATM   24  C17 UNL     1      32.692   5.894  45.471  1.00  0.00     0.234 C 
HETATM   25  N4  UNL     1      32.929   4.621  45.359  1.00  0.00    -0.252 NA
HETATM   26  C18 UNL     1      32.864   3.522  46.267  1.00  0.00     0.142 C 
HETATM   27  C19 UNL     1      32.548   3.358  47.533  1.00  0.00     0.154 C 
HETATM   28  O3  UNL     1      32.157   4.394  48.342  1.00  0.00    -0.354 OA
HETATM   29  C20 UNL     1      32.594   5.652  48.768  1.00  0.00     0.253 C 
ENDBRANCH  20  22
ENDBRANCH  19  20
ENDBRANCH   2  18
TORSDOF 9
ENDMDL
MODEL 6
REMARK VINA RESULT:      -6.9      2.324      6.423
REMARK  9 active torsions:
REMARK  status: ('A' for Active; 'I' for Inactive)
REMARK    1  A    between atoms: O1_2  and  C2_3 
REMARK    2  A    between atoms: C2_3  and  C3_4 
REMARK    3  A    between atoms: C4_5  and  C5_6 
REMARK    4  A    between atoms: C5_6  and  N1_7 
REMARK    5  A    between atoms: N1_7  and  C6_8 
REMARK    6  A    between atoms: C9_11  and  O2_12 
REMARK    7  A    between atoms: C13_16  and  C14_17 
REMARK    8  A    between atoms: C15_18  and  N2_19 
REMARK    9  A    between atoms: N2_19  and  C16_20 
ROOT
HETATM    1  C2  UNL     1      26.620   0.209  53.482  1.00  0.00     0.068 C 
HETATM    2  C13 UNL     1      27.007   1.143  52.630  1.00  0.00     0.038 C 
ENDROOT
BRANCH   1   3
HETATM    3  O1  UNL     1      27.398  -0.177  54.576  1.00  0.00    -0.356 OA
HETATM    4  C1  UNL     1      28.777   0.057  54.611  1.00  0.00     0.210 C 
ENDBRANCH   1   3
BRANCH   1   5
HETATM    5  C3  UNL     1      25.360  -0.514  53.384  1.00  0.00     0.034 C 
HETATM    6  C4  UNL     1      24.215  -0.188  53.959  1.00  0.00    -0.005 C 
BRANCH   6   7
HETATM    7  C5  UNL     1      22.962  -0.972  53.818  1.00  0.00     0.147 C 
BRANCH   7   8
HETATM    8  N1  UNL     1      22.225  -0.676  52.620  1.00  0.00    -0.386 N 
HETATM    9  H8  UNL     1      21.969  -1.446  51.961  1.00  0.00     0.160 HD
BRANCH   8  10
HETATM   10  C6  UNL     1      21.845   0.671  52.335  1.00  0.00     0.028 A 
HETATM   11  C7  UNL     1      20.779   1.226  53.014  1.00  0.00     0.032 A 
HETATM   12  C8  UNL     1      20.428   2.543  52.717  1.00  0.00     0.039 A 
HETATM   13  C9  UNL     1      21.141   3.261  51.766  1.00  0.00     0.068 A 
HETATM   14  C11 UNL     1      22.210   2.691  51.090  1.00  0.00     0.039 A 
HETATM   15  C12 UNL     1      22.549   1.388  51.390  1.00  0.00     0.032 A 
BRANCH  13  16
HETATM   16  O2  UNL     1      20.863   4.570  51.409  1.00  0.00    -0.356 OA
HETATM   17  C10 UNL     1      21.927   5.440  51.090  1.00  0.00     0.210 C 
ENDBRANCH  13  16
ENDBRANCH   8  10
ENDBRANCH   7   8
ENDBRANCH   6   7
ENDBRANCH   1   5
BRANCH   2  18
HETATM   18  C14 UNL     1      26.226   1.571  51.480  1.00  0.00     0.020 C 
HETATM   19  C15 UNL     1      26.514   2.678  50.856  1.00  0.00     0.089 C 
BRANCH  19  20
HETATM   20  N2  UNL     1      25.850   3.215  49.736  1.00  0.00    -0.352 N 
HETATM   21  H19 UNL     1      25.045   2.863  49.155  1.00  0.00     0.166 HD
BRANCH  20  22
HETATM   22  C16 UNL     1      26.360   4.486  49.296  1.00  0.00     0.129 C 
HETATM   23  N3  UNL     1      27.578   4.418  48.858  1.00  0.00    -0.226 NA
HETATM   24  C17 UNL     1      28.512   5.353  48.329  1.00  0.00     0.234 C 
HETATM   25  N4  UNL     1      28.652   6.645  48.305  1.00  0.00    -0.252 NA
HETATM   26  C18 UNL     1      27.887   7.729  48.830  1.00  0.00     0.142 C 
HETATM   27  C19 UNL     1      26.778   7.856  49.524  1.00  0.00     0.154 C 
HETATM   28  O3  UNL     1      26.032   6.782  49.937  1.00  0.00    -0.354 OA
HETATM   29  C20 UNL     1      25.404   5.644  49.422  1.00  0.00     0.253 C 
ENDBRANCH  20  22
ENDBRANCH  19  20
ENDBRANCH   2  18
TORSDOF 9
ENDMDL
MODEL 7
REMARK VINA RESULT:      -6.8      2.021      6.024
REMARK  9 active torsions:
REMARK  status: ('A' for Active; 'I' for Inactive)
REMARK    1  A    between atoms: O1_2  and  C2_3 
REMARK    2  A    between atoms: C2_3  and  C3_4 
REMARK    3  A    between atoms: C4_5  and  C5_6 
REMARK    4  A    between atoms: C5_6  and  N1_7 
REMARK    5  A    between atoms: N1_7  and  C6_8 
REMARK    6  A    between atoms: C9_11  and  O2_12 
REMARK    7  A    between atoms: C13_16  and  C14_17 
REMARK    8  A    between atoms: C15_18  and  N2_19 
REMARK    9  A    between atoms: N2_19  and  C16_20 
ROOT
HETATM    1  C2  UNL     1      21.101   0.691  51.895  1.00  0.00     0.068 C 
HETATM    2  C13 UNL     1      21.293  -0.216  52.837  1.00  0.00     0.038 C 
ENDROOT
BRANCH   1   3
HETATM    3  O1  UNL     1      19.864   1.307  51.688  1.00  0.00    -0.356 OA
HETATM    4  C1  UNL     1      19.110   1.063  50.535  1.00  0.00     0.210 C 
ENDBRANCH   1   3
BRANCH   1   5
HETATM    5  C3  UNL     1      22.136   1.149  50.980  1.00  0.00     0.034 C 
HETATM    6  C4  UNL     1      22.744   2.323  50.997  1.00  0.00    -0.005 C 
BRANCH   6   7
HETATM    7  C5  UNL     1      23.796   2.729  50.030  1.00  0.00     0.147 C 
BRANCH   7   8
HETATM    8  N1  UNL     1      23.794   4.134  49.727  1.00  0.00    -0.386 N 
HETATM    9  H8  UNL     1      22.912   4.685  49.819  1.00  0.00     0.160 HD
BRANCH   8  10
HETATM   10  C6  UNL     1      25.001   4.770  49.302  1.00  0.00     0.028 A 
HETATM   11  C7  UNL     1      24.969   6.104  48.952  1.00  0.00     0.032 A 
HETATM   12  C8  UNL     1      26.160   6.702  48.541  1.00  0.00     0.039 A 
HETATM   13  C9  UNL     1      27.334   5.963  48.492  1.00  0.00     0.068 A 
HETATM   14  C11 UNL     1      27.353   4.622  48.847  1.00  0.00     0.039 A 
HETATM   15  C12 UNL     1      26.169   4.039  49.252  1.00  0.00     0.032 A 
BRANCH  13  16
HETATM   16  O2  UNL     1      28.560   6.473  48.097  1.00  0.00    -0.356 OA
HETATM   17  C10 UNL     1      28.611   7.417  47.051  1.00  0.00     0.210 C 
ENDBRANCH  13  16
ENDBRANCH   8  10
ENDBRANCH   7   8
ENDBRANCH   6   7
ENDBRANCH   1   5
BRANCH   2  18
HETATM   18  C14 UNL     1      22.565  -0.879  53.083  1.00  0.00     0.020 C 
HETATM   19  C15 UNL     1      23.498  -0.290  53.775  1.00  0.00     0.089 C 
BRANCH  19  20
HETATM   20  N2  UNL     1      24.771  -0.805  54.090  1.00  0.00    -0.352 N 
HETATM   21  H19 UNL     1      25.092  -1.762  54.389  1.00  0.00     0.166 HD
BRANCH  20  22
HETATM   22  C16 UNL     1      25.840   0.152  53.988  1.00  0.00     0.129 C 
HETATM   23  N3  UNL     1      25.829   0.805  52.869  1.00  0.00    -0.226 NA
HETATM   24  C17 UNL     1      26.637   1.824  52.289  1.00  0.00     0.234 C 
HETATM   25  N4  UNL     1      27.820   2.325  52.486  1.00  0.00    -0.252 NA
HETATM   26  C18 UNL     1      28.864   2.048  53.419  1.00  0.00     0.142 C 
HETATM   27  C19 UNL     1      29.048   1.207  54.412  1.00  0.00     0.154 C 
HETATM   28  O3  UNL     1      28.103   0.289  54.793  1.00  0.00    -0.354 OA
HETATM   29  C20 UNL     1      26.761   0.220  55.179  1.00  0.00     0.253 C 
ENDBRANCH  20  22
ENDBRANCH  19  20
ENDBRANCH   2  18
TORSDOF 9
ENDMDL
MODEL 8
REMARK VINA RESULT:      -6.7      2.357      5.310
REMARK  9 active torsions:
REMARK  status: ('A' for Active; 'I' for Inactive)
REMARK    1  A    between atoms: O1_2  and  C2_3 
REMARK    2  A    between atoms: C2_3  and  C3_4 
REMARK    3  A    between atoms: C4_5  and  C5_6 
REMARK    4  A    between atoms: C5_6  and  N1_7 
REMARK    5  A    between atoms: N1_7  and  C6_8 
REMARK    6  A    between atoms: C9_11  and  O2_12 
REMARK    7  A    between atoms: C13_16  and  C14_17 
REMARK    8  A    between atoms: C15_18  and  N2_19 
REMARK    9  A    between atoms: N2_19  and  C16_20 
ROOT
HETATM    1  C2  UNL     1      22.304   3.347  49.645  1.00  0.00     0.068 C 
HETATM    2  C13 UNL     1      22.915   2.520  50.477  1.00  0.00     0.038 C 
ENDROOT
BRANCH   1   3
HETATM    3  O1  UNL     1      21.135   2.996  48.965  1.00  0.00    -0.356 OA
HETATM    4  C1  UNL     1      19.882   3.063  49.583  1.00  0.00     0.210 C 
ENDBRANCH   1   3
BRANCH   1   5
HETATM    5  C3  UNL     1      22.767   4.694  49.346  1.00  0.00     0.034 C 
HETATM    6  C4  UNL     1      23.218   5.135  48.184  1.00  0.00    -0.005 C 
BRANCH   6   7
HETATM    7  C5  UNL     1      23.677   6.527  47.944  1.00  0.00     0.147 C 
BRANCH   7   8
HETATM    8  N1  UNL     1      24.730   6.949  48.826  1.00  0.00    -0.386 N 
HETATM    9  H8  UNL     1      24.518   7.591  49.622  1.00  0.00     0.160 HD
BRANCH   8  10
HETATM   10  C6  UNL     1      26.065   6.489  48.608  1.00  0.00     0.028 A 
HETATM   11  C7  UNL     1      26.971   7.325  47.987  1.00  0.00     0.032 A 
HETATM   12  C8  UNL     1      28.268   6.852  47.786  1.00  0.00     0.039 A 
HETATM   13  C9  UNL     1      28.621   5.577  48.205  1.00  0.00     0.068 A 
HETATM   14  C11 UNL     1      27.701   4.746  48.828  1.00  0.00     0.039 A 
HETATM   15  C12 UNL     1      26.420   5.223  49.022  1.00  0.00     0.032 A 
BRANCH  13  16
HETATM   16  O2  UNL     1      29.882   5.026  48.047  1.00  0.00    -0.356 OA
HETATM   17  C10 UNL     1      30.996   5.879  47.908  1.00  0.00     0.210 C 
ENDBRANCH  13  16
ENDBRANCH   8  10
ENDBRANCH   7   8
ENDBRANCH   6   7
ENDBRANCH   1   5
BRANCH   2  18
HETATM   18  C14 UNL     1      24.133   2.848  51.203  1.00  0.00     0.020 C 
HETATM   19  C15 UNL     1      24.137   2.901  52.504  1.00  0.00     0.089 C 
BRANCH  19  20
HETATM   20  N2  UNL     1      25.233   3.203  53.335  1.00  0.00    -0.352 N 
HETATM   21  H19 UNL     1      25.484   4.063  53.890  1.00  0.00     0.166 HD
BRANCH  20  22
HETATM   22  C16 UNL     1      26.198   2.143  53.456  1.00  0.00     0.129 C 
HETATM   23  N3  UNL     1      25.989   1.384  54.486  1.00  0.00    -0.226 NA
HETATM   24  C17 UNL     1      26.628   0.239  55.039  1.00  0.00     0.234 C 
HETATM   25  N4  UNL     1      27.781  -0.352  54.928  1.00  0.00    -0.252 NA
HETATM   26  C18 UNL     1      28.955  -0.084  54.163  1.00  0.00     0.142 C 
HETATM   27  C19 UNL     1      29.334   0.831  53.298  1.00  0.00     0.154 C 
HETATM   28  O3  UNL     1      28.526   1.870  52.914  1.00  0.00    -0.354 OA
HETATM   29  C20 UNL     1      27.255   2.106  52.382  1.00  0.00     0.253 C 
ENDBRANCH  20  22
ENDBRANCH  19  20
ENDBRANCH   2  18
TORSDOF 9
ENDMDL
MODEL 9
REMARK VINA RESULT:      -6.7      2.867      6.686
REMARK  9 active torsions:
REMARK  status: ('A' for Active; 'I' for Inactive)
REMARK    1  A    between atoms: O1_2  and  C2_3 
REMARK    2  A    between atoms: C2_3  and  C3_4 
REMARK    3  A    between atoms: C4_5  and  C5_6 
REMARK    4  A    between atoms: C5_6  and  N1_7 
REMARK    5  A    between atoms: N1_7  and  C6_8 
REMARK    6  A    between atoms: C9_11  and  O2_12 
REMARK    7  A    between atoms: C13_16  and  C14_17 
REMARK    8  A    between atoms: C15_18  and  N2_19 
REMARK    9  A    between atoms: N2_19  and  C16_20 
ROOT
HETATM    1  C2  UNL     1      27.579  -0.007  53.620  1.00  0.00     0.068 C 
HETATM    2  C13 UNL     1      28.194   0.991  53.009  1.00  0.00     0.038 C 
ENDROOT
BRANCH   1   3
HETATM    3  O1  UNL     1      28.221  -1.210  53.921  1.00  0.00    -0.356 OA
HETATM    4  C1  UNL     1      29.552  -1.440  53.556  1.00  0.00     0.210 C 
ENDBRANCH   1   3
BRANCH   1   5
HETATM    5  C3  UNL     1      26.187   0.028  54.044  1.00  0.00     0.034 C 
HETATM    6  C4  UNL     1      25.243  -0.842  53.730  1.00  0.00    -0.005 C 
BRANCH   6   7
HETATM    7  C5  UNL     1      23.836  -0.747  54.198  1.00  0.00     0.147 C 
BRANCH   7   8
HETATM    8  N1  UNL     1      23.130   0.394  53.684  1.00  0.00    -0.386 N 
HETATM    9  H8  UNL     1      23.566   1.342  53.733  1.00  0.00     0.160 HD
BRANCH   8  10
HETATM   10  C6  UNL     1      21.834   0.226  53.107  1.00  0.00     0.028 A 
HETATM   11  C7  UNL     1      21.664   0.462  51.758  1.00  0.00     0.032 A 
HETATM   12  C8  UNL     1      20.388   0.291  51.219  1.00  0.00     0.039 A 
HETATM   13  C9  UNL     1      19.333  -0.105  52.029  1.00  0.00     0.068 A 
HETATM   14  C11 UNL     1      19.517  -0.339  53.384  1.00  0.00     0.039 A 
HETATM   15  C12 UNL     1      20.783  -0.167  53.908  1.00  0.00     0.032 A 
BRANCH  13  16
HETATM   16  O2  UNL     1      18.037  -0.299  51.580  1.00  0.00    -0.356 OA
HETATM   17  C10 UNL     1      17.115  -0.976  52.404  1.00  0.00     0.210 C 
ENDBRANCH  13  16
ENDBRANCH   8  10
ENDBRANCH   7   8
ENDBRANCH   6   7
ENDBRANCH   1   5
BRANCH   2  18
HETATM   18  C14 UNL     1      27.559   2.258  52.678  1.00  0.00     0.020 C 
HETATM   19  C15 UNL     1      26.957   2.421  51.535  1.00  0.00     0.089 C 
BRANCH  19  20
HETATM   20  N2  UNL     1      26.304   3.584  51.080  1.00  0.00    -0.352 N 
HETATM   21  H19 UNL     1      26.661   4.539  50.819  1.00  0.00     0.166 HD
BRANCH  20  22
HETATM   22  C16 UNL     1      24.878   3.449  50.945  1.00  0.00     0.129 C 
HETATM   23  N3  UNL     1      24.503   3.242  49.721  1.00  0.00    -0.226 NA
HETATM   24  C17 UNL     1      23.252   3.048  49.070  1.00  0.00     0.234 C 
HETATM   25  N4  UNL     1      21.998   3.250  49.344  1.00  0.00    -0.252 NA
HETATM   26  C18 UNL     1      21.309   3.781  50.475  1.00  0.00     0.142 C 
HETATM   27  C19 UNL     1      21.650   4.266  51.649  1.00  0.00     0.154 C 
HETATM   28  O3  UNL     1      22.953   4.362  52.064  1.00  0.00    -0.354 OA
HETATM   29  C20 UNL     1      24.093   3.569  52.226  1.00  0.00     0.253 C 
ENDBRANCH  20  22
ENDBRANCH  19  20
ENDBRANCH   2  18
TORSDOF 9
ENDMDL
