MODEL 1
REMARK VINA RESULT:      -7.9      0.000      0.000
REMARK  6 active torsions:
REMARK  status: ('A' for Active; 'I' for Inactive)
REMARK    1  A    between atoms: C2_2  and  O1_3 
REMARK    2  A    between atoms: O1_3  and  C3_4 
REMARK    3  A    between atoms: C7_9  and  N2_10 
REMARK    4  A    between atoms: C16_22  and  O2_23 
REMARK    5  A    between atoms: C16_22  and  C17_24 
REMARK    6  A    between atoms: C17_24  and  N3_25 
ROOT
HETATM    1  C3  UNL     1      25.454   1.660  51.578  1.00  0.00     0.095 A 
HETATM    2  C4  UNL     1      26.361   2.218  50.808  1.00  0.00     0.069 A 
HETATM    3  C5  UNL     1      26.288   3.536  50.221  1.00  0.00     0.070 A 
HETATM    4  N1  UNL     1      27.263   3.914  49.497  1.00  0.00    -0.282 NA
HETATM    5  C6  UNL     1      27.668   5.032  48.740  1.00  0.00     0.206 A 
HETATM    6  C7  UNL     1      26.777   6.177  48.714  1.00  0.00     0.029 A 
HETATM    7  C13 UNL     1      25.583   6.479  49.241  1.00  0.00     0.028 A 
HETATM    8  C14 UNL     1      24.804   5.583  50.086  1.00  0.00     0.023 A 
HETATM    9  C15 UNL     1      25.112   4.354  50.487  1.00  0.00     0.032 A 
HETATM   10  S1  UNL     1      23.749   3.792  51.498  1.00  0.00    -0.081 SA
HETATM   11  C16 UNL     1      24.163   2.141  52.068  1.00  0.00     0.175 A 
ENDROOT
BRANCH  11  12
HETATM   12  O2  UNL     1      24.268   2.232  53.475  1.00  0.00    -0.371 OA
HETATM   13  H17 UNL     1      24.329   3.203  53.714  1.00  0.00     0.212 HD
ENDBRANCH  11  12
BRANCH  11  14
HETATM   14  C17 UNL     1      23.101   1.112  51.814  1.00  0.00     0.174 C 
BRANCH  14  15
HETATM   15  N3  UNL     1      22.562   0.463  52.949  1.00  0.00    -0.404 N 
HETATM   16  C18 UNL     1      22.995  -0.849  53.242  1.00  0.00     0.143 C 
HETATM   17  C19 UNL     1      22.817  -1.062  54.745  1.00  0.00     0.187 C 
HETATM   18  O3  UNL     1      21.457  -0.958  54.994  1.00  0.00    -0.388 OA
HETATM   19  C20 UNL     1      20.928   0.287  54.702  1.00  0.00     0.187 C 
HETATM   20  C21 UNL     1      21.223   0.774  53.318  1.00  0.00     0.143 C 
ENDBRANCH  14  15
ENDBRANCH  11  14
BRANCH   1  21
HETATM   21  O1  UNL     1      25.797   0.360  52.002  1.00  0.00    -0.352 OA
BRANCH  21  22
HETATM   22  C2  UNL     1      27.028   0.096  52.619  1.00  0.00     0.171 C 
HETATM   23  C1  UNL     1      27.153  -1.418  52.829  1.00  0.00     0.034 C 
ENDBRANCH  21  22
ENDBRANCH   1  21
BRANCH   6  24
HETATM   24  N2  UNL     1      27.274   7.262  47.939  1.00  0.00    -0.348 N 
HETATM   25  C8  UNL     1      28.412   7.278  47.033  1.00  0.00     0.154 C 
HETATM   26  C9  UNL     1      29.413   8.192  47.653  1.00  0.00     0.012 C 
HETATM   27  C10 UNL     1      28.983   9.231  48.361  1.00  0.00     0.014 C 
HETATM   28 CL1  UNL     1      30.025  10.406  49.159  1.00  0.00    -0.089 Cl
HETATM   29  C11 UNL     1      27.555   9.599  48.617  1.00  0.00     0.110 C 
HETATM   30  C12 UNL     1      26.630   8.568  47.991  1.00  0.00     0.277 C 
HETATM   31  F1  UNL     1      26.356   8.924  46.689  1.00  0.00    -0.226 F 
ENDBRANCH   6  24
TORSDOF 6
ENDMDL
MODEL 2
REMARK VINA RESULT:      -7.9      2.076      3.525
REMARK  6 active torsions:
REMARK  status: ('A' for Active; 'I' for Inactive)
REMARK    1  A    between atoms: C2_2  and  O1_3 
REMARK    2  A    between atoms: O1_3  and  C3_4 
REMARK    3  A    between atoms: C7_9  and  N2_10 
REMARK    4  A    between atoms: C16_22  and  O2_23 
REMARK    5  A    between atoms: C16_22  and  C17_24 
REMARK    6  A    between atoms: C17_24  and  N3_25 
ROOT
HETATM    1  C3  UNL     1      23.657   3.859  51.718  1.00  0.00     0.095 A 
HETATM    2  C4  UNL     1      24.015   4.991  51.157  1.00  0.00     0.069 A 
HETATM    3  C5  UNL     1      25.169   5.199  50.313  1.00  0.00     0.070 A 
HETATM    4  N1  UNL     1      25.362   6.370  49.855  1.00  0.00    -0.282 NA
HETATM    5  C6  UNL     1      26.276   7.066  49.038  1.00  0.00     0.206 A 
HETATM    6  C7  UNL     1      27.379   6.308  48.478  1.00  0.00     0.029 A 
HETATM    7  C13 UNL     1      27.804   5.039  48.538  1.00  0.00     0.028 A 
HETATM    8  C14 UNL     1      27.145   3.984  49.297  1.00  0.00     0.023 A 
HETATM    9  C15 UNL     1      26.043   4.067  50.036  1.00  0.00     0.032 A 
HETATM   10  S1  UNL     1      25.756   2.433  50.705  1.00  0.00    -0.081 SA
HETATM   11  C16 UNL     1      24.255   2.524  51.685  1.00  0.00     0.175 A 
ENDROOT
BRANCH  11  12
HETATM   12  O2  UNL     1      23.323   1.674  51.046  1.00  0.00    -0.371 OA
HETATM   13  H17 UNL     1      22.826   1.176  51.760  1.00  0.00     0.212 HD
ENDBRANCH  11  12
BRANCH  11  14
HETATM   14  C17 UNL     1      24.391   1.988  53.080  1.00  0.00     0.174 C 
BRANCH  14  15
HETATM   15  N3  UNL     1      25.413   1.034  53.296  1.00  0.00    -0.404 N 
HETATM   16  C18 UNL     1      25.083  -0.336  53.204  1.00  0.00     0.143 C 
HETATM   17  C19 UNL     1      26.360  -1.088  52.829  1.00  0.00     0.187 C 
HETATM   18  O3  UNL     1      27.248  -0.895  53.877  1.00  0.00    -0.388 OA
HETATM   19  C20 UNL     1      27.605   0.428  54.070  1.00  0.00     0.187 C 
HETATM   20  C21 UNL     1      26.448   1.366  54.214  1.00  0.00     0.143 C 
ENDBRANCH  14  15
ENDBRANCH  11  14
BRANCH   1  21
HETATM   21  O1  UNL     1      22.483   3.958  52.491  1.00  0.00    -0.352 OA
BRANCH  21  22
HETATM   22  C2  UNL     1      21.248   4.263  51.905  1.00  0.00     0.171 C 
HETATM   23  C1  UNL     1      20.261   3.135  52.230  1.00  0.00     0.034 C 
ENDBRANCH  21  22
ENDBRANCH   1  21
BRANCH   6  24
HETATM   24  N2  UNL     1      28.240   7.088  47.656  1.00  0.00    -0.348 N 
HETATM   25  C8  UNL     1      29.653   6.882  47.378  1.00  0.00     0.154 C 
HETATM   26  C9  UNL     1      30.363   8.039  47.992  1.00  0.00     0.012 C 
HETATM   27  C10 UNL     1      29.755   9.220  48.030  1.00  0.00     0.014 C 
HETATM   28 CL1  UNL     1      30.445  10.688  48.717  1.00  0.00    -0.089 Cl
HETATM   29  C11 UNL     1      28.387   9.528  47.507  1.00  0.00     0.110 C 
HETATM   30  C12 UNL     1      27.739   8.266  46.961  1.00  0.00     0.277 C 
HETATM   31  F1  UNL     1      28.073   8.113  45.635  1.00  0.00    -0.226 F 
ENDBRANCH   6  24
TORSDOF 6
ENDMDL
MODEL 3
REMARK VINA RESULT:      -7.6      5.736      8.404
REMARK  6 active torsions:
REMARK  status: ('A' for Active; 'I' for Inactive)
REMARK    1  A    between atoms: C2_2  and  O1_3 
REMARK    2  A    between atoms: O1_3  and  C3_4 
REMARK    3  A    between atoms: C7_9  and  N2_10 
REMARK    4  A    between atoms: C16_22  and  O2_23 
REMARK    5  A    between atoms: C16_22  and  C17_24 
REMARK    6  A    between atoms: C17_24  and  N3_25 
ROOT
HETATM    1  C3  UNL     1      19.021   1.488  51.347  1.00  0.00     0.095 A 
HETATM    2  C4  UNL     1      19.783   0.512  51.787  1.00  0.00     0.069 A 
HETATM    3  C5  UNL     1      21.177   0.615  52.151  1.00  0.00     0.070 A 
HETATM    4  N1  UNL     1      21.759  -0.440  52.559  1.00  0.00    -0.282 NA
HETATM    5  C6  UNL     1      23.027  -0.860  53.010  1.00  0.00     0.206 A 
HETATM    6  C7  UNL     1      24.073   0.143  53.086  1.00  0.00     0.029 A 
HETATM    7  C13 UNL     1      24.174   1.451  52.814  1.00  0.00     0.028 A 
HETATM    8  C14 UNL     1      23.084   2.274  52.306  1.00  0.00     0.023 A 
HETATM    9  C15 UNL     1      21.835   1.909  52.033  1.00  0.00     0.032 A 
HETATM   10  S1  UNL     1      20.995   3.374  51.443  1.00  0.00    -0.081 SA
HETATM   11  C16 UNL     1      19.299   2.902  51.095  1.00  0.00     0.175 A 
ENDROOT
BRANCH  11  12
HETATM   12  O2  UNL     1      18.498   3.643  51.993  1.00  0.00    -0.371 OA
HETATM   13  H17 UNL     1      17.584   3.726  51.589  1.00  0.00     0.212 HD
ENDBRANCH  11  12
BRANCH  11  14
HETATM   14  C17 UNL     1      18.818   3.283  49.725  1.00  0.00     0.174 C 
BRANCH  14  15
HETATM   15  N3  UNL     1      19.805   3.682  48.794  1.00  0.00    -0.404 N 
HETATM   16  C18 UNL     1      19.765   5.003  48.297  1.00  0.00     0.143 C 
HETATM   17  C19 UNL     1      21.188   5.376  47.881  1.00  0.00     0.187 C 
HETATM   18  O3  UNL     1      21.535   4.507  46.857  1.00  0.00    -0.388 OA
HETATM   19  C20 UNL     1      21.565   3.178  47.239  1.00  0.00     0.187 C 
HETATM   20  C21 UNL     1      20.314   2.696  47.903  1.00  0.00     0.143 C 
ENDBRANCH  14  15
ENDBRANCH  11  14
BRANCH   1  21
HETATM   21  O1  UNL     1      17.698   1.090  51.069  1.00  0.00    -0.352 OA
BRANCH  21  22
HETATM   22  C2  UNL     1      17.420  -0.147  50.471  1.00  0.00     0.171 C 
HETATM   23  C1  UNL     1      16.173   0.006  49.591  1.00  0.00     0.034 C 
ENDBRANCH  21  22
ENDBRANCH   1  21
BRANCH   6  24
HETATM   24  N2  UNL     1      25.312  -0.367  53.565  1.00  0.00    -0.348 N 
HETATM   25  C8  UNL     1      25.748  -0.530  54.944  1.00  0.00     0.154 C 
HETATM   26  C9  UNL     1      26.883   0.419  55.127  1.00  0.00     0.012 C 
HETATM   27  C10 UNL     1      27.682   0.674  54.096  1.00  0.00     0.014 C 
HETATM   28 CL1  UNL     1      29.063   1.766  54.138  1.00  0.00    -0.089 Cl
HETATM   29  C11 UNL     1      27.565   0.095  52.721  1.00  0.00     0.110 C 
HETATM   30  C12 UNL     1      26.344  -0.808  52.636  1.00  0.00     0.277 C 
HETATM   31  F1  UNL     1      26.689  -2.087  53.008  1.00  0.00    -0.226 F 
ENDBRANCH   6  24
TORSDOF 6
ENDMDL
MODEL 4
REMARK VINA RESULT:      -7.5      5.341      9.197
REMARK  6 active torsions:
REMARK  status: ('A' for Active; 'I' for Inactive)
REMARK    1  A    between atoms: C2_2  and  O1_3 
REMARK    2  A    between atoms: O1_3  and  C3_4 
REMARK    3  A    between atoms: C7_9  and  N2_10 
REMARK    4  A    between atoms: C16_22  and  O2_23 
REMARK    5  A    between atoms: C16_22  and  C17_24 
REMARK    6  A    between atoms: C17_24  and  N3_25 
ROOT
HETATM    1  C3  UNL     1      24.019   3.302  51.297  1.00  0.00     0.095 A 
HETATM    2  C4  UNL     1      22.837   3.246  50.728  1.00  0.00     0.069 A 
HETATM    3  C5  UNL     1      21.787   2.302  51.032  1.00  0.00     0.070 A 
HETATM    4  N1  UNL     1      20.701   2.395  50.377  1.00  0.00    -0.282 NA
HETATM    5  C6  UNL     1      19.443   1.765  50.287  1.00  0.00     0.206 A 
HETATM    6  C7  UNL     1      19.189   0.653  51.184  1.00  0.00     0.029 A 
HETATM    7  C13 UNL     1      19.878   0.008  52.135  1.00  0.00     0.028 A 
HETATM    8  C14 UNL     1      21.240   0.337  52.534  1.00  0.00     0.023 A 
HETATM    9  C15 UNL     1      22.027   1.300  52.063  1.00  0.00     0.032 A 
HETATM   10  S1  UNL     1      23.569   1.182  52.959  1.00  0.00    -0.081 SA
HETATM   11  C16 UNL     1      24.633   2.493  52.350  1.00  0.00     0.175 A 
ENDROOT
BRANCH  11  12
HETATM   12  O2  UNL     1      24.856   3.353  53.450  1.00  0.00    -0.371 OA
HETATM   13  H17 UNL     1      24.096   4.005  53.485  1.00  0.00     0.212 HD
ENDBRANCH  11  12
BRANCH  11  14
HETATM   14  C17 UNL     1      25.995   2.037  51.919  1.00  0.00     0.174 C 
BRANCH  14  15
HETATM   15  N3  UNL     1      26.568   0.969  52.649  1.00  0.00    -0.404 N 
HETATM   16  C18 UNL     1      27.546   1.269  53.622  1.00  0.00     0.143 C 
HETATM   17  C19 UNL     1      27.519   0.145  54.658  1.00  0.00     0.187 C 
HETATM   18  O3  UNL     1      27.877  -1.014  53.984  1.00  0.00    -0.388 OA
HETATM   19  C20 UNL     1      26.993  -1.372  52.981  1.00  0.00     0.187 C 
HETATM   20  C21 UNL     1      26.706  -0.286  51.992  1.00  0.00     0.143 C 
ENDBRANCH  14  15
ENDBRANCH  11  14
BRANCH   1  21
HETATM   21  O1  UNL     1      24.839   4.332  50.794  1.00  0.00    -0.352 OA
BRANCH  21  22
HETATM   22  C2  UNL     1      24.923   4.591  49.419  1.00  0.00     0.171 C 
HETATM   23  C1  UNL     1      26.385   4.887  49.066  1.00  0.00     0.034 C 
ENDBRANCH  21  22
ENDBRANCH   1  21
BRANCH   6  24
HETATM   24  N2  UNL     1      17.892   0.090  51.034  1.00  0.00    -0.348 N 
HETATM   25  C8  UNL     1      17.167  -0.193  49.804  1.00  0.00     0.154 C 
HETATM   26  C9  UNL     1      15.992   0.724  49.803  1.00  0.00     0.012 C 
HETATM   27  C10 UNL     1      15.433   1.055  50.962  1.00  0.00     0.014 C 
HETATM   28 CL1  UNL     1      14.044   2.123  51.142  1.00  0.00    -0.089 Cl
HETATM   29  C11 UNL     1      15.867   0.594  52.318  1.00  0.00     0.110 C 
HETATM   30  C12 UNL     1      17.104  -0.283  52.201  1.00  0.00     0.277 C 
HETATM   31  F1  UNL     1      16.724  -1.593  52.017  1.00  0.00    -0.226 F 
ENDBRANCH   6  24
TORSDOF 6
ENDMDL
MODEL 5
REMARK VINA RESULT:      -7.4      2.045      2.813
REMARK  6 active torsions:
REMARK  status: ('A' for Active; 'I' for Inactive)
REMARK    1  A    between atoms: C2_2  and  O1_3 
REMARK    2  A    between atoms: O1_3  and  C3_4 
REMARK    3  A    between atoms: C7_9  and  N2_10 
REMARK    4  A    between atoms: C16_22  and  O2_23 
REMARK    5  A    between atoms: C16_22  and  C17_24 
REMARK    6  A    between atoms: C17_24  and  N3_25 
ROOT
HETATM    1  C3  UNL     1      25.234   2.249  51.335  1.00  0.00     0.095 A 
HETATM    2  C4  UNL     1      26.239   2.639  50.584  1.00  0.00     0.069 A 
HETATM    3  C5  UNL     1      26.377   3.926  49.944  1.00  0.00     0.070 A 
HETATM    4  N1  UNL     1      27.422   4.130  49.249  1.00  0.00    -0.282 NA
HETATM    5  C6  UNL     1      28.010   5.145  48.466  1.00  0.00     0.206 A 
HETATM    6  C7  UNL     1      27.293   6.401  48.356  1.00  0.00     0.029 A 
HETATM    7  C13 UNL     1      26.135   6.891  48.818  1.00  0.00     0.028 A 
HETATM    8  C14 UNL     1      25.205   6.153  49.662  1.00  0.00     0.023 A 
HETATM    9  C15 UNL     1      25.320   4.912  50.125  1.00  0.00     0.032 A 
HETATM   10  S1  UNL     1      23.853   4.594  51.096  1.00  0.00    -0.081 SA
HETATM   11  C16 UNL     1      24.007   2.929  51.749  1.00  0.00     0.175 A 
ENDROOT
BRANCH  11  12
HETATM   12  O2  UNL     1      24.070   3.068  53.154  1.00  0.00    -0.371 OA
HETATM   13  H17 UNL     1      25.008   2.859  53.439  1.00  0.00     0.212 HD
ENDBRANCH  11  12
BRANCH  11  14
HETATM   14  C17 UNL     1      22.820   2.049  51.489  1.00  0.00     0.174 C 
BRANCH  14  15
HETATM   15  N3  UNL     1      21.997   2.400  50.393  1.00  0.00    -0.404 N 
HETATM   16  C18 UNL     1      20.665   2.792  50.650  1.00  0.00     0.143 C 
HETATM   17  C19 UNL     1      20.226   3.696  49.499  1.00  0.00     0.187 C 
HETATM   18  O3  UNL     1      20.265   2.914  48.354  1.00  0.00    -0.388 OA
HETATM   19  C20 UNL     1      21.529   2.449  48.037  1.00  0.00     0.187 C 
HETATM   20  C21 UNL     1      22.224   1.736  49.154  1.00  0.00     0.143 C 
ENDBRANCH  14  15
ENDBRANCH  11  14
BRANCH   1  21
HETATM   21  O1  UNL     1      25.372   0.935  51.825  1.00  0.00    -0.352 OA
BRANCH  21  22
HETATM   22  C2  UNL     1      26.633   0.340  51.968  1.00  0.00     0.171 C 
HETATM   23  C1  UNL     1      26.459  -1.005  52.685  1.00  0.00     0.034 C 
ENDBRANCH  21  22
ENDBRANCH   1  21
BRANCH   6  24
HETATM   24  N2  UNL     1      27.967   7.369  47.561  1.00  0.00    -0.348 N 
HETATM   25  C8  UNL     1      29.306   7.300  46.996  1.00  0.00     0.154 C 
HETATM   26  C9  UNL     1      30.096   8.358  47.687  1.00  0.00     0.012 C 
HETATM   27  C10 UNL     1      29.483   9.474  48.067  1.00  0.00     0.014 C 
HETATM   28 CL1  UNL     1      30.262  10.821  48.892  1.00  0.00    -0.089 Cl
HETATM   29  C11 UNL     1      28.035   9.798  47.872  1.00  0.00     0.110 C 
HETATM   30  C12 UNL     1      27.320   8.629  47.215  1.00  0.00     0.277 C 
HETATM   31  F1  UNL     1      27.400   8.749  45.846  1.00  0.00    -0.226 F 
ENDBRANCH   6  24
TORSDOF 6
ENDMDL
MODEL 6
REMARK VINA RESULT:      -7.3      2.817      4.684
REMARK  6 active torsions:
REMARK  status: ('A' for Active; 'I' for Inactive)
REMARK    1  A    between atoms: C2_2  and  O1_3 
REMARK    2  A    between atoms: O1_3  and  C3_4 
REMARK    3  A    between atoms: C7_9  and  N2_10 
REMARK    4  A    between atoms: C16_22  and  O2_23 
REMARK    5  A    between atoms: C16_22  and  C17_24 
REMARK    6  A    between atoms: C17_24  and  N3_25 
ROOT
HETATM    1  C3  UNL     1      23.433   5.535  49.892  1.00  0.00     0.095 A 
HETATM    2  C4  UNL     1      24.250   6.525  49.612  1.00  0.00     0.069 A 
HETATM    3  C5  UNL     1      25.640   6.405  49.239  1.00  0.00     0.070 A 
HETATM    4  N1  UNL     1      26.282   7.478  49.003  1.00  0.00    -0.282 NA
HETATM    5  C6  UNL     1      27.575   7.895  48.626  1.00  0.00     0.206 A 
HETATM    6  C7  UNL     1      28.568   6.862  48.397  1.00  0.00     0.029 A 
HETATM    7  C13 UNL     1      28.596   5.524  48.461  1.00  0.00     0.028 A 
HETATM    8  C14 UNL     1      27.459   4.692  48.832  1.00  0.00     0.023 A 
HETATM    9  C15 UNL     1      26.228   5.075  49.155  1.00  0.00     0.032 A 
HETATM   10  S1  UNL     1      25.306   3.584  49.506  1.00  0.00    -0.081 SA
HETATM   11  C16 UNL     1      23.633   4.086  49.920  1.00  0.00     0.175 A 
ENDROOT
BRANCH  11  12
HETATM   12  O2  UNL     1      22.804   3.538  48.914  1.00  0.00    -0.371 OA
HETATM   13  H17 UNL     1      21.878   3.894  49.056  1.00  0.00     0.212 HD
ENDBRANCH  11  12
BRANCH  11  14
HETATM   14  C17 UNL     1      23.118   3.522  51.211  1.00  0.00     0.174 C 
BRANCH  14  15
HETATM   15  N3  UNL     1      24.008   2.704  51.947  1.00  0.00    -0.404 N 
HETATM   16  C18 UNL     1      23.872   1.302  51.844  1.00  0.00     0.143 C 
HETATM   17  C19 UNL     1      25.239   0.689  52.147  1.00  0.00     0.187 C 
HETATM   18  O3  UNL     1      25.536   1.030  53.458  1.00  0.00    -0.388 OA
HETATM   19  C20 UNL     1      25.653   2.393  53.669  1.00  0.00     0.187 C 
HETATM   20  C21 UNL     1      24.482   3.195  53.195  1.00  0.00     0.143 C 
ENDBRANCH  14  15
ENDBRANCH  11  14
BRANCH   1  21
HETATM   21  O1  UNL     1      22.130   5.955  50.225  1.00  0.00    -0.352 OA
BRANCH  21  22
HETATM   22  C2  UNL     1      21.882   7.247  50.709  1.00  0.00     0.171 C 
HETATM   23  C1  UNL     1      20.675   7.826  49.960  1.00  0.00     0.034 C 
ENDBRANCH  21  22
ENDBRANCH   1  21
BRANCH   6  24
HETATM   24  N2  UNL     1      29.836   7.373  48.007  1.00  0.00    -0.348 N 
HETATM   25  C8  UNL     1      30.487   7.281  46.709  1.00  0.00     0.154 C 
HETATM   26  C9  UNL     1      31.690   6.425  46.916  1.00  0.00     0.012 C 
HETATM   27  C10 UNL     1      32.319   6.472  48.086  1.00  0.00     0.014 C 
HETATM   28 CL1  UNL     1      33.750   5.532  48.499  1.00  0.00    -0.089 Cl
HETATM   29  C11 UNL     1      31.940   7.317  49.261  1.00  0.00     0.110 C 
HETATM   30  C12 UNL     1      30.671   8.097  48.958  1.00  0.00     0.277 C 
HETATM   31  F1  UNL     1      30.996   9.295  48.363  1.00  0.00    -0.226 F 
ENDBRANCH   6  24
TORSDOF 6
ENDMDL
MODEL 7
REMARK VINA RESULT:      -7.3      5.307      9.637
REMARK  6 active torsions:
REMARK  status: ('A' for Active; 'I' for Inactive)
REMARK    1  A    between atoms: C2_2  and  O1_3 
REMARK    2  A    between atoms: O1_3  and  C3_4 
REMARK    3  A    between atoms: C7_9  and  N2_10 
REMARK    4  A    between atoms: C16_22  and  O2_23 
REMARK    5  A    between atoms: C16_22  and  C17_24 
REMARK    6  A    between atoms: C17_24  and  N3_25 
ROOT
HETATM    1  C3  UNL     1      30.205   6.288  47.576  1.00  0.00     0.095 A 
HETATM    2  C4  UNL     1      29.467   5.350  48.124  1.00  0.00     0.069 A 
HETATM    3  C5  UNL     1      28.065   5.452  48.457  1.00  0.00     0.070 A 
HETATM    4  N1  UNL     1      27.510   4.437  48.986  1.00  0.00    -0.282 NA
HETATM    5  C6  UNL     1      26.249   4.035  49.472  1.00  0.00     0.206 A 
HETATM    6  C7  UNL     1      25.163   4.994  49.381  1.00  0.00     0.029 A 
HETATM    7  C13 UNL     1      25.025   6.252  48.941  1.00  0.00     0.028 A 
HETATM    8  C14 UNL     1      26.102   7.049  48.369  1.00  0.00     0.023 A 
HETATM    9  C15 UNL     1      27.370   6.700  48.174  1.00  0.00     0.032 A 
HETATM   10  S1  UNL     1      28.180   8.116  47.441  1.00  0.00    -0.081 SA
HETATM   11  C16 UNL     1      29.888   7.651  47.148  1.00  0.00     0.175 A 
ENDROOT
BRANCH  11  12
HETATM   12  O2  UNL     1      30.066   7.692  45.746  1.00  0.00    -0.371 OA
HETATM   13  H17 UNL     1      29.400   8.342  45.374  1.00  0.00     0.212 HD
ENDBRANCH  11  12
BRANCH  11  14
HETATM   14  C17 UNL     1      30.898   8.611  47.706  1.00  0.00     0.174 C 
BRANCH  14  15
HETATM   15  N3  UNL     1      30.538   9.979  47.707  1.00  0.00    -0.404 N 
HETATM   16  C18 UNL     1      30.940  10.781  46.616  1.00  0.00     0.143 C 
HETATM   17  C19 UNL     1      29.948  11.939  46.511  1.00  0.00     0.187 C 
HETATM   18  O3  UNL     1      30.071  12.664  47.687  1.00  0.00    -0.388 OA
HETATM   19  C20 UNL     1      29.732  11.948  48.823  1.00  0.00     0.187 C 
HETATM   20  C21 UNL     1      30.444  10.639  48.964  1.00  0.00     0.143 C 
ENDBRANCH  14  15
ENDBRANCH  11  14
BRANCH   1  21
HETATM   21  O1  UNL     1      31.544   5.903  47.367  1.00  0.00    -0.352 OA
BRANCH  21  22
HETATM   22  C2  UNL     1      32.220   5.087  48.285  1.00  0.00     0.171 C 
HETATM   23  C1  UNL     1      32.784   3.873  47.537  1.00  0.00     0.034 C 
ENDBRANCH  21  22
ENDBRANCH   1  21
BRANCH   6  24
HETATM   24  N2  UNL     1      23.927   4.497  49.880  1.00  0.00    -0.348 N 
HETATM   25  C8  UNL     1      23.066   5.078  50.899  1.00  0.00     0.154 C 
HETATM   26  C9  UNL     1      23.096   4.127  52.048  1.00  0.00     0.012 C 
HETATM   27  C10 UNL     1      23.224   2.827  51.803  1.00  0.00     0.014 C 
HETATM   28 CL1  UNL     1      23.277   1.571  53.036  1.00  0.00    -0.089 Cl
HETATM   29  C11 UNL     1      23.348   2.188  50.456  1.00  0.00     0.110 C 
HETATM   30  C12 UNL     1      23.366   3.252  49.371  1.00  0.00     0.277 C 
HETATM   31  F1  UNL     1      22.077   3.533  48.978  1.00  0.00    -0.226 F 
ENDBRANCH   6  24
TORSDOF 6
ENDMDL
MODEL 8
REMARK VINA RESULT:      -7.1      1.824      2.182
REMARK  6 active torsions:
REMARK  status: ('A' for Active; 'I' for Inactive)
REMARK    1  A    between atoms: C2_2  and  O1_3 
REMARK    2  A    between atoms: O1_3  and  C3_4 
REMARK    3  A    between atoms: C7_9  and  N2_10 
REMARK    4  A    between atoms: C16_22  and  O2_23 
REMARK    5  A    between atoms: C16_22  and  C17_24 
REMARK    6  A    between atoms: C17_24  and  N3_25 
ROOT
HETATM    1  C3  UNL     1      25.492   2.483  50.805  1.00  0.00     0.095 A 
HETATM    2  C4  UNL     1      26.539   3.013  50.215  1.00  0.00     0.069 A 
HETATM    3  C5  UNL     1      26.592   4.303  49.569  1.00  0.00     0.070 A 
HETATM    4  N1  UNL     1      27.697   4.656  49.046  1.00  0.00    -0.282 NA
HETATM    5  C6  UNL     1      28.253   5.743  48.340  1.00  0.00     0.206 A 
HETATM    6  C7  UNL     1      27.389   6.879  48.079  1.00  0.00     0.029 A 
HETATM    7  C13 UNL     1      26.112   7.196  48.334  1.00  0.00     0.028 A 
HETATM    8  C14 UNL     1      25.173   6.333  49.038  1.00  0.00     0.023 A 
HETATM    9  C15 UNL     1      25.389   5.124  49.549  1.00  0.00     0.032 A 
HETATM   10  S1  UNL     1      23.844   4.598  50.280  1.00  0.00    -0.081 SA
HETATM   11  C16 UNL     1      24.128   2.976  50.996  1.00  0.00     0.175 A 
ENDROOT
BRANCH  11  12
HETATM   12  O2  UNL     1      23.939   3.129  52.388  1.00  0.00    -0.371 OA
HETATM   13  H17 UNL     1      23.101   3.662  52.525  1.00  0.00     0.212 HD
ENDBRANCH  11  12
BRANCH  11  14
HETATM   14  C17 UNL     1      23.140   1.930  50.573  1.00  0.00     0.174 C 
BRANCH  14  15
HETATM   15  N3  UNL     1      22.097   1.637  51.483  1.00  0.00    -0.404 N 
HETATM   16  C18 UNL     1      22.074   0.363  52.092  1.00  0.00     0.143 C 
HETATM   17  C19 UNL     1      21.332   0.506  53.421  1.00  0.00     0.187 C 
HETATM   18  O3  UNL     1      20.038   0.891  53.104  1.00  0.00    -0.388 OA
HETATM   19  C20 UNL     1      19.959   2.117  52.468  1.00  0.00     0.187 C 
HETATM   20  C21 UNL     1      20.829   2.243  51.257  1.00  0.00     0.143 C 
ENDBRANCH  14  15
ENDBRANCH  11  14
BRANCH   1  21
HETATM   21  O1  UNL     1      25.736   1.206  51.348  1.00  0.00    -0.352 OA
BRANCH  21  22
HETATM   22  C2  UNL     1      26.933   0.915  52.017  1.00  0.00     0.171 C 
HETATM   23  C1  UNL     1      26.929  -0.569  52.404  1.00  0.00     0.034 C 
ENDBRANCH  21  22
ENDBRANCH   1  21
BRANCH   6  24
HETATM   24  N2  UNL     1      28.037   7.932  47.376  1.00  0.00    -0.348 N 
HETATM   25  C8  UNL     1      27.647   8.554  46.120  1.00  0.00     0.154 C 
HETATM   26  C9  UNL     1      28.715   8.201  45.142  1.00  0.00     0.012 C 
HETATM   27  C10 UNL     1      29.965   8.067  45.574  1.00  0.00     0.014 C 
HETATM   28 CL1  UNL     1      31.343   7.655  44.558  1.00  0.00    -0.089 Cl
HETATM   29  C11 UNL     1      30.436   8.235  46.984  1.00  0.00     0.110 C 
HETATM   30  C12 UNL     1      29.258   8.533  47.898  1.00  0.00     0.277 C 
HETATM   31  F1  UNL     1      29.041   9.891  47.943  1.00  0.00    -0.226 F 
ENDBRANCH   6  24
TORSDOF 6
ENDMDL
MODEL 9
REMARK VINA RESULT:      -7.1      2.405      3.948
REMARK  6 active torsions:
REMARK  status: ('A' for Active; 'I' for Inactive)
REMARK    1  A    between atoms: C2_2  and  O1_3 
REMARK    2  A    between atoms: O1_3  and  C3_4 
REMARK    3  A    between atoms: C7_9  and  N2_10 
REMARK    4  A    between atoms: C16_22  and  O2_23 
REMARK    5  A    between atoms: C16_22  and  C17_24 
REMARK    6  A    between atoms: C17_24  and  N3_25 
ROOT
HETATM    1  C3  UNL     1      22.929   3.449  51.862  1.00  0.00     0.095 A 
HETATM    2  C4  UNL     1      23.020   4.686  51.428  1.00  0.00     0.069 A 
HETATM    3  C5  UNL     1      24.115   5.246  50.670  1.00  0.00     0.070 A 
HETATM    4  N1  UNL     1      24.034   6.470  50.333  1.00  0.00    -0.282 NA
HETATM    5  C6  UNL     1      24.778   7.442  49.634  1.00  0.00     0.206 A 
HETATM    6  C7  UNL     1      26.047   7.029  49.066  1.00  0.00     0.029 A 
HETATM    7  C13 UNL     1      26.763   5.897  49.031  1.00  0.00     0.028 A 
HETATM    8  C14 UNL     1      26.355   4.644  49.653  1.00  0.00     0.023 A 
HETATM    9  C15 UNL     1      25.244   4.387  50.336  1.00  0.00     0.032 A 
HETATM   10  S1  UNL     1      25.338   2.672  50.835  1.00  0.00    -0.081 SA
HETATM   11  C16 UNL     1      23.831   2.304  51.737  1.00  0.00     0.175 A 
ENDROOT
BRANCH  11  12
HETATM   12  O2  UNL     1      23.150   1.328  50.974  1.00  0.00    -0.371 OA
HETATM   13  H17 UNL     1      23.804   0.599  50.760  1.00  0.00     0.212 HD
ENDBRANCH  11  12
BRANCH  11  14
HETATM   14  C17 UNL     1      24.051   1.676  53.082  1.00  0.00     0.174 C 
BRANCH  14  15
HETATM   15  N3  UNL     1      25.214   0.885  53.230  1.00  0.00    -0.404 N 
HETATM   16  C18 UNL     1      25.087  -0.519  53.144  1.00  0.00     0.143 C 
HETATM   17  C19 UNL     1      26.438  -1.072  52.689  1.00  0.00     0.187 C 
HETATM   18  O3  UNL     1      27.346  -0.750  53.686  1.00  0.00    -0.388 OA
HETATM   19  C20 UNL     1      27.513   0.612  53.872  1.00  0.00     0.187 C 
HETATM   20  C21 UNL     1      26.239   1.367  54.091  1.00  0.00     0.143 C 
ENDBRANCH  14  15
ENDBRANCH  11  14
BRANCH   1  21
HETATM   21  O1  UNL     1      21.743   3.189  52.577  1.00  0.00    -0.352 OA
BRANCH  21  22
HETATM   22  C2  UNL     1      20.487   3.516  52.049  1.00  0.00     0.171 C 
HETATM   23  C1  UNL     1      19.658   2.231  51.930  1.00  0.00     0.034 C 
ENDBRANCH  21  22
ENDBRANCH   1  21
BRANCH   6  24
HETATM   24  N2  UNL     1      26.720   8.070  48.367  1.00  0.00    -0.348 N 
HETATM   25  C8  UNL     1      26.204   9.371  47.972  1.00  0.00     0.154 C 
HETATM   26  C9  UNL     1      26.170   9.361  46.481  1.00  0.00     0.012 C 
HETATM   27  C10 UNL     1      27.095   8.672  45.822  1.00  0.00     0.014 C 
HETATM   28 CL1  UNL     1      27.202   8.552  44.068  1.00  0.00    -0.089 Cl
HETATM   29  C11 UNL     1      28.206   7.875  46.429  1.00  0.00     0.110 C 
HETATM   30  C12 UNL     1      28.106   7.908  47.946  1.00  0.00     0.277 C 
HETATM   31  F1  UNL     1      28.793   8.998  48.430  1.00  0.00    -0.226 F 
ENDBRANCH   6  24
TORSDOF 6
ENDMDL
