MODEL 1
REMARK VINA RESULT:      -9.2      0.000      0.000
REMARK  2 active torsions:
REMARK  status: ('A' for Active; 'I' for Inactive)
REMARK    1  A    between atoms: C4_5  and  N1_6 
REMARK    2  A    between atoms: N1_6  and  C5_7 
ROOT
HETATM    1  C5  UNL     1      24.059   0.701  52.674  1.00  0.00     0.160 A 
HETATM    2  N2  UNL     1      24.431   1.539  51.696  1.00  0.00    -0.222 NA
HETATM    3  C6  UNL     1      23.580   2.229  50.919  1.00  0.00     0.238 A 
HETATM    4  N3  UNL     1      22.257   2.090  51.112  1.00  0.00    -0.215 NA
HETATM    5  C7  UNL     1      21.766   1.265  52.080  1.00  0.00     0.202 A 
HETATM    6  C8  UNL     1      22.694   0.589  52.838  1.00  0.00     0.129 A 
HETATM    7  N4  UNL     1      22.388  -0.316  53.890  1.00  0.00    -0.379 N 
HETATM    8  C9  UNL     1      21.190  -0.962  54.339  1.00  0.00     0.161 C 
HETATM    9  C10 UNL     1      19.995  -0.761  53.530  1.00  0.00    -0.004 A 
HETATM   10  C11 UNL     1      19.091  -1.778  53.846  1.00  0.00     0.054 A 
HETATM   11  C12 UNL     1      17.850  -1.852  53.230  1.00  0.00     0.117 A 
HETATM   12  F2  UNL     1      16.927  -2.804  53.484  1.00  0.00    -0.206 F 
HETATM   13  C13 UNL     1      17.460  -0.922  52.279  1.00  0.00     0.045 A 
HETATM   14  C14 UNL     1      18.344   0.107  51.943  1.00  0.00     0.041 A 
HETATM   15  C15 UNL     1      19.576   0.152  52.578  1.00  0.00     0.086 A 
HETATM   16  O1  UNL     1      20.372   1.227  52.158  1.00  0.00    -0.289 OA
HETATM   17  H5  UNL     1      23.192  -0.598  54.494  1.00  0.00     0.160 HD
ENDROOT
BRANCH   1  18
HETATM   18  N1  UNL     1      25.002  -0.003  53.459  1.00  0.00    -0.341 N 
HETATM   19  H3  UNL     1      24.290  -0.393  54.107  1.00  0.00     0.167 HD
BRANCH  18  20
HETATM   20  C4  UNL     1      26.409  -0.188  53.472  1.00  0.00     0.030 A 
HETATM   21  C3  UNL     1      26.930  -1.316  53.034  1.00  0.00     0.031 A 
HETATM   22  C2  UNL     1      28.387  -1.408  53.089  1.00  0.00     0.064 A 
HETATM   23  C1  UNL     1      29.203  -0.462  53.537  1.00  0.00     0.201 A 
HETATM   24  F1  UNL     1      30.548  -0.533  53.594  1.00  0.00    -0.185 F 
HETATM   25  N5  UNL     1      28.537   0.715  53.990  1.00  0.00    -0.260 N 
HETATM   26  C16 UNL     1      27.115   0.994  54.012  1.00  0.00     0.202 A 
HETATM   27 CL1  UNL     1      29.480   2.058  54.618  1.00  0.00     0.016 Cl
ENDBRANCH  18  20
ENDBRANCH   1  18
TORSDOF 2
ENDMDL
MODEL 2
REMARK VINA RESULT:      -9.1      4.229      5.729
REMARK  2 active torsions:
REMARK  status: ('A' for Active; 'I' for Inactive)
REMARK    1  A    between atoms: C4_5  and  N1_6 
REMARK    2  A    between atoms: N1_6  and  C5_7 
ROOT
HETATM    1  C5  UNL     1      25.989   2.596  51.138  1.00  0.00     0.160 A 
HETATM    2  N2  UNL     1      27.183   2.574  51.746  1.00  0.00    -0.222 NA
HETATM    3  C6  UNL     1      27.527   1.716  52.721  1.00  0.00     0.238 A 
HETATM    4  N3  UNL     1      26.631   0.805  53.136  1.00  0.00    -0.215 NA
HETATM    5  C7  UNL     1      25.385   0.735  52.587  1.00  0.00     0.202 A 
HETATM    6  C8  UNL     1      25.102   1.644  51.594  1.00  0.00     0.129 A 
HETATM    7  N4  UNL     1      23.865   1.736  50.900  1.00  0.00    -0.379 N 
HETATM    8  C9  UNL     1      22.561   1.174  51.096  1.00  0.00     0.161 C 
HETATM    9  C10 UNL     1      22.361   0.394  52.309  1.00  0.00    -0.004 A 
HETATM   10  C11 UNL     1      20.986   0.318  52.544  1.00  0.00     0.054 A 
HETATM   11  C12 UNL     1      20.482  -0.370  53.640  1.00  0.00     0.117 A 
HETATM   12  F2  UNL     1      19.169  -0.485  53.930  1.00  0.00    -0.206 F 
HETATM   13  C13 UNL     1      21.321  -1.005  54.541  1.00  0.00     0.045 A 
HETATM   14  C14 UNL     1      22.701  -0.946  54.331  1.00  0.00     0.041 A 
HETATM   15  C15 UNL     1      23.171  -0.252  53.227  1.00  0.00     0.086 A 
HETATM   16  O1  UNL     1      24.570  -0.265  53.124  1.00  0.00    -0.289 OA
HETATM   17  H5  UNL     1      23.868   2.342  50.049  1.00  0.00     0.160 HD
ENDROOT
BRANCH   1  18
HETATM   18  N1  UNL     1      25.682   3.526  50.117  1.00  0.00    -0.341 N 
HETATM   19  H3  UNL     1      24.832   3.020  49.801  1.00  0.00     0.167 HD
BRANCH  18  20
HETATM   20  C4  UNL     1      26.238   4.730  49.610  1.00  0.00     0.030 A 
HETATM   21  C3  UNL     1      27.293   4.688  48.823  1.00  0.00     0.031 A 
HETATM   22  C2  UNL     1      27.789   5.979  48.354  1.00  0.00     0.064 A 
HETATM   23  C1  UNL     1      27.267   7.162  48.657  1.00  0.00     0.201 A 
HETATM   24  F1  UNL     1      27.714   8.361  48.233  1.00  0.00    -0.185 F 
HETATM   25  N5  UNL     1      26.132   7.093  49.517  1.00  0.00    -0.260 N 
HETATM   26  C16 UNL     1      25.495   5.919  50.079  1.00  0.00     0.202 A 
HETATM   27 CL1  UNL     1      25.330   8.576  50.014  1.00  0.00     0.016 Cl
ENDBRANCH  18  20
ENDBRANCH   1  18
TORSDOF 2
ENDMDL
MODEL 3
REMARK VINA RESULT:      -8.9      4.908      7.615
REMARK  2 active torsions:
REMARK  status: ('A' for Active; 'I' for Inactive)
REMARK    1  A    between atoms: C4_5  and  N1_6 
REMARK    2  A    between atoms: N1_6  and  C5_7 
ROOT
HETATM    1  C5  UNL     1      24.636   2.761  51.837  1.00  0.00     0.160 A 
HETATM    2  N2  UNL     1      23.694   3.213  52.677  1.00  0.00    -0.222 NA
HETATM    3  C6  UNL     1      23.170   4.449  52.640  1.00  0.00     0.238 A 
HETATM    4  N3  UNL     1      23.600   5.315  51.707  1.00  0.00    -0.215 NA
HETATM    5  C7  UNL     1      24.555   4.963  50.800  1.00  0.00     0.202 A 
HETATM    6  C8  UNL     1      25.048   3.682  50.897  1.00  0.00     0.129 A 
HETATM    7  N4  UNL     1      26.045   3.124  50.052  1.00  0.00    -0.379 N 
HETATM    8  C9  UNL     1      26.954   3.662  49.083  1.00  0.00     0.161 C 
HETATM    9  C10 UNL     1      26.980   5.112  48.945  1.00  0.00    -0.004 A 
HETATM   10  C11 UNL     1      28.182   5.460  48.324  1.00  0.00     0.054 A 
HETATM   11  C12 UNL     1      28.494   6.785  48.055  1.00  0.00     0.117 A 
HETATM   12  F2  UNL     1      29.634   7.194  47.459  1.00  0.00    -0.206 F 
HETATM   13  C13 UNL     1      27.628   7.813  48.393  1.00  0.00     0.045 A 
HETATM   14  C14 UNL     1      26.419   7.495  49.015  1.00  0.00     0.041 A 
HETATM   15  C15 UNL     1      26.137   6.162  49.269  1.00  0.00     0.086 A 
HETATM   16  O1  UNL     1      24.897   5.971  49.896  1.00  0.00    -0.289 OA
HETATM   17  H5  UNL     1      26.174   2.090  50.124  1.00  0.00     0.160 HD
ENDROOT
BRANCH   1  18
HETATM   18  N1  UNL     1      25.154   1.448  51.927  1.00  0.00    -0.341 N 
HETATM   19  H3  UNL     1      24.367   1.017  51.404  1.00  0.00     0.167 HD
BRANCH  18  20
HETATM   20  C4  UNL     1      26.296   0.819  52.488  1.00  0.00     0.030 A 
HETATM   21  C3  UNL     1      26.447  -0.485  52.388  1.00  0.00     0.031 A 
HETATM   22  C2  UNL     1      27.654  -1.035  53.000  1.00  0.00     0.064 A 
HETATM   23  C1  UNL     1      28.587  -0.333  53.633  1.00  0.00     0.201 A 
HETATM   24  F1  UNL     1      29.705  -0.827  54.201  1.00  0.00    -0.185 F 
HETATM   25  N5  UNL     1      28.324   1.067  53.686  1.00  0.00    -0.260 N 
HETATM   26  C16 UNL     1      27.195   1.795  53.142  1.00  0.00     0.202 A 
HETATM   27 CL1  UNL     1      29.463   2.132  54.495  1.00  0.00     0.016 Cl
ENDBRANCH  18  20
ENDBRANCH   1  18
TORSDOF 2
ENDMDL
MODEL 4
REMARK VINA RESULT:      -8.9      4.234      6.837
REMARK  2 active torsions:
REMARK  status: ('A' for Active; 'I' for Inactive)
REMARK    1  A    between atoms: C4_5  and  N1_6 
REMARK    2  A    between atoms: N1_6  and  C5_7 
ROOT
HETATM    1  C5  UNL     1      25.018   2.650  52.411  1.00  0.00     0.160 A 
HETATM    2  N2  UNL     1      23.879   2.162  52.920  1.00  0.00    -0.222 NA
HETATM    3  C6  UNL     1      22.672   2.286  52.343  1.00  0.00     0.238 A 
HETATM    4  N3  UNL     1      22.569   2.939  51.174  1.00  0.00    -0.215 NA
HETATM    5  C7  UNL     1      23.664   3.476  50.564  1.00  0.00     0.202 A 
HETATM    6  C8  UNL     1      24.867   3.312  51.211  1.00  0.00     0.129 A 
HETATM    7  N4  UNL     1      26.118   3.797  50.743  1.00  0.00    -0.379 N 
HETATM    8  C9  UNL     1      26.519   4.707  49.710  1.00  0.00     0.161 C 
HETATM    9  C10 UNL     1      25.453   5.396  48.997  1.00  0.00    -0.004 A 
HETATM   10  C11 UNL     1      26.010   6.519  48.379  1.00  0.00     0.054 A 
HETATM   11  C12 UNL     1      25.232   7.380  47.618  1.00  0.00     0.117 A 
HETATM   12  F2  UNL     1      25.700   8.481  46.995  1.00  0.00    -0.206 F 
HETATM   13  C13 UNL     1      23.875   7.161  47.442  1.00  0.00     0.045 A 
HETATM   14  C14 UNL     1      23.290   6.046  48.048  1.00  0.00     0.041 A 
HETATM   15  C15 UNL     1      24.096   5.205  48.800  1.00  0.00     0.086 A 
HETATM   16  O1  UNL     1      23.396   4.124  49.355  1.00  0.00    -0.289 OA
HETATM   17  H5  UNL     1      26.961   3.429  51.240  1.00  0.00     0.160 HD
ENDROOT
BRANCH   1  18
HETATM   18  N1  UNL     1      26.262   2.492  53.066  1.00  0.00    -0.341 N 
HETATM   19  H3  UNL     1      26.276   3.458  53.445  1.00  0.00     0.167 HD
BRANCH  18  20
HETATM   20  C4  UNL     1      27.228   1.463  53.223  1.00  0.00     0.030 A 
HETATM   21  C3  UNL     1      28.424   1.748  53.694  1.00  0.00     0.031 A 
HETATM   22  C2  UNL     1      29.345   0.620  53.817  1.00  0.00     0.064 A 
HETATM   23  C1  UNL     1      29.070  -0.639  53.496  1.00  0.00     0.201 A 
HETATM   24  F1  UNL     1      29.908  -1.688  53.604  1.00  0.00    -0.185 F 
HETATM   25  N5  UNL     1      27.750  -0.836  52.993  1.00  0.00    -0.260 N 
HETATM   26  C16 UNL     1      26.702   0.147  52.802  1.00  0.00     0.202 A 
HETATM   27 CL1  UNL     1      27.235  -2.447  52.518  1.00  0.00     0.016 Cl
ENDBRANCH  18  20
ENDBRANCH   1  18
TORSDOF 2
ENDMDL
MODEL 5
REMARK VINA RESULT:      -8.8      2.330      3.096
REMARK  2 active torsions:
REMARK  status: ('A' for Active; 'I' for Inactive)
REMARK    1  A    between atoms: C4_5  and  N1_6 
REMARK    2  A    between atoms: N1_6  and  C5_7 
ROOT
HETATM    1  C5  UNL     1      25.952   2.709  51.616  1.00  0.00     0.160 A 
HETATM    2  N2  UNL     1      26.574   3.262  50.566  1.00  0.00    -0.222 NA
HETATM    3  C6  UNL     1      25.955   3.699  49.456  1.00  0.00     0.238 A 
HETATM    4  N3  UNL     1      24.619   3.587  49.365  1.00  0.00    -0.215 NA
HETATM    5  C7  UNL     1      23.884   3.041  50.375  1.00  0.00     0.202 A 
HETATM    6  C8  UNL     1      24.583   2.615  51.481  1.00  0.00     0.129 A 
HETATM    7  N4  UNL     1      24.005   2.019  52.634  1.00  0.00    -0.379 N 
HETATM    8  C9  UNL     1      22.709   1.491  52.947  1.00  0.00     0.161 C 
HETATM    9  C10 UNL     1      21.743   1.440  51.858  1.00  0.00    -0.004 A 
HETATM   10  C11 UNL     1      20.749   0.525  52.213  1.00  0.00     0.054 A 
HETATM   11  C12 UNL     1      19.681   0.260  51.366  1.00  0.00     0.117 A 
HETATM   12  F2  UNL     1      18.687  -0.609  51.642  1.00  0.00    -0.206 F 
HETATM   13  C13 UNL     1      19.561   0.891  50.138  1.00  0.00     0.045 A 
HETATM   14  C14 UNL     1      20.540   1.812  49.757  1.00  0.00     0.041 A 
HETATM   15  C15 UNL     1      21.593   2.054  50.626  1.00  0.00     0.086 A 
HETATM   16  O1  UNL     1      22.508   2.994  50.133  1.00  0.00    -0.289 OA
HETATM   17  H5  UNL     1      24.636   1.927  53.461  1.00  0.00     0.160 HD
ENDROOT
BRANCH   1  18
HETATM   18  N1  UNL     1      26.658   2.264  52.758  1.00  0.00    -0.341 N 
HETATM   19  H3  UNL     1      26.267   2.995  53.383  1.00  0.00     0.167 HD
BRANCH  18  20
HETATM   20  C4  UNL     1      27.582   1.231  53.069  1.00  0.00     0.030 A 
HETATM   21  C3  UNL     1      28.739   1.527  53.623  1.00  0.00     0.031 A 
HETATM   22  C2  UNL     1      29.618   0.394  53.904  1.00  0.00     0.064 A 
HETATM   23  C1  UNL     1      29.342  -0.879  53.646  1.00  0.00     0.201 A 
HETATM   24  F1  UNL     1      30.143  -1.933  53.898  1.00  0.00    -0.185 F 
HETATM   25  N5  UNL     1      28.066  -1.087  53.044  1.00  0.00    -0.260 N 
HETATM   26  C16 UNL     1      27.062  -0.102  52.695  1.00  0.00     0.202 A 
HETATM   27 CL1  UNL     1      27.555  -2.718  52.637  1.00  0.00     0.016 Cl
ENDBRANCH  18  20
ENDBRANCH   1  18
TORSDOF 2
ENDMDL
MODEL 6
REMARK VINA RESULT:      -8.6      2.067      3.133
REMARK  2 active torsions:
REMARK  status: ('A' for Active; 'I' for Inactive)
REMARK    1  A    between atoms: C4_5  and  N1_6 
REMARK    2  A    between atoms: N1_6  and  C5_7 
ROOT
HETATM    1  C5  UNL     1      23.826  -0.291  53.742  1.00  0.00     0.160 A 
HETATM    2  N2  UNL     1      23.925  -0.884  54.940  1.00  0.00    -0.222 NA
HETATM    3  C6  UNL     1      22.925  -1.541  55.550  1.00  0.00     0.238 A 
HETATM    4  N3  UNL     1      21.730  -1.626  54.941  1.00  0.00    -0.215 NA
HETATM    5  C7  UNL     1      21.516  -1.060  53.719  1.00  0.00     0.202 A 
HETATM    6  C8  UNL     1      22.584  -0.404  53.153  1.00  0.00     0.129 A 
HETATM    7  N4  UNL     1      22.566   0.251  51.892  1.00  0.00    -0.379 N 
HETATM    8  C9  UNL     1      21.532   0.632  50.975  1.00  0.00     0.161 C 
HETATM    9  C10 UNL     1      20.160   0.409  51.408  1.00  0.00    -0.004 A 
HETATM   10  C11 UNL     1      19.330   1.218  50.626  1.00  0.00     0.054 A 
HETATM   11  C12 UNL     1      17.954   1.222  50.808  1.00  0.00     0.117 A 
HETATM   12  F2  UNL     1      17.092   1.975  50.092  1.00  0.00    -0.206 F 
HETATM   13  C13 UNL     1      17.351   0.428  51.770  1.00  0.00     0.045 A 
HETATM   14  C14 UNL     1      18.155  -0.391  52.566  1.00  0.00     0.041 A 
HETATM   15  C15 UNL     1      19.526  -0.372  52.359  1.00  0.00     0.086 A 
HETATM   16  O1  UNL     1      20.224  -1.234  53.217  1.00  0.00    -0.289 OA
HETATM   17  H5  UNL     1      23.498   0.534  51.514  1.00  0.00     0.160 HD
ENDROOT
BRANCH   1  18
HETATM   18  N1  UNL     1      24.915   0.390  53.149  1.00  0.00    -0.341 N 
HETATM   19  H3  UNL     1      24.316   0.987  52.546  1.00  0.00     0.167 HD
BRANCH  18  20
HETATM   20  C4  UNL     1      26.331   0.365  53.246  1.00  0.00     0.030 A 
HETATM   21  C3  UNL     1      27.001   1.487  53.405  1.00  0.00     0.031 A 
HETATM   22  C2  UNL     1      28.453   1.354  53.493  1.00  0.00     0.064 A 
HETATM   23  C1  UNL     1      29.129   0.213  53.425  1.00  0.00     0.201 A 
HETATM   24  F1  UNL     1      30.467   0.075  53.504  1.00  0.00    -0.185 F 
HETATM   25  N5  UNL     1      28.308  -0.939  53.249  1.00  0.00    -0.260 N 
HETATM   26  C16 UNL     1      26.864  -1.011  53.143  1.00  0.00     0.202 A 
HETATM   27 CL1  UNL     1      29.054  -2.526  53.135  1.00  0.00     0.016 Cl
ENDBRANCH  18  20
ENDBRANCH   1  18
TORSDOF 2
ENDMDL
MODEL 7
REMARK VINA RESULT:      -8.6      5.404      6.666
REMARK  2 active torsions:
REMARK  status: ('A' for Active; 'I' for Inactive)
REMARK    1  A    between atoms: C4_5  and  N1_6 
REMARK    2  A    between atoms: N1_6  and  C5_7 
ROOT
HETATM    1  C5  UNL     1      26.205   3.724  50.289  1.00  0.00     0.160 A 
HETATM    2  N2  UNL     1      27.227   3.748  49.423  1.00  0.00    -0.222 NA
HETATM    3  C6  UNL     1      27.545   4.798  48.648  1.00  0.00     0.238 A 
HETATM    4  N3  UNL     1      26.805   5.917  48.726  1.00  0.00    -0.215 NA
HETATM    5  C7  UNL     1      25.742   6.005  49.575  1.00  0.00     0.202 A 
HETATM    6  C8  UNL     1      25.474   4.892  50.338  1.00  0.00     0.129 A 
HETATM    7  N4  UNL     1      24.413   4.782  51.277  1.00  0.00    -0.379 N 
HETATM    8  C9  UNL     1      23.251   5.567  51.574  1.00  0.00     0.161 C 
HETATM    9  C10 UNL     1      22.985   6.699  50.697  1.00  0.00    -0.004 A 
HETATM   10  C11 UNL     1      21.641   7.049  50.850  1.00  0.00     0.054 A 
HETATM   11  C12 UNL     1      21.089   8.103  50.136  1.00  0.00     0.117 A 
HETATM   12  F2  UNL     1      19.801   8.498  50.232  1.00  0.00    -0.206 F 
HETATM   13  C13 UNL     1      21.846   8.847  49.246  1.00  0.00     0.045 A 
HETATM   14  C14 UNL     1      23.193   8.520  49.073  1.00  0.00     0.041 A 
HETATM   15  C15 UNL     1      23.714   7.461  49.801  1.00  0.00     0.086 A 
HETATM   16  O1  UNL     1      25.073   7.231  49.542  1.00  0.00    -0.289 OA
HETATM   17  H5  UNL     1      24.456   3.954  51.913  1.00  0.00     0.160 HD
ENDROOT
BRANCH   1  18
HETATM   18  N1  UNL     1      25.916   2.586  51.078  1.00  0.00    -0.341 N 
HETATM   19  H3  UNL     1      24.892   2.628  50.905  1.00  0.00     0.167 HD
BRANCH  18  20
HETATM   20  C4  UNL     1      26.645   1.655  51.862  1.00  0.00     0.030 A 
HETATM   21  C3  UNL     1      26.398   0.366  51.755  1.00  0.00     0.031 A 
HETATM   22  C2  UNL     1      27.202  -0.510  52.605  1.00  0.00     0.064 A 
HETATM   23  C1  UNL     1      28.140  -0.110  53.456  1.00  0.00     0.201 A 
HETATM   24  F1  UNL     1      28.888  -0.905  54.246  1.00  0.00    -0.185 F 
HETATM   25  N5  UNL     1      28.324   1.304  53.496  1.00  0.00    -0.260 N 
HETATM   26  C16 UNL     1      27.633   2.325  52.735  1.00  0.00     0.202 A 
HETATM   27 CL1  UNL     1      29.526   1.991  54.578  1.00  0.00     0.016 Cl
ENDBRANCH  18  20
ENDBRANCH   1  18
TORSDOF 2
ENDMDL
MODEL 8
REMARK VINA RESULT:      -8.5      5.130      7.492
REMARK  2 active torsions:
REMARK  status: ('A' for Active; 'I' for Inactive)
REMARK    1  A    between atoms: C4_5  and  N1_6 
REMARK    2  A    between atoms: N1_6  and  C5_7 
ROOT
HETATM    1  C5  UNL     1      24.395   5.326  50.382  1.00  0.00     0.160 A 
HETATM    2  N2  UNL     1      23.175   5.849  50.565  1.00  0.00    -0.222 NA
HETATM    3  C6  UNL     1      22.281   5.403  51.463  1.00  0.00     0.238 A 
HETATM    4  N3  UNL     1      22.605   4.359  52.246  1.00  0.00    -0.215 NA
HETATM    5  C7  UNL     1      23.820   3.750  52.146  1.00  0.00     0.202 A 
HETATM    6  C8  UNL     1      24.685   4.259  51.205  1.00  0.00     0.129 A 
HETATM    7  N4  UNL     1      25.992   3.766  50.945  1.00  0.00    -0.379 N 
HETATM    8  C9  UNL     1      26.713   2.586  51.325  1.00  0.00     0.161 C 
HETATM    9  C10 UNL     1      25.972   1.580  52.074  1.00  0.00    -0.004 A 
HETATM   10  C11 UNL     1      26.664   0.371  51.963  1.00  0.00     0.054 A 
HETATM   11  C12 UNL     1      26.197  -0.782  52.577  1.00  0.00     0.117 A 
HETATM   12  F2  UNL     1      26.811  -1.982  52.514  1.00  0.00    -0.206 F 
HETATM   13  C13 UNL     1      25.028  -0.781  53.322  1.00  0.00     0.045 A 
HETATM   14  C14 UNL     1      24.315   0.414  53.450  1.00  0.00     0.041 A 
HETATM   15  C15 UNL     1      24.809   1.548  52.825  1.00  0.00     0.086 A 
HETATM   16  O1  UNL     1      24.007   2.681  53.026  1.00  0.00    -0.289 OA
HETATM   17  H5  UNL     1      26.594   4.372  50.344  1.00  0.00     0.160 HD
ENDROOT
BRANCH   1  18
HETATM   18  N1  UNL     1      25.294   5.838  49.417  1.00  0.00    -0.341 N 
HETATM   19  H3  UNL     1      25.010   5.164  48.679  1.00  0.00     0.167 HD
BRANCH  18  20
HETATM   20  C4  UNL     1      26.267   6.868  49.350  1.00  0.00     0.030 A 
HETATM   21  C3  UNL     1      26.173   7.916  50.142  1.00  0.00     0.031 A 
HETATM   22  C2  UNL     1      27.224   8.921  49.996  1.00  0.00     0.064 A 
HETATM   23  C1  UNL     1      28.240   8.856  49.144  1.00  0.00     0.201 A 
HETATM   24  F1  UNL     1      29.216   9.774  48.998  1.00  0.00    -0.185 F 
HETATM   25  N5  UNL     1      28.245   7.683  48.333  1.00  0.00    -0.260 N 
HETATM   26  C16 UNL     1      27.301   6.583  48.332  1.00  0.00     0.202 A 
HETATM   27 CL1  UNL     1      29.524   7.452  47.151  1.00  0.00     0.016 Cl
ENDBRANCH  18  20
ENDBRANCH   1  18
TORSDOF 2
ENDMDL
MODEL 9
REMARK VINA RESULT:      -8.3      3.388      5.694
REMARK  2 active torsions:
REMARK  status: ('A' for Active; 'I' for Inactive)
REMARK    1  A    between atoms: C4_5  and  N1_6 
REMARK    2  A    between atoms: N1_6  and  C5_7 
ROOT
HETATM    1  C5  UNL     1      23.596   1.023  52.233  1.00  0.00     0.160 A 
HETATM    2  N2  UNL     1      22.496   0.275  52.392  1.00  0.00    -0.222 NA
HETATM    3  C6  UNL     1      21.465   0.244  51.532  1.00  0.00     0.238 A 
HETATM    4  N3  UNL     1      21.512   1.005  50.425  1.00  0.00    -0.215 NA
HETATM    5  C7  UNL     1      22.584   1.804  50.161  1.00  0.00     0.202 A 
HETATM    6  C8  UNL     1      23.603   1.787  51.085  1.00  0.00     0.129 A 
HETATM    7  N4  UNL     1      24.801   2.547  50.995  1.00  0.00    -0.379 N 
HETATM    8  C9  UNL     1      25.239   3.634  50.170  1.00  0.00     0.161 C 
HETATM    9  C10 UNL     1      24.256   4.197  49.255  1.00  0.00    -0.004 A 
HETATM   10  C11 UNL     1      24.698   5.470  48.885  1.00  0.00     0.054 A 
HETATM   11  C12 UNL     1      23.963   6.260  48.012  1.00  0.00     0.117 A 
HETATM   12  F2  UNL     1      24.327   7.496  47.611  1.00  0.00    -0.206 F 
HETATM   13  C13 UNL     1      22.765   5.818  47.473  1.00  0.00     0.045 A 
HETATM   14  C14 UNL     1      22.299   4.548  47.824  1.00  0.00     0.041 A 
HETATM   15  C15 UNL     1      23.057   3.785  48.699  1.00  0.00     0.086 A 
HETATM   16  O1  UNL     1      22.485   2.534  48.974  1.00  0.00    -0.289 OA
HETATM   17  H5  UNL     1      25.556   2.283  51.667  1.00  0.00     0.160 HD
ENDROOT
BRANCH   1  18
HETATM   18  N1  UNL     1      24.651   1.017  53.176  1.00  0.00    -0.341 N 
HETATM   19  H3  UNL     1      24.131   1.576  53.880  1.00  0.00     0.167 HD
BRANCH  18  20
HETATM   20  C4  UNL     1      25.967   0.492  53.257  1.00  0.00     0.030 A 
HETATM   21  C3  UNL     1      26.212  -0.739  52.857  1.00  0.00     0.031 A 
HETATM   22  C2  UNL     1      27.597  -1.185  52.981  1.00  0.00     0.064 A 
HETATM   23  C1  UNL     1      28.602  -0.458  53.457  1.00  0.00     0.201 A 
HETATM   24  F1  UNL     1      29.884  -0.856  53.578  1.00  0.00    -0.185 F 
HETATM   25  N5  UNL     1      28.227   0.856  53.864  1.00  0.00    -0.260 N 
HETATM   26  C16 UNL     1      26.919   1.476  53.816  1.00  0.00     0.202 A 
HETATM   27 CL1  UNL     1      29.445   1.940  54.520  1.00  0.00     0.016 Cl
ENDBRANCH  18  20
ENDBRANCH   1  18
TORSDOF 2
ENDMDL
