MODEL 1
REMARK VINA RESULT:      -9.7      0.000      0.000
REMARK  2 active torsions:
REMARK  status: ('A' for Active; 'I' for Inactive)
REMARK    1  A    between atoms: C13_16  and  C14_17 
REMARK    2  A    between atoms: C20_25  and  N5_26 
ROOT
HETATM    1  C1  UNL     1      23.714   6.571  48.865  1.00  0.00     0.049 C 
HETATM    2  C2  UNL     1      24.778   5.612  49.208  1.00  0.00    -0.053 A 
HETATM    3  C3  UNL     1      26.028   5.574  48.584  1.00  0.00     0.007 A 
HETATM    4  C4  UNL     1      27.048   4.708  48.867  1.00  0.00     0.002 A 
HETATM    5  C5  UNL     1      26.793   3.793  49.866  1.00  0.00     0.014 A 
HETATM    6  C6  UNL     1      25.568   3.767  50.535  1.00  0.00    -0.000 A 
HETATM    7  C7  UNL     1      24.578   4.673  50.201  1.00  0.00    -0.020 A 
HETATM    8  C8  UNL     1      23.220   4.861  50.756  1.00  0.00     0.190 C 
HETATM    9  N1  UNL     1      23.232   5.127  52.171  1.00  0.00    -0.281 NA
HETATM   10  C9  UNL     1      23.712   4.662  53.272  1.00  0.00     0.198 C 
HETATM   11  N2  UNL     1      24.537   3.518  53.426  1.00  0.00    -0.359 N 
HETATM   12  C10 UNL     1      25.343   2.483  52.903  1.00  0.00     0.181 A 
HETATM   13  C11 UNL     1      25.761   2.644  51.482  1.00  0.00     0.079 C 
HETATM   14  N3  UNL     1      26.354   1.643  50.977  1.00  0.00    -0.300 NA
HETATM   15  C12 UNL     1      24.968   1.096  53.270  1.00  0.00     0.079 A 
HETATM   16  C13 UNL     1      23.974   0.222  53.108  1.00  0.00     0.042 C 
HETATM   17  N4  UNL     1      26.179   0.844  54.025  1.00  0.00    -0.233 NA
HETATM   18  C20 UNL     1      26.508   2.044  53.711  1.00  0.00     0.139 A 
HETATM   19  H10 UNL     1      24.586   3.312  54.469  1.00  0.00     0.162 HD
HETATM   20  H11 UNL     1      26.678   1.578  50.017  1.00  0.00     0.186 HD
ENDROOT
BRANCH  18  21
HETATM   21  N5  UNL     1      27.748   2.469  54.207  1.00  0.00    -0.385 N 
HETATM   22  H17 UNL     1      28.203   3.286  53.710  1.00  0.00     0.157 HD
HETATM   23  H18 UNL     1      28.328   2.124  54.998  1.00  0.00     0.157 HD
ENDBRANCH  18  21
BRANCH  16  24
HETATM   24  C14 UNL     1      22.731   0.371  52.404  1.00  0.00    -0.033 A 
HETATM   25  C15 UNL     1      22.515   1.039  51.243  1.00  0.00     0.011 A 
HETATM   26  C16 UNL     1      21.329   1.201  50.568  1.00  0.00     0.002 A 
HETATM   27  C17 UNL     1      20.197   0.607  51.140  1.00  0.00     0.019 A 
HETATM   28  C18 UNL     1      20.304  -0.093  52.315  1.00  0.00     0.011 A 
HETATM   29 BR1  UNL     1      18.759  -0.892  53.082  1.00  0.00    -0.051 Br
HETATM   30  C19 UNL     1      21.547  -0.187  52.902  1.00  0.00     0.030 A 
ENDBRANCH  16  24
TORSDOF 2
ENDMDL
MODEL 2
REMARK VINA RESULT:      -9.7      1.169      1.483
REMARK  2 active torsions:
REMARK  status: ('A' for Active; 'I' for Inactive)
REMARK    1  A    between atoms: C13_16  and  C14_17 
REMARK    2  A    between atoms: C20_25  and  N5_26 
ROOT
HETATM    1  C1  UNL     1      23.680   6.533  48.863  1.00  0.00     0.049 C 
HETATM    2  C2  UNL     1      24.755   5.584  49.199  1.00  0.00    -0.053 A 
HETATM    3  C3  UNL     1      25.999   5.555  48.563  1.00  0.00     0.007 A 
HETATM    4  C4  UNL     1      27.029   4.697  48.840  1.00  0.00     0.002 A 
HETATM    5  C5  UNL     1      26.791   3.785  49.845  1.00  0.00     0.014 A 
HETATM    6  C6  UNL     1      25.573   3.751  50.526  1.00  0.00    -0.000 A 
HETATM    7  C7  UNL     1      24.572   4.648  50.198  1.00  0.00    -0.020 A 
HETATM    8  C8  UNL     1      23.219   4.826  50.765  1.00  0.00     0.190 C 
HETATM    9  N1  UNL     1      23.242   5.098  52.179  1.00  0.00    -0.281 NA
HETATM   10  C9  UNL     1      23.737   4.641  53.277  1.00  0.00     0.198 C 
HETATM   11  N2  UNL     1      24.572   3.504  53.427  1.00  0.00    -0.359 N 
HETATM   12  C10 UNL     1      25.382   2.474  52.900  1.00  0.00     0.181 A 
HETATM   13  C11 UNL     1      25.784   2.633  51.474  1.00  0.00     0.079 C 
HETATM   14  N3  UNL     1      26.380   1.636  50.968  1.00  0.00    -0.300 NA
HETATM   15  C12 UNL     1      25.022   1.085  53.276  1.00  0.00     0.079 A 
HETATM   16  C13 UNL     1      24.033   0.203  53.127  1.00  0.00     0.042 C 
HETATM   17  N4  UNL     1      26.242   0.847  54.020  1.00  0.00    -0.233 NA
HETATM   18  C20 UNL     1      26.558   2.048  53.699  1.00  0.00     0.139 A 
HETATM   19  H10 UNL     1      24.633   3.303  54.470  1.00  0.00     0.162 HD
HETATM   20  H11 UNL     1      26.696   1.569  50.005  1.00  0.00     0.186 HD
ENDROOT
BRANCH  18  21
HETATM   21  N5  UNL     1      27.799   2.485  54.182  1.00  0.00    -0.385 N 
HETATM   22  H17 UNL     1      28.185   1.975  55.027  1.00  0.00     0.157 HD
HETATM   23  H18 UNL     1      28.437   3.240  53.859  1.00  0.00     0.157 HD
ENDBRANCH  18  21
BRANCH  16  24
HETATM   24  C14 UNL     1      22.783   0.339  52.435  1.00  0.00    -0.033 A 
HETATM   25  C15 UNL     1      21.553  -0.031  52.871  1.00  0.00     0.011 A 
HETATM   26  C16 UNL     1      20.351   0.080  52.212  1.00  0.00     0.002 A 
HETATM   27  C17 UNL     1      20.390   0.645  50.932  1.00  0.00     0.019 A 
HETATM   28  C18 UNL     1      21.584   1.055  50.394  1.00  0.00     0.011 A 
HETATM   29 BR1  UNL     1      21.623   1.819  48.653  1.00  0.00    -0.051 Br
HETATM   30  C19 UNL     1      22.724   0.892  51.149  1.00  0.00     0.030 A 
ENDBRANCH  16  24
TORSDOF 2
ENDMDL
MODEL 3
REMARK VINA RESULT:      -8.7      3.082      6.677
REMARK  2 active torsions:
REMARK  status: ('A' for Active; 'I' for Inactive)
REMARK    1  A    between atoms: C13_16  and  C14_17 
REMARK    2  A    between atoms: C20_25  and  N5_26 
ROOT
HETATM    1  C1  UNL     1      25.553   0.136  54.437  1.00  0.00     0.049 C 
HETATM    2  C2  UNL     1      24.353   0.190  53.584  1.00  0.00    -0.053 A 
HETATM    3  C3  UNL     1      23.441  -0.861  53.450  1.00  0.00     0.007 A 
HETATM    4  C4  UNL     1      22.313  -0.859  52.676  1.00  0.00     0.002 A 
HETATM    5  C5  UNL     1      22.076   0.301  51.970  1.00  0.00     0.014 A 
HETATM    6  C6  UNL     1      22.942   1.393  52.051  1.00  0.00    -0.000 A 
HETATM    7  C7  UNL     1      24.066   1.327  52.855  1.00  0.00    -0.020 A 
HETATM    8  C8  UNL     1      25.117   2.331  53.121  1.00  0.00     0.190 C 
HETATM    9  N1  UNL     1      24.589   3.558  53.660  1.00  0.00    -0.281 NA
HETATM   10  C9  UNL     1      23.680   4.441  53.429  1.00  0.00     0.198 C 
HETATM   11  N2  UNL     1      22.755   4.452  52.353  1.00  0.00    -0.359 N 
HETATM   12  C10 UNL     1      22.117   3.840  51.252  1.00  0.00     0.181 A 
HETATM   13  C11 UNL     1      22.294   2.365  51.140  1.00  0.00     0.079 C 
HETATM   14  N3  UNL     1      21.848   1.848  50.072  1.00  0.00    -0.300 NA
HETATM   15  C12 UNL     1      22.188   4.559  49.957  1.00  0.00     0.079 A 
HETATM   16  C13 UNL     1      23.080   4.956  49.049  1.00  0.00     0.042 C 
HETATM   17  N4  UNL     1      20.763   4.805  49.882  1.00  0.00    -0.233 NA
HETATM   18  C20 UNL     1      20.695   4.185  51.003  1.00  0.00     0.139 A 
HETATM   19  H10 UNL     1      22.290   5.409  52.357  1.00  0.00     0.162 HD
HETATM   20  H11 UNL     1      21.912   0.865  49.825  1.00  0.00     0.186 HD
ENDROOT
BRANCH  18  21
HETATM   21  N5  UNL     1      19.406   4.070  51.541  1.00  0.00    -0.385 N 
HETATM   22  H17 UNL     1      19.333   3.652  52.512  1.00  0.00     0.157 HD
HETATM   23  H18 UNL     1      18.474   4.324  51.158  1.00  0.00     0.157 HD
ENDBRANCH  18  21
BRANCH  16  24
HETATM   24  C14 UNL     1      24.506   4.786  49.033  1.00  0.00    -0.033 A 
HETATM   25  C15 UNL     1      25.210   3.680  49.381  1.00  0.00     0.011 A 
HETATM   26  C16 UNL     1      26.574   3.510  49.384  1.00  0.00     0.002 A 
HETATM   27  C17 UNL     1      27.342   4.608  48.979  1.00  0.00     0.019 A 
HETATM   28  C18 UNL     1      26.731   5.778  48.605  1.00  0.00     0.011 A 
HETATM   29 BR1  UNL     1      27.786   7.262  48.058  1.00  0.00    -0.051 Br
HETATM   30  C19 UNL     1      25.355   5.830  48.643  1.00  0.00     0.030 A 
ENDBRANCH  16  24
TORSDOF 2
ENDMDL
MODEL 4
REMARK VINA RESULT:      -8.5      2.899      4.802
REMARK  2 active torsions:
REMARK  status: ('A' for Active; 'I' for Inactive)
REMARK    1  A    between atoms: C13_16  and  C14_17 
REMARK    2  A    between atoms: C20_25  and  N5_26 
ROOT
HETATM    1  C1  UNL     1      26.801   4.830  48.960  1.00  0.00     0.049 C 
HETATM    2  C2  UNL     1      25.662   5.438  49.667  1.00  0.00    -0.053 A 
HETATM    3  C3  UNL     1      25.571   6.796  49.983  1.00  0.00     0.007 A 
HETATM    4  C4  UNL     1      24.535   7.408  50.634  1.00  0.00     0.002 A 
HETATM    5  C5  UNL     1      23.495   6.584  51.005  1.00  0.00     0.014 A 
HETATM    6  C6  UNL     1      23.513   5.216  50.727  1.00  0.00    -0.000 A 
HETATM    7  C7  UNL     1      24.591   4.660  50.063  1.00  0.00    -0.020 A 
HETATM    8  C8  UNL     1      24.845   3.265  49.644  1.00  0.00     0.190 C 
HETATM    9  N1  UNL     1      23.819   2.752  48.773  1.00  0.00    -0.281 NA
HETATM   10  C9  UNL     1      22.539   2.633  48.699  1.00  0.00     0.198 C 
HETATM   11  N2  UNL     1      21.586   3.067  49.656  1.00  0.00    -0.359 N 
HETATM   12  C10 UNL     1      21.223   3.784  50.817  1.00  0.00     0.181 A 
HETATM   13  C11 UNL     1      22.226   4.769  51.309  1.00  0.00     0.079 C 
HETATM   14  N3  UNL     1      21.960   5.296  52.431  1.00  0.00    -0.300 NA
HETATM   15  C12 UNL     1      20.552   3.014  51.893  1.00  0.00     0.079 A 
HETATM   16  C13 UNL     1      20.791   2.016  52.744  1.00  0.00     0.042 C 
HETATM   17  N4  UNL     1      19.298   3.730  51.784  1.00  0.00    -0.233 NA
HETATM   18  C20 UNL     1      19.872   4.398  50.851  1.00  0.00     0.139 A 
HETATM   19  H10 UNL     1      20.652   2.642  49.374  1.00  0.00     0.162 HD
HETATM   20  H11 UNL     1      22.549   5.963  52.919  1.00  0.00     0.186 HD
ENDROOT
BRANCH  18  21
HETATM   21  N5  UNL     1      19.078   5.385  50.253  1.00  0.00    -0.385 N 
HETATM   22  H17 UNL     1      18.105   5.093  49.951  1.00  0.00     0.157 HD
HETATM   23  H18 UNL     1      19.265   6.385  50.039  1.00  0.00     0.157 HD
ENDBRANCH  18  21
BRANCH  16  24
HETATM   24  C14 UNL     1      21.979   1.230  52.923  1.00  0.00    -0.033 A 
HETATM   25  C15 UNL     1      22.058  -0.101  53.176  1.00  0.00     0.011 A 
HETATM   26  C16 UNL     1      23.189  -0.861  53.363  1.00  0.00     0.002 A 
HETATM   27  C17 UNL     1      24.414  -0.190  53.284  1.00  0.00     0.019 A 
HETATM   28  C18 UNL     1      24.449   1.158  53.031  1.00  0.00     0.011 A 
HETATM   29 BR1  UNL     1      26.121   2.058  52.929  1.00  0.00    -0.051 Br
HETATM   30  C19 UNL     1      23.249   1.816  52.862  1.00  0.00     0.030 A 
ENDBRANCH  16  24
TORSDOF 2
ENDMDL
MODEL 5
REMARK VINA RESULT:      -8.0      3.356      7.146
REMARK  2 active torsions:
REMARK  status: ('A' for Active; 'I' for Inactive)
REMARK    1  A    between atoms: C13_16  and  C14_17 
REMARK    2  A    between atoms: C20_25  and  N5_26 
ROOT
HETATM    1  C1  UNL     1      23.543   0.318  52.793  1.00  0.00     0.049 C 
HETATM    2  C2  UNL     1      22.645   0.902  51.783  1.00  0.00    -0.053 A 
HETATM    3  C3  UNL     1      21.541   0.239  51.239  1.00  0.00     0.007 A 
HETATM    4  C4  UNL     1      20.677   0.738  50.304  1.00  0.00     0.002 A 
HETATM    5  C5  UNL     1      20.943   2.019  49.871  1.00  0.00     0.014 A 
HETATM    6  C6  UNL     1      22.027   2.746  50.365  1.00  0.00    -0.000 A 
HETATM    7  C7  UNL     1      22.863   2.182  51.312  1.00  0.00    -0.020 A 
HETATM    8  C8  UNL     1      24.052   2.735  51.994  1.00  0.00     0.190 C 
HETATM    9  N1  UNL     1      23.765   3.949  52.713  1.00  0.00    -0.281 NA
HETATM   10  C9  UNL     1      23.215   5.102  52.549  1.00  0.00     0.198 C 
HETATM   11  N2  UNL     1      22.615   5.599  51.363  1.00  0.00    -0.359 N 
HETATM   12  C10 UNL     1      22.118   5.429  50.051  1.00  0.00     0.181 A 
HETATM   13  C11 UNL     1      21.908   4.019  49.618  1.00  0.00     0.079 C 
HETATM   14  N3  UNL     1      21.609   3.870  48.395  1.00  0.00    -0.300 NA
HETATM   15  C12 UNL     1      22.692   6.306  49.003  1.00  0.00     0.079 A 
HETATM   16  C13 UNL     1      23.850   6.554  48.389  1.00  0.00     0.042 C 
HETATM   17  N4  UNL     1      21.449   7.002  48.741  1.00  0.00    -0.233 NA
HETATM   18  C20 UNL     1      20.947   6.247  49.649  1.00  0.00     0.139 A 
HETATM   19  H10 UNL     1      22.441   6.637  51.517  1.00  0.00     0.162 HD
HETATM   20  H11 UNL     1      21.460   2.978  47.932  1.00  0.00     0.186 HD
ENDROOT
BRANCH  18  21
HETATM   21  N5  UNL     1      19.586   6.454  49.908  1.00  0.00    -0.385 N 
HETATM   22  H17 UNL     1      18.909   6.169  49.145  1.00  0.00     0.157 HD
HETATM   23  H18 UNL     1      19.094   6.849  50.735  1.00  0.00     0.157 HD
ENDBRANCH  18  21
BRANCH  16  24
HETATM   24  C14 UNL     1      25.136   5.944  48.582  1.00  0.00    -0.033 A 
HETATM   25  C15 UNL     1      25.400   4.731  49.129  1.00  0.00     0.011 A 
HETATM   26  C16 UNL     1      26.627   4.144  49.333  1.00  0.00     0.002 A 
HETATM   27  C17 UNL     1      27.747   4.879  48.929  1.00  0.00     0.019 A 
HETATM   28  C18 UNL     1      27.593   6.119  48.363  1.00  0.00     0.011 A 
HETATM   29 BR1  UNL     1      29.124   7.108  47.821  1.00  0.00    -0.051 Br
HETATM   30  C19 UNL     1      26.313   6.606  48.210  1.00  0.00     0.030 A 
ENDBRANCH  16  24
TORSDOF 2
ENDMDL
MODEL 6
REMARK VINA RESULT:      -8.0      2.152      3.452
REMARK  2 active torsions:
REMARK  status: ('A' for Active; 'I' for Inactive)
REMARK    1  A    between atoms: C13_16  and  C14_17 
REMARK    2  A    between atoms: C20_25  and  N5_26 
ROOT
HETATM    1  C1  UNL     1      19.057   5.111  50.086  1.00  0.00     0.049 C 
HETATM    2  C2  UNL     1      20.300   4.804  49.357  1.00  0.00    -0.053 A 
HETATM    3  C3  UNL     1      20.473   5.010  47.986  1.00  0.00     0.007 A 
HETATM    4  C4  UNL     1      21.605   4.745  47.265  1.00  0.00     0.002 A 
HETATM    5  C5  UNL     1      22.661   4.226  47.983  1.00  0.00     0.014 A 
HETATM    6  C6  UNL     1      22.564   3.991  49.356  1.00  0.00    -0.000 A 
HETATM    7  C7  UNL     1      21.390   4.283  50.026  1.00  0.00    -0.020 A 
HETATM    8  C8  UNL     1      21.039   4.142  51.455  1.00  0.00     0.190 C 
HETATM    9  N1  UNL     1      21.923   4.883  52.318  1.00  0.00    -0.281 NA
HETATM   10  C9  UNL     1      23.177   5.057  52.553  1.00  0.00     0.198 C 
HETATM   11  N2  UNL     1      24.263   4.435  51.885  1.00  0.00    -0.359 N 
HETATM   12  C10 UNL     1      24.801   3.658  50.836  1.00  0.00     0.181 A 
HETATM   13  C11 UNL     1      23.903   3.440  49.667  1.00  0.00     0.079 C 
HETATM   14  N3  UNL     1      24.334   2.620  48.801  1.00  0.00    -0.300 NA
HETATM   15  C12 UNL     1      25.587   2.462  51.227  1.00  0.00     0.079 A 
HETATM   16  C13 UNL     1      25.436   1.289  51.841  1.00  0.00     0.042 C 
HETATM   17  N4  UNL     1      26.836   2.965  50.693  1.00  0.00    -0.233 NA
HETATM   18  C20 UNL     1      26.162   4.002  50.353  1.00  0.00     0.139 A 
HETATM   19  H10 UNL     1      25.138   4.652  52.452  1.00  0.00     0.162 HD
HETATM   20  H11 UNL     1      23.837   2.339  47.962  1.00  0.00     0.186 HD
ENDROOT
BRANCH  18  21
HETATM   21  N5  UNL     1      26.898   5.002  49.703  1.00  0.00    -0.385 N 
HETATM   22  H17 UNL     1      27.441   4.707  48.843  1.00  0.00     0.157 HD
HETATM   23  H18 UNL     1      27.018   6.014  49.910  1.00  0.00     0.157 HD
ENDBRANCH  18  21
BRANCH  16  24
HETATM   24  C14 UNL     1      24.259   0.705  52.421  1.00  0.00    -0.033 A 
HETATM   25  C15 UNL     1      24.177  -0.032  53.557  1.00  0.00     0.011 A 
HETATM   26  C16 UNL     1      23.060  -0.608  54.114  1.00  0.00     0.002 A 
HETATM   27  C17 UNL     1      21.852  -0.416  53.434  1.00  0.00     0.019 A 
HETATM   28  C18 UNL     1      21.821   0.315  52.273  1.00  0.00     0.011 A 
HETATM   29 BR1  UNL     1      20.174   0.566  51.358  1.00  0.00    -0.051 Br
HETATM   30  C19 UNL     1      23.006   0.844  51.810  1.00  0.00     0.030 A 
ENDBRANCH  16  24
TORSDOF 2
ENDMDL
MODEL 7
REMARK VINA RESULT:      -7.9      3.495      5.454
REMARK  2 active torsions:
REMARK  status: ('A' for Active; 'I' for Inactive)
REMARK    1  A    between atoms: C13_16  and  C14_17 
REMARK    2  A    between atoms: C20_25  and  N5_26 
ROOT
HETATM    1  C1  UNL     1      22.504   5.490  47.164  1.00  0.00     0.049 C 
HETATM    2  C2  UNL     1      21.647   5.280  48.343  1.00  0.00    -0.053 A 
HETATM    3  C3  UNL     1      20.678   6.188  48.778  1.00  0.00     0.007 A 
HETATM    4  C4  UNL     1      19.856   6.038  49.861  1.00  0.00     0.002 A 
HETATM    5  C5  UNL     1      20.021   4.871  50.577  1.00  0.00     0.014 A 
HETATM    6  C6  UNL     1      20.969   3.916  50.206  1.00  0.00    -0.000 A 
HETATM    7  C7  UNL     1      21.768   4.129  49.097  1.00  0.00    -0.020 A 
HETATM    8  C8  UNL     1      22.820   3.284  48.495  1.00  0.00     0.190 C 
HETATM    9  N1  UNL     1      22.336   1.981  48.115  1.00  0.00    -0.281 NA
HETATM   10  C9  UNL     1      21.683   0.980  48.593  1.00  0.00     0.198 C 
HETATM   11  N2  UNL     1      21.147   0.857  49.900  1.00  0.00    -0.359 N 
HETATM   12  C10 UNL     1      20.797   1.393  51.160  1.00  0.00     0.181 A 
HETATM   13  C11 UNL     1      20.783   2.880  51.248  1.00  0.00     0.079 C 
HETATM   14  N3  UNL     1      20.618   3.350  52.414  1.00  0.00    -0.300 NA
HETATM   15  C12 UNL     1      21.369   0.721  52.352  1.00  0.00     0.079 A 
HETATM   16  C13 UNL     1      22.545   0.478  52.930  1.00  0.00     0.042 C 
HETATM   17  N4  UNL     1      20.088   0.271  52.856  1.00  0.00    -0.233 NA
HETATM   18  C20 UNL     1      19.587   0.849  51.826  1.00  0.00     0.139 A 
HETATM   19  H10 UNL     1      20.847  -0.157  50.017  1.00  0.00     0.162 HD
HETATM   20  H11 UNL     1      20.611   4.337  52.653  1.00  0.00     0.186 HD
ENDROOT
BRANCH  18  21
HETATM   21  N5  UNL     1      18.193   0.763  51.715  1.00  0.00    -0.385 N 
HETATM   22  H17 UNL     1      17.760  -0.184  51.908  1.00  0.00     0.157 HD
HETATM   23  H18 UNL     1      17.476   1.475  51.470  1.00  0.00     0.157 HD
ENDBRANCH  18  21
BRANCH  16  24
HETATM   24  C14 UNL     1      23.866   0.855  52.510  1.00  0.00    -0.033 A 
HETATM   25  C15 UNL     1      24.215   1.912  51.734  1.00  0.00     0.011 A 
HETATM   26  C16 UNL     1      25.473   2.274  51.314  1.00  0.00     0.002 A 
HETATM   27  C17 UNL     1      26.531   1.460  51.732  1.00  0.00     0.019 A 
HETATM   28  C18 UNL     1      26.289   0.364  52.521  1.00  0.00     0.011 A 
HETATM   29 BR1  UNL     1      27.736  -0.736  53.081  1.00  0.00    -0.051 Br
HETATM   30  C19 UNL     1      24.985   0.099  52.879  1.00  0.00     0.030 A 
ENDBRANCH  16  24
TORSDOF 2
ENDMDL
MODEL 8
REMARK VINA RESULT:      -7.8      3.083      5.129
REMARK  2 active torsions:
REMARK  status: ('A' for Active; 'I' for Inactive)
REMARK    1  A    between atoms: C13_16  and  C14_17 
REMARK    2  A    between atoms: C20_25  and  N5_26 
ROOT
HETATM    1  C1  UNL     1      27.216   2.554  51.737  1.00  0.00     0.049 C 
HETATM    2  C2  UNL     1      26.292   1.505  52.201  1.00  0.00    -0.053 A 
HETATM    3  C3  UNL     1      26.697   0.347  52.870  1.00  0.00     0.007 A 
HETATM    4  C4  UNL     1      25.880  -0.653  53.324  1.00  0.00     0.002 A 
HETATM    5  C5  UNL     1      24.534  -0.477  53.085  1.00  0.00     0.014 A 
HETATM    6  C6  UNL     1      24.053   0.653  52.422  1.00  0.00    -0.000 A 
HETATM    7  C7  UNL     1      24.933   1.629  51.990  1.00  0.00    -0.020 A 
HETATM    8  C8  UNL     1      24.683   2.905  51.286  1.00  0.00     0.190 C 
HETATM    9  N1  UNL     1      23.800   3.777  52.017  1.00  0.00    -0.281 NA
HETATM   10  C9  UNL     1      22.653   3.775  52.604  1.00  0.00     0.198 C 
HETATM   11  N2  UNL     1      21.755   2.682  52.715  1.00  0.00    -0.359 N 
HETATM   12  C10 UNL     1      21.436   1.312  52.588  1.00  0.00     0.181 A 
HETATM   13  C11 UNL     1      22.595   0.394  52.395  1.00  0.00     0.079 C 
HETATM   14  N3  UNL     1      22.292  -0.808  52.130  1.00  0.00    -0.300 NA
HETATM   15  C12 UNL     1      20.254   0.977  51.757  1.00  0.00     0.079 A 
HETATM   16  C13 UNL     1      19.827   1.058  50.497  1.00  0.00     0.042 C 
HETATM   17  N4  UNL     1      19.486   0.438  52.861  1.00  0.00    -0.233 NA
HETATM   18  C20 UNL     1      20.505   0.727  53.585  1.00  0.00     0.139 A 
HETATM   19  H10 UNL     1      20.837   3.075  53.083  1.00  0.00     0.162 HD
HETATM   20  H11 UNL     1      22.957  -1.552  51.945  1.00  0.00     0.186 HD
ENDROOT
BRANCH  18  21
HETATM   21  N5  UNL     1      20.378   0.410  54.944  1.00  0.00    -0.385 N 
HETATM   22  H17 UNL     1      20.533   1.201  55.631  1.00  0.00     0.157 HD
HETATM   23  H18 UNL     1      20.152  -0.483  55.425  1.00  0.00     0.157 HD
ENDBRANCH  18  21
BRANCH  16  24
HETATM   24  C14 UNL     1      20.490   1.587  49.339  1.00  0.00    -0.033 A 
HETATM   25  C15 UNL     1      21.743   1.304  48.904  1.00  0.00     0.011 A 
HETATM   26  C16 UNL     1      22.394   1.815  47.805  1.00  0.00     0.002 A 
HETATM   27  C17 UNL     1      21.685   2.742  47.033  1.00  0.00     0.019 A 
HETATM   28  C18 UNL     1      20.408   3.100  47.384  1.00  0.00     0.011 A 
HETATM   29 BR1  UNL     1      19.456   4.363  46.327  1.00  0.00    -0.051 Br
HETATM   30  C19 UNL     1      19.859   2.521  48.508  1.00  0.00     0.030 A 
ENDBRANCH  16  24
TORSDOF 2
ENDMDL
MODEL 9
REMARK VINA RESULT:      -7.8      7.532     11.079
REMARK  2 active torsions:
REMARK  status: ('A' for Active; 'I' for Inactive)
REMARK    1  A    between atoms: C13_16  and  C14_17 
REMARK    2  A    between atoms: C20_25  and  N5_26 
ROOT
HETATM    1  C1  UNL     1      27.588   4.678  48.763  1.00  0.00     0.049 C 
HETATM    2  C2  UNL     1      27.735   6.033  48.204  1.00  0.00    -0.053 A 
HETATM    3  C3  UNL     1      26.661   6.885  47.926  1.00  0.00     0.007 A 
HETATM    4  C4  UNL     1      26.745   8.149  47.411  1.00  0.00     0.002 A 
HETATM    5  C5  UNL     1      28.020   8.604  47.150  1.00  0.00     0.014 A 
HETATM    6  C6  UNL     1      29.141   7.811  47.400  1.00  0.00    -0.000 A 
HETATM    7  C7  UNL     1      28.988   6.541  47.923  1.00  0.00    -0.020 A 
HETATM    8  C8  UNL     1      29.997   5.522  48.285  1.00  0.00     0.190 C 
HETATM    9  N1  UNL     1      30.943   6.001  49.260  1.00  0.00    -0.281 NA
HETATM   10  C9  UNL     1      31.735   6.991  49.481  1.00  0.00     0.198 C 
HETATM   11  N2  UNL     1      31.938   8.123  48.650  1.00  0.00    -0.359 N 
HETATM   12  C10 UNL     1      31.592   8.941  47.552  1.00  0.00     0.181 A 
HETATM   13  C11 UNL     1      30.245   8.698  46.964  1.00  0.00     0.079 C 
HETATM   14  N3  UNL     1      30.004   9.328  45.890  1.00  0.00    -0.300 NA
HETATM   15  C12 UNL     1      32.654   9.193  46.548  1.00  0.00     0.079 A 
HETATM   16  C13 UNL     1      33.402   8.541  45.657  1.00  0.00     0.042 C 
HETATM   17  N4  UNL     1      32.732  10.614  46.816  1.00  0.00    -0.233 NA
HETATM   18  C20 UNL     1      31.814  10.403  47.687  1.00  0.00     0.139 A 
HETATM   19  H10 UNL     1      32.788   8.637  49.031  1.00  0.00     0.162 HD
HETATM   20  H11 UNL     1      29.148   9.256  45.348  1.00  0.00     0.186 HD
ENDROOT
BRANCH  18  21
HETATM   21  N5  UNL     1      31.391  11.537  48.391  1.00  0.00    -0.385 N 
HETATM   22  H17 UNL     1      30.429  11.912  48.153  1.00  0.00     0.157 HD
HETATM   23  H18 UNL     1      31.855  12.103  49.130  1.00  0.00     0.157 HD
ENDBRANCH  18  21
BRANCH  16  24
HETATM   24  C14 UNL     1      33.423   7.144  45.327  1.00  0.00    -0.033 A 
HETATM   25  C15 UNL     1      33.005   6.561  44.175  1.00  0.00     0.011 A 
HETATM   26  C16 UNL     1      33.006   5.225  43.854  1.00  0.00     0.002 A 
HETATM   27  C17 UNL     1      33.496   4.347  44.828  1.00  0.00     0.019 A 
HETATM   28  C18 UNL     1      33.945   4.831  46.031  1.00  0.00     0.011 A 
HETATM   29 BR1  UNL     1      34.607   3.628  47.346  1.00  0.00    -0.051 Br
HETATM   30  C19 UNL     1      33.895   6.192  46.240  1.00  0.00     0.030 A 
ENDBRANCH  16  24
TORSDOF 2
ENDMDL
