MODEL 1
REMARK VINA RESULT:      -9.1      0.000      0.000
REMARK  5 active torsions:
REMARK  status: ('A' for Active; 'I' for Inactive)
REMARK    1  A    between atoms: C6_8  and  N3_9 
REMARK    2  A    between atoms: N3_9  and  C7_10 
REMARK    3  A    between atoms: C10_13  and  O1_14 
REMARK    4  A    between atoms: O1_14  and  C11_15 
REMARK    5  A    between atoms: C11_15  and  C12_16 
ROOT
HETATM    1  N1  UNL     1      27.565  -0.214  54.791  1.00  0.00    -0.191 NA
HETATM    2  C1  UNL     1      26.425  -0.402  54.708  1.00  0.00     0.103 C 
HETATM    3  C2  UNL     1      25.017  -0.613  54.589  1.00  0.00     0.089 A 
HETATM    4  C3  UNL     1      24.398  -1.170  55.703  1.00  0.00     0.142 A 
HETATM    5  N2  UNL     1      23.089  -1.421  55.729  1.00  0.00    -0.259 NA
HETATM    6  C4  UNL     1      22.341  -1.136  54.670  1.00  0.00     0.065 A 
HETATM    7  C5  UNL     1      22.922  -0.583  53.551  1.00  0.00     0.002 A 
HETATM    8  C6  UNL     1      24.271  -0.307  53.480  1.00  0.00     0.064 A 
HETATM    9  C20 UNL     1      21.851  -0.377  52.541  1.00  0.00     0.070 A 
HETATM   10  C21 UNL     1      20.609  -0.862  53.186  1.00  0.00    -0.020 A 
HETATM   11  C22 UNL     1      20.906  -1.294  54.406  1.00  0.00     0.028 A 
ENDROOT
BRANCH   8  12
HETATM   12  N3  UNL     1      24.925   0.257  52.368  1.00  0.00    -0.354 N 
HETATM   13  H2  UNL     1      25.380  -0.569  51.923  1.00  0.00     0.166 HD
BRANCH  12  14
HETATM   14  C7  UNL     1      25.039   1.573  51.845  1.00  0.00     0.034 A 
HETATM   15  C8  UNL     1      26.150   1.864  51.081  1.00  0.00     0.032 A 
HETATM   16  C9  UNL     1      26.212   3.155  50.597  1.00  0.00     0.041 A 
HETATM   17  C10 UNL     1      25.253   4.121  50.836  1.00  0.00     0.091 A 
HETATM   18  C18 UNL     1      24.185   3.756  51.599  1.00  0.00     0.069 A 
HETATM   19 CL1  UNL     1      22.947   4.941  51.928  1.00  0.00    -0.081 Cl
HETATM   20  C19 UNL     1      24.039   2.480  52.128  1.00  0.00     0.056 A 
BRANCH  17  21
HETATM   21  O1  UNL     1      25.450   5.372  50.285  1.00  0.00    -0.345 OA
BRANCH  21  22
HETATM   22  C11 UNL     1      25.618   5.581  48.911  1.00  0.00     0.214 C 
BRANCH  22  23
HETATM   23  C12 UNL     1      26.982   6.042  48.551  1.00  0.00    -0.034 A 
HETATM   24  C13 UNL     1      28.021   5.115  48.466  1.00  0.00     0.009 A 
HETATM   25  C14 UNL     1      29.312   5.519  48.131  1.00  0.00     0.001 A 
HETATM   26  C15 UNL     1      29.544   6.855  47.882  1.00  0.00     0.000 A 
HETATM   27  C16 UNL     1      28.553   7.811  47.951  1.00  0.00     0.001 A 
HETATM   28  C17 UNL     1      27.286   7.373  48.287  1.00  0.00     0.009 A 
ENDBRANCH  22  23
ENDBRANCH  21  22
ENDBRANCH  17  21
ENDBRANCH  12  14
ENDBRANCH   8  12
TORSDOF 5
ENDMDL
MODEL 2
REMARK VINA RESULT:      -8.7      1.901      2.599
REMARK  5 active torsions:
REMARK  status: ('A' for Active; 'I' for Inactive)
REMARK    1  A    between atoms: C6_8  and  N3_9 
REMARK    2  A    between atoms: N3_9  and  C7_10 
REMARK    3  A    between atoms: C10_13  and  O1_14 
REMARK    4  A    between atoms: O1_14  and  C11_15 
REMARK    5  A    between atoms: C11_15  and  C12_16 
ROOT
HETATM    1  N1  UNL     1      28.267   1.905  52.821  1.00  0.00    -0.191 NA
HETATM    2  C1  UNL     1      27.368   1.308  53.243  1.00  0.00     0.103 C 
HETATM    3  C2  UNL     1      26.244   0.589  53.752  1.00  0.00     0.089 A 
HETATM    4  C3  UNL     1      26.461  -0.101  54.940  1.00  0.00     0.142 A 
HETATM    5  N2  UNL     1      25.499  -0.813  55.526  1.00  0.00    -0.259 NA
HETATM    6  C4  UNL     1      24.294  -0.876  54.973  1.00  0.00     0.065 A 
HETATM    7  C5  UNL     1      24.045  -0.205  53.797  1.00  0.00     0.002 A 
HETATM    8  C6  UNL     1      25.010   0.544  53.156  1.00  0.00     0.064 A 
HETATM    9  C20 UNL     1      22.628  -0.457  53.424  1.00  0.00     0.070 A 
HETATM   10  C21 UNL     1      22.094  -1.332  54.493  1.00  0.00    -0.020 A 
HETATM   11  C22 UNL     1      23.060  -1.563  55.373  1.00  0.00     0.028 A 
ENDROOT
BRANCH   8  12
HETATM   12  N3  UNL     1      24.819   1.252  51.955  1.00  0.00    -0.354 N 
HETATM   13  H2  UNL     1      25.218   0.606  51.239  1.00  0.00     0.166 HD
BRANCH  12  14
HETATM   14  C7  UNL     1      24.255   2.514  51.624  1.00  0.00     0.034 A 
HETATM   15  C8  UNL     1      24.094   3.430  52.642  1.00  0.00     0.032 A 
HETATM   16  C9  UNL     1      23.544   4.639  52.267  1.00  0.00     0.041 A 
HETATM   17  C10 UNL     1      23.164   4.952  50.976  1.00  0.00     0.091 A 
HETATM   18  C18 UNL     1      23.356   3.994  50.026  1.00  0.00     0.069 A 
HETATM   19 CL1  UNL     1      22.893   4.343  48.380  1.00  0.00    -0.081 Cl
HETATM   20  C19 UNL     1      23.903   2.750  50.311  1.00  0.00     0.056 A 
BRANCH  17  21
HETATM   21  O1  UNL     1      22.626   6.204  50.750  1.00  0.00    -0.345 OA
BRANCH  21  22
HETATM   22  C11 UNL     1      23.390   7.376  50.771  1.00  0.00     0.214 C 
BRANCH  22  23
HETATM   23  C12 UNL     1      24.432   7.414  49.714  1.00  0.00    -0.034 A 
HETATM   24  C13 UNL     1      25.769   7.218  50.059  1.00  0.00     0.009 A 
HETATM   25  C14 UNL     1      26.769   7.249  49.088  1.00  0.00     0.001 A 
HETATM   26  C15 UNL     1      26.410   7.475  47.776  1.00  0.00     0.000 A 
HETATM   27  C16 UNL     1      25.104   7.674  47.382  1.00  0.00     0.001 A 
HETATM   28  C17 UNL     1      24.140   7.638  48.373  1.00  0.00     0.009 A 
ENDBRANCH  22  23
ENDBRANCH  21  22
ENDBRANCH  17  21
ENDBRANCH  12  14
ENDBRANCH   8  12
TORSDOF 5
ENDMDL
MODEL 3
REMARK VINA RESULT:      -8.7      3.774      8.644
REMARK  5 active torsions:
REMARK  status: ('A' for Active; 'I' for Inactive)
REMARK    1  A    between atoms: C6_8  and  N3_9 
REMARK    2  A    between atoms: N3_9  and  C7_10 
REMARK    3  A    between atoms: C10_13  and  O1_14 
REMARK    4  A    between atoms: O1_14  and  C11_15 
REMARK    5  A    between atoms: C11_15  and  C12_16 
ROOT
HETATM    1  N1  UNL     1      23.379   8.098  50.399  1.00  0.00    -0.191 NA
HETATM    2  C1  UNL     1      24.474   8.053  50.021  1.00  0.00     0.103 C 
HETATM    3  C2  UNL     1      25.824   7.973  49.562  1.00  0.00     0.089 A 
HETATM    4  C3  UNL     1      26.552   9.155  49.633  1.00  0.00     0.142 A 
HETATM    5  N2  UNL     1      27.824   9.223  49.238  1.00  0.00    -0.259 NA
HETATM    6  C4  UNL     1      28.426   8.141  48.763  1.00  0.00     0.065 A 
HETATM    7  C5  UNL     1      27.734   6.954  48.679  1.00  0.00     0.002 A 
HETATM    8  C6  UNL     1      26.418   6.838  49.075  1.00  0.00     0.064 A 
HETATM    9  C20 UNL     1      28.655   5.932  48.115  1.00  0.00     0.070 A 
HETATM   10  C21 UNL     1      29.933   6.644  47.886  1.00  0.00    -0.020 A 
HETATM   11  C22 UNL     1      29.786   7.909  48.261  1.00  0.00     0.028 A 
ENDROOT
BRANCH   8  12
HETATM   12  N3  UNL     1      25.656   5.655  49.016  1.00  0.00    -0.354 N 
HETATM   13  H2  UNL     1      25.117   5.771  48.130  1.00  0.00     0.166 HD
BRANCH  12  14
HETATM   14  C7  UNL     1      25.531   4.511  49.849  1.00  0.00     0.034 A 
HETATM   15  C8  UNL     1      26.567   3.601  49.846  1.00  0.00     0.032 A 
HETATM   16  C9  UNL     1      26.396   2.508  50.672  1.00  0.00     0.041 A 
HETATM   17  C10 UNL     1      25.282   2.300  51.462  1.00  0.00     0.091 A 
HETATM   18  C18 UNL     1      24.301   3.245  51.410  1.00  0.00     0.069 A 
HETATM   19 CL1  UNL     1      22.875   3.026  52.391  1.00  0.00    -0.081 Cl
HETATM   20  C19 UNL     1      24.388   4.375  50.608  1.00  0.00     0.056 A 
BRANCH  17  21
HETATM   21  O1  UNL     1      25.250   1.158  52.240  1.00  0.00    -0.345 OA
BRANCH  21  22
HETATM   22  C11 UNL     1      25.830   1.087  53.512  1.00  0.00     0.214 C 
BRANCH  22  23
HETATM   23  C12 UNL     1      27.174   0.456  53.507  1.00  0.00    -0.034 A 
HETATM   24  C13 UNL     1      27.307  -0.877  53.117  1.00  0.00     0.009 A 
HETATM   25  C14 UNL     1      28.556  -1.496  53.104  1.00  0.00     0.001 A 
HETATM   26  C15 UNL     1      29.661  -0.764  53.482  1.00  0.00     0.000 A 
HETATM   27  C16 UNL     1      29.585   0.556  53.875  1.00  0.00     0.001 A 
HETATM   28  C17 UNL     1      28.330   1.135  53.877  1.00  0.00     0.009 A 
ENDBRANCH  22  23
ENDBRANCH  21  22
ENDBRANCH  17  21
ENDBRANCH  12  14
ENDBRANCH   8  12
TORSDOF 5
ENDMDL
MODEL 4
REMARK VINA RESULT:      -8.6      1.989      3.869
REMARK  5 active torsions:
REMARK  status: ('A' for Active; 'I' for Inactive)
REMARK    1  A    between atoms: C6_8  and  N3_9 
REMARK    2  A    between atoms: N3_9  and  C7_10 
REMARK    3  A    between atoms: C10_13  and  O1_14 
REMARK    4  A    between atoms: O1_14  and  C11_15 
REMARK    5  A    between atoms: C11_15  and  C12_16 
ROOT
HETATM    1  N1  UNL     1      22.034  -0.889  53.327  1.00  0.00    -0.191 NA
HETATM    2  C1  UNL     1      23.136  -0.596  53.527  1.00  0.00     0.103 C 
HETATM    3  C2  UNL     1      24.499  -0.232  53.749  1.00  0.00     0.089 A 
HETATM    4  C3  UNL     1      25.105  -0.820  54.854  1.00  0.00     0.142 A 
HETATM    5  N2  UNL     1      26.374  -0.569  55.178  1.00  0.00    -0.259 NA
HETATM    6  C4  UNL     1      27.092   0.264  54.436  1.00  0.00     0.065 A 
HETATM    7  C5  UNL     1      26.523   0.864  53.335  1.00  0.00     0.002 A 
HETATM    8  C6  UNL     1      25.215   0.634  52.963  1.00  0.00     0.064 A 
HETATM    9  C20 UNL     1      27.555   1.733  52.710  1.00  0.00     0.070 A 
HETATM   10  C21 UNL     1      28.762   1.572  53.553  1.00  0.00    -0.020 A 
HETATM   11  C22 UNL     1      28.481   0.728  54.538  1.00  0.00     0.028 A 
ENDROOT
BRANCH   8  12
HETATM   12  N3  UNL     1      24.576   1.214  51.851  1.00  0.00    -0.354 N 
HETATM   13  H2  UNL     1      24.505   0.417  51.182  1.00  0.00     0.166 HD
BRANCH  12  14
HETATM   14  C7  UNL     1      24.091   2.516  51.551  1.00  0.00     0.034 A 
HETATM   15  C8  UNL     1      24.030   3.430  52.582  1.00  0.00     0.032 A 
HETATM   16  C9  UNL     1      23.553   4.678  52.238  1.00  0.00     0.041 A 
HETATM   17  C10 UNL     1      23.152   5.031  50.963  1.00  0.00     0.091 A 
HETATM   18  C18 UNL     1      23.243   4.072  49.998  1.00  0.00     0.069 A 
HETATM   19 CL1  UNL     1      22.750   4.471  48.373  1.00  0.00    -0.081 Cl
HETATM   20  C19 UNL     1      23.711   2.790  50.254  1.00  0.00     0.056 A 
BRANCH  17  21
HETATM   21  O1  UNL     1      22.695   6.320  50.767  1.00  0.00    -0.345 OA
BRANCH  21  22
HETATM   22  C11 UNL     1      23.535   7.439  50.803  1.00  0.00     0.214 C 
BRANCH  22  23
HETATM   23  C12 UNL     1      24.542   7.450  49.712  1.00  0.00    -0.034 A 
HETATM   24  C13 UNL     1      25.882   7.204  50.011  1.00  0.00     0.009 A 
HETATM   25  C14 UNL     1      26.849   7.209  49.007  1.00  0.00     0.001 A 
HETATM   26  C15 UNL     1      26.455   7.459  47.710  1.00  0.00     0.000 A 
HETATM   27  C16 UNL     1      25.145   7.708  47.361  1.00  0.00     0.001 A 
HETATM   28  C17 UNL     1      24.214   7.696  48.383  1.00  0.00     0.009 A 
ENDBRANCH  22  23
ENDBRANCH  21  22
ENDBRANCH  17  21
ENDBRANCH  12  14
ENDBRANCH   8  12
TORSDOF 5
ENDMDL
MODEL 5
REMARK VINA RESULT:      -8.6      4.225      9.323
REMARK  5 active torsions:
REMARK  status: ('A' for Active; 'I' for Inactive)
REMARK    1  A    between atoms: C6_8  and  N3_9 
REMARK    2  A    between atoms: N3_9  and  C7_10 
REMARK    3  A    between atoms: C10_13  and  O1_14 
REMARK    4  A    between atoms: O1_14  and  C11_15 
REMARK    5  A    between atoms: C11_15  and  C12_16 
ROOT
HETATM    1  N1  UNL     1      26.426  10.072  49.416  1.00  0.00    -0.191 NA
HETATM    2  C1  UNL     1      27.440   9.546  49.225  1.00  0.00     0.103 C 
HETATM    3  C2  UNL     1      28.680   8.875  48.995  1.00  0.00     0.089 A 
HETATM    4  C3  UNL     1      29.823   9.611  49.287  1.00  0.00     0.142 A 
HETATM    5  N2  UNL     1      31.046   9.107  49.120  1.00  0.00    -0.259 NA
HETATM    6  C4  UNL     1      31.194   7.870  48.662  1.00  0.00     0.065 A 
HETATM    7  C5  UNL     1      30.083   7.114  48.363  1.00  0.00     0.002 A 
HETATM    8  C6  UNL     1      28.799   7.595  48.521  1.00  0.00     0.064 A 
HETATM    9  C20 UNL     1      30.554   5.790  47.877  1.00  0.00     0.070 A 
HETATM   10  C21 UNL     1      32.032   5.861  47.928  1.00  0.00    -0.020 A 
HETATM   11  C22 UNL     1      32.384   7.059  48.379  1.00  0.00     0.028 A 
ENDROOT
BRANCH   8  12
HETATM   12  N3  UNL     1      27.625   6.874  48.234  1.00  0.00    -0.354 N 
HETATM   13  H2  UNL     1      27.354   7.236  47.294  1.00  0.00     0.166 HD
BRANCH  12  14
HETATM   14  C7  UNL     1      26.872   5.885  48.923  1.00  0.00     0.034 A 
HETATM   15  C8  UNL     1      27.313   4.580  48.854  1.00  0.00     0.032 A 
HETATM   16  C9  UNL     1      26.548   3.660  49.540  1.00  0.00     0.041 A 
HETATM   17  C10 UNL     1      25.411   3.978  50.259  1.00  0.00     0.091 A 
HETATM   18  C18 UNL     1      25.040   5.289  50.280  1.00  0.00     0.069 A 
HETATM   19 CL1  UNL     1      23.612   5.740  51.176  1.00  0.00    -0.081 Cl
HETATM   20  C19 UNL     1      25.749   6.283  49.619  1.00  0.00     0.056 A 
BRANCH  17  21
HETATM   21  O1  UNL     1      24.746   2.949  50.898  1.00  0.00    -0.345 OA
BRANCH  21  22
HETATM   22  C11 UNL     1      24.893   2.678  52.263  1.00  0.00     0.214 C 
BRANCH  22  23
HETATM   23  C12 UNL     1      25.979   1.710  52.554  1.00  0.00    -0.034 A 
HETATM   24  C13 UNL     1      27.099   2.127  53.274  1.00  0.00     0.009 A 
HETATM   25  C14 UNL     1      28.134   1.240  53.562  1.00  0.00     0.001 A 
HETATM   26  C15 UNL     1      28.031  -0.063  53.122  1.00  0.00     0.000 A 
HETATM   27  C16 UNL     1      26.947  -0.526  52.407  1.00  0.00     0.001 A 
HETATM   28  C17 UNL     1      25.940   0.382  52.140  1.00  0.00     0.009 A 
ENDBRANCH  22  23
ENDBRANCH  21  22
ENDBRANCH  17  21
ENDBRANCH  12  14
ENDBRANCH   8  12
TORSDOF 5
ENDMDL
MODEL 6
REMARK VINA RESULT:      -8.4      1.663      3.123
REMARK  5 active torsions:
REMARK  status: ('A' for Active; 'I' for Inactive)
REMARK    1  A    between atoms: C6_8  and  N3_9 
REMARK    2  A    between atoms: N3_9  and  C7_10 
REMARK    3  A    between atoms: C10_13  and  O1_14 
REMARK    4  A    between atoms: O1_14  and  C11_15 
REMARK    5  A    between atoms: C11_15  and  C12_16 
ROOT
HETATM    1  N1  UNL     1      18.822   0.541  51.266  1.00  0.00    -0.191 NA
HETATM    2  C1  UNL     1      19.679   0.229  51.979  1.00  0.00     0.103 C 
HETATM    3  C2  UNL     1      20.753  -0.158  52.838  1.00  0.00     0.089 A 
HETATM    4  C3  UNL     1      20.384  -0.860  53.980  1.00  0.00     0.142 A 
HETATM    5  N2  UNL     1      21.284  -1.281  54.869  1.00  0.00    -0.259 NA
HETATM    6  C4  UNL     1      22.572  -1.033  54.672  1.00  0.00     0.065 A 
HETATM    7  C5  UNL     1      22.972  -0.340  53.552  1.00  0.00     0.002 A 
HETATM    8  C6  UNL     1      22.076   0.115  52.607  1.00  0.00     0.064 A 
HETATM    9  C20 UNL     1      24.453  -0.214  53.603  1.00  0.00     0.070 A 
HETATM   10  C21 UNL     1      24.859  -0.898  54.852  1.00  0.00    -0.020 A 
HETATM   11  C22 UNL     1      23.770  -1.361  55.454  1.00  0.00     0.028 A 
ENDROOT
BRANCH   8  12
HETATM   12  N3  UNL     1      22.421   0.827  51.442  1.00  0.00    -0.354 N 
HETATM   13  H2  UNL     1      22.104   0.190  50.679  1.00  0.00     0.166 HD
BRANCH  12  14
HETATM   14  C7  UNL     1      23.037   2.082  51.190  1.00  0.00     0.034 A 
HETATM   15  C8  UNL     1      24.406   2.101  51.026  1.00  0.00     0.032 A 
HETATM   16  C9  UNL     1      24.955   3.344  50.783  1.00  0.00     0.041 A 
HETATM   17  C10 UNL     1      24.222   4.513  50.702  1.00  0.00     0.091 A 
HETATM   18  C18 UNL     1      22.874   4.412  50.875  1.00  0.00     0.069 A 
HETATM   19 CL1  UNL     1      21.907   5.861  50.781  1.00  0.00    -0.081 Cl
HETATM   20  C19 UNL     1      22.237   3.203  51.124  1.00  0.00     0.056 A 
BRANCH  17  21
HETATM   21  O1  UNL     1      24.910   5.686  50.453  1.00  0.00    -0.345 OA
BRANCH  21  22
HETATM   22  C11 UNL     1      25.125   6.182  49.162  1.00  0.00     0.214 C 
BRANCH  22  23
HETATM   23  C12 UNL     1      26.561   6.381  48.844  1.00  0.00    -0.034 A 
HETATM   24  C13 UNL     1      27.368   5.273  48.587  1.00  0.00     0.009 A 
HETATM   25  C14 UNL     1      28.720   5.430  48.285  1.00  0.00     0.001 A 
HETATM   26  C15 UNL     1      29.245   6.704  48.243  1.00  0.00     0.000 A 
HETATM   27  C16 UNL     1      28.491   7.832  48.489  1.00  0.00     0.001 A 
HETATM   28  C17 UNL     1      27.155   7.637  48.785  1.00  0.00     0.009 A 
ENDBRANCH  22  23
ENDBRANCH  21  22
ENDBRANCH  17  21
ENDBRANCH  12  14
ENDBRANCH   8  12
TORSDOF 5
ENDMDL
MODEL 7
REMARK VINA RESULT:      -8.4      3.918      7.863
REMARK  5 active torsions:
REMARK  status: ('A' for Active; 'I' for Inactive)
REMARK    1  A    between atoms: C6_8  and  N3_9 
REMARK    2  A    between atoms: N3_9  and  C7_10 
REMARK    3  A    between atoms: C10_13  and  O1_14 
REMARK    4  A    between atoms: O1_14  and  C11_15 
REMARK    5  A    between atoms: C11_15  and  C12_16 
ROOT
HETATM    1  N1  UNL     1      21.564  -1.840  55.013  1.00  0.00    -0.191 NA
HETATM    2  C1  UNL     1      22.592  -1.362  54.775  1.00  0.00     0.103 C 
HETATM    3  C2  UNL     1      23.855  -0.776  54.457  1.00  0.00     0.089 A 
HETATM    4  C3  UNL     1      24.869  -0.998  55.382  1.00  0.00     0.142 A 
HETATM    5  N2  UNL     1      26.098  -0.508  55.210  1.00  0.00    -0.259 NA
HETATM    6  C4  UNL     1      26.376   0.212  54.132  1.00  0.00     0.065 A 
HETATM    7  C5  UNL     1      25.395   0.451  53.196  1.00  0.00     0.002 A 
HETATM    8  C6  UNL     1      24.112  -0.035  53.332  1.00  0.00     0.064 A 
HETATM    9  C20 UNL     1      25.994   1.276  52.113  1.00  0.00     0.070 A 
HETATM   10  C21 UNL     1      27.403   1.484  52.517  1.00  0.00    -0.020 A 
HETATM   11  C22 UNL     1      27.607   0.870  53.676  1.00  0.00     0.028 A 
ENDROOT
BRANCH   8  12
HETATM   12  N3  UNL     1      23.066   0.173  52.413  1.00  0.00    -0.354 N 
HETATM   13  H2  UNL     1      23.203  -0.601  51.727  1.00  0.00     0.166 HD
BRANCH  12  14
HETATM   14  C7  UNL     1      22.018   1.126  52.298  1.00  0.00     0.034 A 
HETATM   15  C8  UNL     1      20.721   0.661  52.343  1.00  0.00     0.032 A 
HETATM   16  C9  UNL     1      19.743   1.626  52.227  1.00  0.00     0.041 A 
HETATM   17  C10 UNL     1      19.998   2.976  52.074  1.00  0.00     0.091 A 
HETATM   18  C18 UNL     1      21.306   3.357  52.039  1.00  0.00     0.069 A 
HETATM   19 CL1  UNL     1      21.679   5.051  51.848  1.00  0.00    -0.081 Cl
HETATM   20  C19 UNL     1      22.356   2.455  52.148  1.00  0.00     0.056 A 
BRANCH  17  21
HETATM   21  O1  UNL     1      18.915   3.827  51.971  1.00  0.00    -0.345 OA
BRANCH  21  22
HETATM   22  C11 UNL     1      17.863   3.615  51.072  1.00  0.00     0.214 C 
BRANCH  22  23
HETATM   23  C12 UNL     1      16.571   3.322  51.741  1.00  0.00    -0.034 A 
HETATM   24  C13 UNL     1      16.010   2.050  51.625  1.00  0.00     0.009 A 
HETATM   25  C14 UNL     1      14.798   1.745  52.243  1.00  0.00     0.001 A 
HETATM   26  C15 UNL     1      14.164   2.726  52.974  1.00  0.00     0.000 A 
HETATM   27  C16 UNL     1      14.675   3.998  53.121  1.00  0.00     0.001 A 
HETATM   28  C17 UNL     1      15.878   4.264  52.494  1.00  0.00     0.009 A 
ENDBRANCH  22  23
ENDBRANCH  21  22
ENDBRANCH  17  21
ENDBRANCH  12  14
ENDBRANCH   8  12
TORSDOF 5
ENDMDL
MODEL 8
REMARK VINA RESULT:      -8.4      2.178      3.878
REMARK  5 active torsions:
REMARK  status: ('A' for Active; 'I' for Inactive)
REMARK    1  A    between atoms: C6_8  and  N3_9 
REMARK    2  A    between atoms: N3_9  and  C7_10 
REMARK    3  A    between atoms: C10_13  and  O1_14 
REMARK    4  A    between atoms: O1_14  and  C11_15 
REMARK    5  A    between atoms: C11_15  and  C12_16 
ROOT
HETATM    1  N1  UNL     1      21.084  -1.615  54.662  1.00  0.00    -0.191 NA
HETATM    2  C1  UNL     1      22.194  -1.294  54.584  1.00  0.00     0.103 C 
HETATM    3  C2  UNL     1      23.562  -0.902  54.462  1.00  0.00     0.089 A 
HETATM    4  C3  UNL     1      24.378  -1.228  55.539  1.00  0.00     0.142 A 
HETATM    5  N2  UNL     1      25.676  -0.921  55.558  1.00  0.00    -0.259 NA
HETATM    6  C4  UNL     1      26.218  -0.287  54.527  1.00  0.00     0.065 A 
HETATM    7  C5  UNL     1      25.439   0.052  53.444  1.00  0.00     0.002 A 
HETATM    8  C6  UNL     1      24.093  -0.246  53.382  1.00  0.00     0.064 A 
HETATM    9  C20 UNL     1      26.310   0.745  52.458  1.00  0.00     0.070 A 
HETATM   10  C21 UNL     1      27.655   0.770  53.078  1.00  0.00    -0.020 A 
HETATM   11  C22 UNL     1      27.586   0.176  54.263  1.00  0.00     0.028 A 
ENDROOT
BRANCH   8  12
HETATM   12  N3  UNL     1      23.243   0.072  52.305  1.00  0.00    -0.354 N 
HETATM   13  H2  UNL     1      22.950  -0.867  51.957  1.00  0.00     0.166 HD
BRANCH  12  14
HETATM   14  C7  UNL     1      22.797   1.285  51.715  1.00  0.00     0.034 A 
HETATM   15  C8  UNL     1      22.248   1.218  50.452  1.00  0.00     0.032 A 
HETATM   16  C9  UNL     1      21.831   2.423  49.925  1.00  0.00     0.041 A 
HETATM   17  C10 UNL     1      21.937   3.636  50.580  1.00  0.00     0.091 A 
HETATM   18  C18 UNL     1      22.491   3.619  51.825  1.00  0.00     0.069 A 
HETATM   19 CL1  UNL     1      22.646   5.125  52.692  1.00  0.00    -0.081 Cl
HETATM   20  C19 UNL     1      22.938   2.454  52.434  1.00  0.00     0.056 A 
BRANCH  17  21
HETATM   21  O1  UNL     1      21.475   4.762  49.926  1.00  0.00    -0.345 OA
BRANCH  21  22
HETATM   22  C11 UNL     1      22.170   5.370  48.874  1.00  0.00     0.214 C 
BRANCH  22  23
HETATM   23  C12 UNL     1      23.376   6.110  49.320  1.00  0.00    -0.034 A 
HETATM   24  C13 UNL     1      24.641   5.574  49.077  1.00  0.00     0.009 A 
HETATM   25  C14 UNL     1      25.792   6.247  49.484  1.00  0.00     0.001 A 
HETATM   26  C15 UNL     1      25.657   7.456  50.133  1.00  0.00     0.000 A 
HETATM   27  C16 UNL     1      24.431   8.030  50.398  1.00  0.00     0.001 A 
HETATM   28  C17 UNL     1      23.312   7.333  49.979  1.00  0.00     0.009 A 
ENDBRANCH  22  23
ENDBRANCH  21  22
ENDBRANCH  17  21
ENDBRANCH  12  14
ENDBRANCH   8  12
TORSDOF 5
ENDMDL
MODEL 9
REMARK VINA RESULT:      -8.3      1.981      3.628
REMARK  5 active torsions:
REMARK  status: ('A' for Active; 'I' for Inactive)
REMARK    1  A    between atoms: C6_8  and  N3_9 
REMARK    2  A    between atoms: N3_9  and  C7_10 
REMARK    3  A    between atoms: C10_13  and  O1_14 
REMARK    4  A    between atoms: O1_14  and  C11_15 
REMARK    5  A    between atoms: C11_15  and  C12_16 
ROOT
HETATM    1  N1  UNL     1      18.691  -0.666  53.012  1.00  0.00    -0.191 NA
HETATM    2  C1  UNL     1      19.798  -0.699  53.350  1.00  0.00     0.103 C 
HETATM    3  C2  UNL     1      21.171  -0.739  53.741  1.00  0.00     0.089 A 
HETATM    4  C3  UNL     1      21.437  -1.414  54.927  1.00  0.00     0.142 A 
HETATM    5  N2  UNL     1      22.675  -1.528  55.410  1.00  0.00    -0.259 NA
HETATM    6  C4  UNL     1      23.692  -0.988  54.752  1.00  0.00     0.065 A 
HETATM    7  C5  UNL     1      23.465  -0.312  53.574  1.00  0.00     0.002 A 
HETATM    8  C6  UNL     1      22.202  -0.170  53.038  1.00  0.00     0.064 A 
HETATM    9  C20 UNL     1      24.776   0.177  53.072  1.00  0.00     0.070 A 
HETATM   10  C21 UNL     1      25.770  -0.282  54.070  1.00  0.00    -0.020 A 
HETATM   11  C22 UNL     1      25.134  -0.947  55.026  1.00  0.00     0.028 A 
ENDROOT
BRANCH   8  12
HETATM   12  N3  UNL     1      21.903   0.507  51.841  1.00  0.00    -0.354 N 
HETATM   13  H2  UNL     1      21.299  -0.176  51.332  1.00  0.00     0.166 HD
BRANCH  12  14
HETATM   14  C7  UNL     1      22.245   1.778  51.305  1.00  0.00     0.034 A 
HETATM   15  C8  UNL     1      22.328   2.841  52.180  1.00  0.00     0.032 A 
HETATM   16  C9  UNL     1      22.664   4.051  51.610  1.00  0.00     0.041 A 
HETATM   17  C10 UNL     1      22.908   4.233  50.261  1.00  0.00     0.091 A 
HETATM   18  C18 UNL     1      22.806   3.134  49.461  1.00  0.00     0.069 A 
HETATM   19 CL1  UNL     1      23.105   3.314  47.752  1.00  0.00    -0.081 Cl
HETATM   20  C19 UNL     1      22.473   1.877  49.948  1.00  0.00     0.056 A 
BRANCH  17  21
HETATM   21  O1  UNL     1      23.235   5.506  49.834  1.00  0.00    -0.345 OA
BRANCH  21  22
HETATM   22  C11 UNL     1      24.298   6.240  50.372  1.00  0.00     0.214 C 
BRANCH  22  23
HETATM   23  C12 UNL     1      25.547   6.129  49.577  1.00  0.00    -0.034 A 
HETATM   24  C13 UNL     1      25.992   7.227  48.840  1.00  0.00     0.009 A 
HETATM   25  C14 UNL     1      27.161   7.152  48.084  1.00  0.00     0.001 A 
HETATM   26  C15 UNL     1      27.872   5.971  48.080  1.00  0.00     0.000 A 
HETATM   27  C16 UNL     1      27.476   4.857  48.791  1.00  0.00     0.001 A 
HETATM   28  C17 UNL     1      26.311   4.969  49.528  1.00  0.00     0.009 A 
ENDBRANCH  22  23
ENDBRANCH  21  22
ENDBRANCH  17  21
ENDBRANCH  12  14
ENDBRANCH   8  12
TORSDOF 5
ENDMDL
