MODEL 1
REMARK VINA RESULT:      -8.4      0.000      0.000
REMARK  4 active torsions:
REMARK  status: ('A' for Active; 'I' for Inactive)
REMARK    1  A    between atoms: O1_2  and  C2_3 
REMARK    2  A    between atoms: C8_14  and  N4_15 
REMARK    3  A    between atoms: N4_15  and  C9_16 
REMARK    4  A    between atoms: C16_25  and  O4_26 
ROOT
HETATM    1  C2  UNL     1      24.830   3.086  50.098  1.00  0.00     0.178 C 
HETATM    2  C3  UNL     1      23.853   3.655  48.935  1.00  0.00     0.205 C 
HETATM    3  O2  UNL     1      22.983   2.739  48.631  1.00  0.00    -0.362 OA
HETATM    4  C4  UNL     1      22.023   2.287  47.962  1.00  0.00     0.372 C 
HETATM    5  O3  UNL     1      21.530   0.952  48.354  1.00  0.00    -0.231 OA
HETATM    6  N1  UNL     1      21.056   0.776  49.635  1.00  0.00    -0.142 NA
HETATM    7  C5  UNL     1      21.634   0.688  50.742  1.00  0.00     0.178 C 
HETATM    8  C6  UNL     1      22.626   0.631  51.815  1.00  0.00     0.090 A 
HETATM    9  N2  UNL     1      22.374  -0.280  52.750  1.00  0.00    -0.240 NA
HETATM   10  C7  UNL     1      23.221  -0.452  53.786  1.00  0.00     0.236 A 
HETATM   11  N3  UNL     1      24.312   0.309  53.848  1.00  0.00    -0.224 NA
HETATM   12  C8  UNL     1      24.625   1.234  52.950  1.00  0.00     0.140 A 
HETATM   13  C15 UNL     1      23.795   1.443  51.887  1.00  0.00     0.049 A 
HETATM   14  C16 UNL     1      23.875   2.366  50.812  1.00  0.00     0.188 C 
ENDROOT
BRANCH  12  15
HETATM   15  N4  UNL     1      25.796   2.034  53.035  1.00  0.00    -0.340 N 
HETATM   16  H11 UNL     1      26.031   3.058  53.021  1.00  0.00     0.167 HD
BRANCH  15  17
HETATM   17  C9  UNL     1      26.841   1.081  53.172  1.00  0.00     0.035 A 
HETATM   18  C10 UNL     1      27.975   1.726  53.675  1.00  0.00     0.032 A 
HETATM   19  C11 UNL     1      29.152   0.999  53.897  1.00  0.00     0.046 A 
HETATM   20  C12 UNL     1      29.226  -0.345  53.633  1.00  0.00     0.138 A 
HETATM   21  F1  UNL     1      30.323  -1.116  53.819  1.00  0.00    -0.204 F 
HETATM   22  C13 UNL     1      28.113  -0.982  53.138  1.00  0.00     0.074 A 
HETATM   23 CL1  UNL     1      28.001  -2.678  52.734  1.00  0.00    -0.081 Cl
HETATM   24  C14 UNL     1      26.964  -0.263  52.923  1.00  0.00     0.056 A 
ENDBRANCH  15  17
ENDBRANCH  12  15
BRANCH  14  25
HETATM   25  O4  UNL     1      22.872   3.314  51.154  1.00  0.00    -0.388 OA
HETATM   26  H16 UNL     1      23.189   3.755  51.955  1.00  0.00     0.210 HD
ENDBRANCH  14  25
BRANCH   1  27
HETATM   27  O1  UNL     1      25.536   4.108  50.578  1.00  0.00    -0.386 OA
HETATM   28  C1  UNL     1      25.602   5.288  49.904  1.00  0.00     0.202 C 
ENDBRANCH   1  27
TORSDOF 4
ENDMDL
MODEL 2
REMARK VINA RESULT:      -8.4      2.015      2.911
REMARK  4 active torsions:
REMARK  status: ('A' for Active; 'I' for Inactive)
REMARK    1  A    between atoms: O1_2  and  C2_3 
REMARK    2  A    between atoms: C8_14  and  N4_15 
REMARK    3  A    between atoms: N4_15  and  C9_16 
REMARK    4  A    between atoms: C16_25  and  O4_26 
ROOT
HETATM    1  C2  UNL     1      21.955   1.073  50.625  1.00  0.00     0.178 C 
HETATM    2  C3  UNL     1      20.423   1.486  50.288  1.00  0.00     0.205 C 
HETATM    3  O2  UNL     1      19.622   0.654  50.884  1.00  0.00    -0.362 OA
HETATM    4  C4  UNL     1      18.487   0.196  51.157  1.00  0.00     0.372 C 
HETATM    5  O3  UNL     1      18.452  -0.930  52.111  1.00  0.00    -0.231 OA
HETATM    6  N1  UNL     1      18.962  -0.736  53.376  1.00  0.00    -0.142 NA
HETATM    7  C5  UNL     1      20.134  -0.643  53.806  1.00  0.00     0.178 C 
HETATM    8  C6  UNL     1      21.590  -0.586  53.934  1.00  0.00     0.090 A 
HETATM    9  N2  UNL     1      22.074  -1.210  55.003  1.00  0.00    -0.240 NA
HETATM   10  C7  UNL     1      23.404  -1.252  55.230  1.00  0.00     0.236 A 
HETATM   11  N3  UNL     1      24.215  -0.657  54.359  1.00  0.00    -0.224 NA
HETATM   12  C8  UNL     1      23.801  -0.018  53.273  1.00  0.00     0.140 A 
HETATM   13  C15 UNL     1      22.464   0.051  53.006  1.00  0.00     0.049 A 
HETATM   14  C16 UNL     1      21.758   0.678  51.947  1.00  0.00     0.188 C 
ENDROOT
BRANCH  12  15
HETATM   15  N4  UNL     1      24.686   0.610  52.356  1.00  0.00    -0.340 N 
HETATM   16  H11 UNL     1      24.609   1.268  51.540  1.00  0.00     0.167 HD
BRANCH  15  17
HETATM   17  C9  UNL     1      25.967   0.143  52.757  1.00  0.00     0.035 A 
HETATM   18  C10 UNL     1      26.667   1.200  53.346  1.00  0.00     0.032 A 
HETATM   19  C11 UNL     1      27.968   0.996  53.824  1.00  0.00     0.046 A 
HETATM   20  C12 UNL     1      28.584  -0.226  53.731  1.00  0.00     0.138 A 
HETATM   21  F1  UNL     1      29.835  -0.504  54.167  1.00  0.00    -0.204 F 
HETATM   22  C13 UNL     1      27.898  -1.268  53.152  1.00  0.00     0.074 A 
HETATM   23 CL1  UNL     1      28.501  -2.893  52.935  1.00  0.00    -0.081 Cl
HETATM   24  C14 UNL     1      26.625  -1.060  52.687  1.00  0.00     0.056 A 
ENDBRANCH  15  17
ENDBRANCH  12  15
BRANCH  14  25
HETATM   25  O4  UNL     1      21.189   1.809  52.593  1.00  0.00    -0.388 OA
HETATM   26  H16 UNL     1      20.585   1.453  53.261  1.00  0.00     0.210 HD
ENDBRANCH  14  25
BRANCH   1  27
HETATM   27  O1  UNL     1      22.746   2.071  50.234  1.00  0.00    -0.386 OA
HETATM   28  C1  UNL     1      22.510   2.730  49.066  1.00  0.00     0.202 C 
ENDBRANCH   1  27
TORSDOF 4
ENDMDL
MODEL 3
REMARK VINA RESULT:      -8.3      2.324      4.024
REMARK  4 active torsions:
REMARK  status: ('A' for Active; 'I' for Inactive)
REMARK    1  A    between atoms: O1_2  and  C2_3 
REMARK    2  A    between atoms: C8_14  and  N4_15 
REMARK    3  A    between atoms: N4_15  and  C9_16 
REMARK    4  A    between atoms: C16_25  and  O4_26 
ROOT
HETATM    1  C2  UNL     1      22.250   0.623  53.393  1.00  0.00     0.178 C 
HETATM    2  C3  UNL     1      20.683   0.926  53.103  1.00  0.00     0.205 C 
HETATM    3  O2  UNL     1      20.568   2.133  52.634  1.00  0.00    -0.362 OA
HETATM    4  C4  UNL     1      19.904   3.114  52.222  1.00  0.00     0.372 C 
HETATM    5  O3  UNL     1      20.683   4.279  51.760  1.00  0.00    -0.231 OA
HETATM    6  N1  UNL     1      21.563   4.109  50.715  1.00  0.00    -0.142 NA
HETATM    7  C5  UNL     1      22.684   3.557  50.639  1.00  0.00     0.178 C 
HETATM    8  C6  UNL     1      23.929   2.846  50.928  1.00  0.00     0.090 A 
HETATM    9  N2  UNL     1      25.005   3.356  50.337  1.00  0.00    -0.240 NA
HETATM   10  C7  UNL     1      26.222   2.807  50.536  1.00  0.00     0.236 A 
HETATM   11  N3  UNL     1      26.318   1.748  51.337  1.00  0.00    -0.224 NA
HETATM   12  C8  UNL     1      25.288   1.190  51.958  1.00  0.00     0.140 A 
HETATM   13  C15 UNL     1      24.039   1.711  51.783  1.00  0.00     0.049 A 
HETATM   14  C16 UNL     1      22.781   1.304  52.299  1.00  0.00     0.188 C 
ENDROOT
BRANCH  12  15
HETATM   15  N4  UNL     1      25.414   0.060  52.809  1.00  0.00    -0.340 N 
HETATM   16  H11 UNL     1      24.787  -0.696  53.184  1.00  0.00     0.167 HD
BRANCH  15  17
HETATM   17  C9  UNL     1      26.787   0.070  53.177  1.00  0.00     0.035 A 
HETATM   18  C10 UNL     1      27.346  -1.173  52.868  1.00  0.00     0.032 A 
HETATM   19  C11 UNL     1      28.697  -1.419  53.141  1.00  0.00     0.046 A 
HETATM   20  C12 UNL     1      29.501  -0.464  53.708  1.00  0.00     0.138 A 
HETATM   21  F1  UNL     1      30.813  -0.622  54.002  1.00  0.00    -0.204 F 
HETATM   22  C13 UNL     1      28.955   0.761  54.012  1.00  0.00     0.074 A 
HETATM   23 CL1  UNL     1      29.802   2.106  54.738  1.00  0.00    -0.081 Cl
HETATM   24  C14 UNL     1      27.631   0.994  53.742  1.00  0.00     0.056 A 
ENDBRANCH  15  17
ENDBRANCH  12  15
BRANCH  14  25
HETATM   25  O4  UNL     1      22.163   0.719  51.161  1.00  0.00    -0.388 OA
HETATM   26  H16 UNL     1      21.247   0.540  51.421  1.00  0.00     0.210 HD
ENDBRANCH  14  25
BRANCH   1  27
HETATM   27  O1  UNL     1      22.382  -0.683  53.620  1.00  0.00    -0.386 OA
HETATM   28  C1  UNL     1      21.525  -1.335  54.453  1.00  0.00     0.202 C 
ENDBRANCH   1  27
TORSDOF 4
ENDMDL
MODEL 4
REMARK VINA RESULT:      -8.2      2.119      3.780
REMARK  4 active torsions:
REMARK  status: ('A' for Active; 'I' for Inactive)
REMARK    1  A    between atoms: O1_2  and  C2_3 
REMARK    2  A    between atoms: C8_14  and  N4_15 
REMARK    3  A    between atoms: N4_15  and  C9_16 
REMARK    4  A    between atoms: C16_25  and  O4_26 
ROOT
HETATM    1  C2  UNL     1      21.305   0.925  53.274  1.00  0.00     0.178 C 
HETATM    2  C3  UNL     1      20.022   0.035  52.833  1.00  0.00     0.205 C 
HETATM    3  O2  UNL     1      19.544   0.507  51.721  1.00  0.00    -0.362 OA
HETATM    4  C4  UNL     1      18.710   0.534  50.785  1.00  0.00     0.372 C 
HETATM    5  O3  UNL     1      18.962   1.522  49.717  1.00  0.00    -0.231 OA
HETATM    6  N1  UNL     1      20.141   1.439  49.010  1.00  0.00    -0.142 NA
HETATM    7  C5  UNL     1      21.323   1.727  49.307  1.00  0.00     0.178 C 
HETATM    8  C6  UNL     1      22.540   2.162  49.991  1.00  0.00     0.090 A 
HETATM    9  N2  UNL     1      23.385   2.850  49.229  1.00  0.00    -0.240 NA
HETATM   10  C7  UNL     1      24.538   3.329  49.741  1.00  0.00     0.236 A 
HETATM   11  N3  UNL     1      24.806   3.099  51.024  1.00  0.00    -0.224 NA
HETATM   12  C8  UNL     1      24.009   2.422  51.841  1.00  0.00     0.140 A 
HETATM   13  C15 UNL     1      22.834   1.918  51.363  1.00  0.00     0.049 A 
HETATM   14  C16 UNL     1      21.824   1.150  52.001  1.00  0.00     0.188 C 
ENDROOT
BRANCH  12  15
HETATM   15  N4  UNL     1      24.316   2.189  53.208  1.00  0.00    -0.340 N 
HETATM   16  H11 UNL     1      23.940   2.489  54.143  1.00  0.00     0.167 HD
BRANCH  15  17
HETATM   17  C9  UNL     1      25.434   1.313  53.156  1.00  0.00     0.035 A 
HETATM   18  C10 UNL     1      26.560   1.992  53.629  1.00  0.00     0.032 A 
HETATM   19  C11 UNL     1      27.800   1.342  53.673  1.00  0.00     0.046 A 
HETATM   20  C12 UNL     1      27.944   0.041  53.263  1.00  0.00     0.138 A 
HETATM   21  F1  UNL     1      29.104  -0.656  53.275  1.00  0.00    -0.204 F 
HETATM   22  C13 UNL     1      26.838  -0.629  52.798  1.00  0.00     0.074 A 
HETATM   23 CL1  UNL     1      26.809  -2.280  52.226  1.00  0.00    -0.081 Cl
HETATM   24  C14 UNL     1      25.627   0.014  52.757  1.00  0.00     0.056 A 
ENDBRANCH  15  17
ENDBRANCH  12  15
BRANCH  14  25
HETATM   25  O4  UNL     1      22.036  -0.143  51.450  1.00  0.00    -0.388 OA
HETATM   26  H16 UNL     1      22.868  -0.086  50.958  1.00  0.00     0.210 HD
ENDBRANCH  14  25
BRANCH   1  27
HETATM   27  O1  UNL     1      21.934   0.282  54.255  1.00  0.00    -0.386 OA
HETATM   28  C1  UNL     1      21.470  -0.912  54.717  1.00  0.00     0.202 C 
ENDBRANCH   1  27
TORSDOF 4
ENDMDL
MODEL 5
REMARK VINA RESULT:      -7.7      4.304      6.431
REMARK  4 active torsions:
REMARK  status: ('A' for Active; 'I' for Inactive)
REMARK    1  A    between atoms: O1_2  and  C2_3 
REMARK    2  A    between atoms: C8_14  and  N4_15 
REMARK    3  A    between atoms: N4_15  and  C9_16 
REMARK    4  A    between atoms: C16_25  and  O4_26 
ROOT
HETATM    1  C2  UNL     1      26.571   2.005  51.943  1.00  0.00     0.178 C 
HETATM    2  C3  UNL     1      27.828   1.296  52.684  1.00  0.00     0.205 C 
HETATM    3  O2  UNL     1      27.418   0.779  53.804  1.00  0.00    -0.362 OA
HETATM    4  C4  UNL     1      27.598   0.177  54.889  1.00  0.00     0.372 C 
HETATM    5  O3  UNL     1      26.389  -0.093  55.692  1.00  0.00    -0.231 OA
HETATM    6  N1  UNL     1      25.389  -0.859  55.136  1.00  0.00    -0.142 NA
HETATM    7  C5  UNL     1      24.531  -0.615  54.257  1.00  0.00     0.178 C 
HETATM    8  C6  UNL     1      23.703   0.017  53.231  1.00  0.00     0.090 A 
HETATM    9  N2  UNL     1      22.409  -0.278  53.308  1.00  0.00    -0.240 NA
HETATM   10  C7  UNL     1      21.530   0.256  52.434  1.00  0.00     0.236 A 
HETATM   11  N3  UNL     1      21.989   1.083  51.497  1.00  0.00    -0.224 NA
HETATM   12  C8  UNL     1      23.265   1.420  51.363  1.00  0.00     0.140 A 
HETATM   13  C15 UNL     1      24.188   0.902  52.225  1.00  0.00     0.049 A 
HETATM   14  C16 UNL     1      25.595   1.074  52.293  1.00  0.00     0.188 C 
ENDROOT
BRANCH  12  15
HETATM   15  N4  UNL     1      23.732   2.307  50.356  1.00  0.00    -0.340 N 
HETATM   16  H11 UNL     1      24.453   2.292  49.592  1.00  0.00     0.167 HD
BRANCH  15  17
HETATM   17  C9  UNL     1      22.938   3.471  50.541  1.00  0.00     0.035 A 
HETATM   18  C10 UNL     1      23.647   4.378  51.333  1.00  0.00     0.032 A 
HETATM   19  C11 UNL     1      23.073   5.612  51.666  1.00  0.00     0.046 A 
HETATM   20  C12 UNL     1      21.821   5.963  51.231  1.00  0.00     0.138 A 
HETATM   21  F1  UNL     1      21.198   7.132  51.508  1.00  0.00    -0.204 F 
HETATM   22  C13 UNL     1      21.121   5.072  50.451  1.00  0.00     0.074 A 
HETATM   23 CL1  UNL     1      19.518   5.322  49.803  1.00  0.00    -0.081 Cl
HETATM   24  C14 UNL     1      21.689   3.866  50.130  1.00  0.00     0.056 A 
ENDBRANCH  15  17
ENDBRANCH  12  15
BRANCH  14  25
HETATM   25  O4  UNL     1      26.075  -0.172  51.804  1.00  0.00    -0.388 OA
HETATM   26  H16 UNL     1      25.517  -0.387  51.042  1.00  0.00     0.210 HD
ENDBRANCH  14  25
BRANCH   1  27
HETATM   27  O1  UNL     1      26.939   2.295  50.696  1.00  0.00    -0.386 OA
HETATM   28  C1  UNL     1      26.788   3.554  50.200  1.00  0.00     0.202 C 
ENDBRANCH   1  27
TORSDOF 4
ENDMDL
MODEL 6
REMARK VINA RESULT:      -7.6      4.172      6.688
REMARK  4 active torsions:
REMARK  status: ('A' for Active; 'I' for Inactive)
REMARK    1  A    between atoms: O1_2  and  C2_3 
REMARK    2  A    between atoms: C8_14  and  N4_15 
REMARK    3  A    between atoms: N4_15  and  C9_16 
REMARK    4  A    between atoms: C16_25  and  O4_26 
ROOT
HETATM    1  C2  UNL     1      25.742   2.574  51.637  1.00  0.00     0.178 C 
HETATM    2  C3  UNL     1      27.352   2.482  51.821  1.00  0.00     0.205 C 
HETATM    3  O2  UNL     1      27.613   1.972  52.987  1.00  0.00    -0.362 OA
HETATM    4  C4  UNL     1      28.395   1.605  53.897  1.00  0.00     0.372 C 
HETATM    5  O3  UNL     1      27.769   0.982  55.080  1.00  0.00    -0.231 OA
HETATM    6  N1  UNL     1      27.024  -0.163  54.903  1.00  0.00    -0.142 NA
HETATM    7  C5  UNL     1      25.885  -0.360  54.421  1.00  0.00     0.178 C 
HETATM    8  C6  UNL     1      24.566  -0.207  53.810  1.00  0.00     0.090 A 
HETATM    9  N2  UNL     1      23.616  -0.963  54.351  1.00  0.00    -0.240 NA
HETATM   10  C7  UNL     1      22.347  -0.902  53.895  1.00  0.00     0.236 A 
HETATM   11  N3  UNL     1      22.071  -0.069  52.895  1.00  0.00    -0.224 NA
HETATM   12  C8  UNL     1      22.968   0.713  52.310  1.00  0.00     0.140 A 
HETATM   13  C15 UNL     1      24.264   0.683  52.738  1.00  0.00     0.049 A 
HETATM   14  C16 UNL     1      25.411   1.385  52.283  1.00  0.00     0.188 C 
ENDROOT
BRANCH  12  15
HETATM   15  N4  UNL     1      22.650   1.597  51.244  1.00  0.00    -0.340 N 
HETATM   16  H11 UNL     1      23.175   2.148  50.518  1.00  0.00     0.167 HD
BRANCH  15  17
HETATM   17  C9  UNL     1      21.231   1.666  51.279  1.00  0.00     0.035 A 
HETATM   18  C10 UNL     1      20.853   2.901  51.811  1.00  0.00     0.032 A 
HETATM   19  C11 UNL     1      19.496   3.214  51.957  1.00  0.00     0.046 A 
HETATM   20  C12 UNL     1      18.512   2.333  51.585  1.00  0.00     0.138 A 
HETATM   21  F1  UNL     1      17.182   2.559  51.692  1.00  0.00    -0.204 F 
HETATM   22  C13 UNL     1      18.881   1.117  51.060  1.00  0.00     0.074 A 
HETATM   23 CL1  UNL     1      17.789  -0.141  50.531  1.00  0.00    -0.081 Cl
HETATM   24  C14 UNL     1      20.212   0.818  50.921  1.00  0.00     0.056 A 
ENDBRANCH  15  17
ENDBRANCH  12  15
BRANCH  14  25
HETATM   25  O4  UNL     1      26.129   0.371  51.593  1.00  0.00    -0.388 OA
HETATM   26  H16 UNL     1      26.651  -0.087  52.267  1.00  0.00     0.210 HD
ENDBRANCH  14  25
BRANCH   1  27
HETATM   27  O1  UNL     1      25.489   2.847  50.359  1.00  0.00    -0.386 OA
HETATM   28  C1  UNL     1      26.421   3.462  49.580  1.00  0.00     0.202 C 
ENDBRANCH   1  27
TORSDOF 4
ENDMDL
MODEL 7
REMARK VINA RESULT:      -7.6      4.018      6.152
REMARK  4 active torsions:
REMARK  status: ('A' for Active; 'I' for Inactive)
REMARK    1  A    between atoms: O1_2  and  C2_3 
REMARK    2  A    between atoms: C8_14  and  N4_15 
REMARK    3  A    between atoms: N4_15  and  C9_16 
REMARK    4  A    between atoms: C16_25  and  O4_26 
ROOT
HETATM    1  C2  UNL     1      26.066   0.876  54.099  1.00  0.00     0.178 C 
HETATM    2  C3  UNL     1      26.024  -0.412  55.084  1.00  0.00     0.205 C 
HETATM    3  O2  UNL     1      24.785  -0.749  55.284  1.00  0.00    -0.362 OA
HETATM    4  C4  UNL     1      23.888  -1.445  55.816  1.00  0.00     0.372 C 
HETATM    5  O3  UNL     1      22.503  -1.151  55.397  1.00  0.00    -0.231 OA
HETATM    6  N1  UNL     1      22.176  -1.284  54.066  1.00  0.00    -0.142 NA
HETATM    7  C5  UNL     1      22.436  -0.584  53.061  1.00  0.00     0.178 C 
HETATM    8  C6  UNL     1      22.926   0.450  52.151  1.00  0.00     0.090 A 
HETATM    9  N2  UNL     1      22.054   0.820  51.218  1.00  0.00    -0.240 NA
HETATM   10  C7  UNL     1      22.371   1.782  50.325  1.00  0.00     0.236 A 
HETATM   11  N3  UNL     1      23.572   2.349  50.403  1.00  0.00    -0.224 NA
HETATM   12  C8  UNL     1      24.489   2.030  51.308  1.00  0.00     0.140 A 
HETATM   13  C15 UNL     1      24.211   1.061  52.228  1.00  0.00     0.049 A 
HETATM   14  C16 UNL     1      25.002   0.517  53.273  1.00  0.00     0.188 C 
ENDROOT
BRANCH  12  15
HETATM   15  N4  UNL     1      25.765   2.651  51.373  1.00  0.00    -0.340 N 
HETATM   16  H11 UNL     1      26.719   2.411  51.744  1.00  0.00     0.167 HD
BRANCH  15  17
HETATM   17  C9  UNL     1      25.558   3.907  50.741  1.00  0.00     0.035 A 
HETATM   18  C10 UNL     1      26.410   4.002  49.638  1.00  0.00     0.032 A 
HETATM   19  C11 UNL     1      26.401   5.156  48.845  1.00  0.00     0.046 A 
HETATM   20  C12 UNL     1      25.568   6.210  49.121  1.00  0.00     0.138 A 
HETATM   21  F1  UNL     1      25.499   7.357  48.406  1.00  0.00    -0.204 F 
HETATM   22  C13 UNL     1      24.728   6.120  50.205  1.00  0.00     0.074 A 
HETATM   23 CL1  UNL     1      23.599   7.347  50.728  1.00  0.00    -0.081 Cl
HETATM   24  C14 UNL     1      24.743   4.986  50.977  1.00  0.00     0.056 A 
ENDBRANCH  15  17
ENDBRANCH  12  15
BRANCH  14  25
HETATM   25  O4  UNL     1      25.347  -0.761  52.755  1.00  0.00    -0.388 OA
HETATM   26  H16 UNL     1      24.702  -1.379  53.130  1.00  0.00     0.210 HD
ENDBRANCH  14  25
BRANCH   1  27
HETATM   27  O1  UNL     1      27.324   1.046  53.697  1.00  0.00    -0.386 OA
HETATM   28  C1  UNL     1      28.352   0.437  54.348  1.00  0.00     0.202 C 
ENDBRANCH   1  27
TORSDOF 4
ENDMDL
MODEL 8
REMARK VINA RESULT:      -7.6      4.575      7.371
REMARK  4 active torsions:
REMARK  status: ('A' for Active; 'I' for Inactive)
REMARK    1  A    between atoms: O1_2  and  C2_3 
REMARK    2  A    between atoms: C8_14  and  N4_15 
REMARK    3  A    between atoms: N4_15  and  C9_16 
REMARK    4  A    between atoms: C16_25  and  O4_26 
ROOT
HETATM    1  C2  UNL     1      22.754   2.573  51.776  1.00  0.00     0.178 C 
HETATM    2  C3  UNL     1      23.001   1.565  53.023  1.00  0.00     0.205 C 
HETATM    3  O2  UNL     1      24.101   0.904  52.818  1.00  0.00    -0.362 OA
HETATM    4  C4  UNL     1      24.958   0.038  53.117  1.00  0.00     0.372 C 
HETATM    5  O3  UNL     1      26.121  -0.064  52.215  1.00  0.00    -0.231 OA
HETATM    6  N1  UNL     1      26.923   1.043  52.048  1.00  0.00    -0.142 NA
HETATM    7  C5  UNL     1      26.759   2.114  51.420  1.00  0.00     0.178 C 
HETATM    8  C6  UNL     1      26.226   3.202  50.601  1.00  0.00     0.090 A 
HETATM    9  N2  UNL     1      27.116   3.770  49.794  1.00  0.00    -0.240 NA
HETATM   10  C7  UNL     1      26.751   4.773  48.967  1.00  0.00     0.236 A 
HETATM   11  N3  UNL     1      25.483   5.177  48.981  1.00  0.00    -0.224 NA
HETATM   12  C8  UNL     1      24.544   4.654  49.759  1.00  0.00     0.140 A 
HETATM   13  C15 UNL     1      24.870   3.639  50.611  1.00  0.00     0.049 A 
HETATM   14  C16 UNL     1      24.083   2.927  51.553  1.00  0.00     0.188 C 
ENDROOT
BRANCH  12  15
HETATM   15  N4  UNL     1      23.195   5.100  49.755  1.00  0.00    -0.340 N 
HETATM   16  H11 UNL     1      22.518   5.509  50.447  1.00  0.00     0.167 HD
BRANCH  15  17
HETATM   17  C9  UNL     1      22.776   4.883  48.415  1.00  0.00     0.035 A 
HETATM   18  C10 UNL     1      22.443   3.534  48.260  1.00  0.00     0.032 A 
HETATM   19  C11 UNL     1      22.001   3.061  47.018  1.00  0.00     0.046 A 
HETATM   20  C12 UNL     1      21.881   3.893  45.934  1.00  0.00     0.138 A 
HETATM   21  F1  UNL     1      21.462   3.515  44.704  1.00  0.00    -0.204 F 
HETATM   22  C13 UNL     1      22.207   5.220  46.083  1.00  0.00     0.074 A 
HETATM   23 CL1  UNL     1      22.128   6.438  44.833  1.00  0.00    -0.081 Cl
HETATM   24  C14 UNL     1      22.639   5.676  47.302  1.00  0.00     0.056 A 
ENDBRANCH  15  17
ENDBRANCH  12  15
BRANCH  14  25
HETATM   25  O4  UNL     1      24.541   3.456  52.790  1.00  0.00    -0.388 OA
HETATM   26  H16 UNL     1      24.580   2.704  53.399  1.00  0.00     0.210 HD
ENDBRANCH  14  25
BRANCH   1  27
HETATM   27  O1  UNL     1      21.783   3.419  52.118  1.00  0.00    -0.386 OA
HETATM   28  C1  UNL     1      20.540   3.308  51.575  1.00  0.00     0.202 C 
ENDBRANCH   1  27
TORSDOF 4
ENDMDL
MODEL 9
REMARK VINA RESULT:      -7.5      3.537      5.595
REMARK  4 active torsions:
REMARK  status: ('A' for Active; 'I' for Inactive)
REMARK    1  A    between atoms: O1_2  and  C2_3 
REMARK    2  A    between atoms: C8_14  and  N4_15 
REMARK    3  A    between atoms: N4_15  and  C9_16 
REMARK    4  A    between atoms: C16_25  and  O4_26 
ROOT
HETATM    1  C2  UNL     1      20.237   1.144  50.770  1.00  0.00     0.178 C 
HETATM    2  C3  UNL     1      18.930   0.773  51.656  1.00  0.00     0.205 C 
HETATM    3  O2  UNL     1      19.255  -0.136  52.525  1.00  0.00    -0.362 OA
HETATM    4  C4  UNL     1      18.996  -0.944  53.450  1.00  0.00     0.372 C 
HETATM    5  O3  UNL     1      20.142  -1.695  53.998  1.00  0.00    -0.231 OA
HETATM    6  N1  UNL     1      21.183  -0.988  54.558  1.00  0.00    -0.142 NA
HETATM    7  C5  UNL     1      22.104  -0.305  54.055  1.00  0.00     0.178 C 
HETATM    8  C6  UNL     1      23.005   0.390  53.137  1.00  0.00     0.090 A 
HETATM    9  N2  UNL     1      24.290   0.324  53.470  1.00  0.00    -0.240 NA
HETATM   10  C7  UNL     1      25.231   0.905  52.696  1.00  0.00     0.236 A 
HETATM   11  N3  UNL     1      24.841   1.543  51.595  1.00  0.00    -0.224 NA
HETATM   12  C8  UNL     1      23.579   1.647  51.203  1.00  0.00     0.140 A 
HETATM   13  C15 UNL     1      22.595   1.076  51.957  1.00  0.00     0.049 A 
HETATM   14  C16 UNL     1      21.186   1.055  51.786  1.00  0.00     0.188 C 
ENDROOT
BRANCH  12  15
HETATM   15  N4  UNL     1      23.186   2.332  50.022  1.00  0.00    -0.340 N 
HETATM   16  H11 UNL     1      22.481   2.200  49.254  1.00  0.00     0.167 HD
BRANCH  15  17
HETATM   17  C9  UNL     1      24.045   3.464  49.991  1.00  0.00     0.035 A 
HETATM   18  C10 UNL     1      23.462   4.492  50.737  1.00  0.00     0.032 A 
HETATM   19  C11 UNL     1      24.115   5.725  50.858  1.00  0.00     0.046 A 
HETATM   20  C12 UNL     1      25.328   5.957  50.260  1.00  0.00     0.138 A 
HETATM   21  F1  UNL     1      26.022   7.117  50.329  1.00  0.00    -0.204 F 
HETATM   22  C13 UNL     1      25.905   4.947  49.527  1.00  0.00     0.074 A 
HETATM   23 CL1  UNL     1      27.435   5.039  48.688  1.00  0.00    -0.081 Cl
HETATM   24  C14 UNL     1      25.259   3.743  49.413  1.00  0.00     0.056 A 
ENDBRANCH  15  17
ENDBRANCH  12  15
BRANCH  14  25
HETATM   25  O4  UNL     1      20.748   1.964  52.787  1.00  0.00    -0.388 OA
HETATM   26  H16 UNL     1      20.768   2.840  52.374  1.00  0.00     0.210 HD
ENDBRANCH  14  25
BRANCH   1  27
HETATM   27  O1  UNL     1      19.962   2.246  50.073  1.00  0.00    -0.386 OA
HETATM   28  C1  UNL     1      19.947   2.224  48.712  1.00  0.00     0.202 C 
ENDBRANCH   1  27
TORSDOF 4
ENDMDL
