MODEL 1
REMARK VINA RESULT:      -9.0      0.000      0.000
REMARK  1 active torsions:
REMARK  status: ('A' for Active; 'I' for Inactive)
REMARK    1  A    between atoms: C3_4  and  C4_5 
ROOT
HETATM    1  F1  UNL     1      24.607   0.407  52.111  1.00  0.00    -0.344 F 
HETATM    2  C1  UNL     1      24.459   1.613  51.744  1.00  0.00     0.080 A 
HETATM    3  C2  UNL     1      25.016   1.924  52.952  1.00  0.00     0.067 A 
HETATM    4  C3  UNL     1      25.232   0.607  53.581  1.00  0.00     0.244 A 
HETATM    5  N1  UNL     1      23.920   0.018  53.920  1.00  0.00    -0.314 N 
HETATM    6  C6  UNL     1      23.890  -0.980  54.912  1.00  0.00     0.206 C 
HETATM    7  N2  UNL     1      22.849  -1.655  55.352  1.00  0.00    -0.284 NA
HETATM    8  C7  UNL     1      21.537  -1.351  54.748  1.00  0.00     0.156 C 
HETATM    9  C8  UNL     1      21.890  -1.029  53.294  1.00  0.00     0.079 C 
HETATM   10  C9  UNL     1      22.574   0.283  53.365  1.00  0.00     0.014 C 
HETATM   11  C10 UNL     1      21.574   1.118  52.908  1.00  0.00     0.005 C 
HETATM   12  C11 UNL     1      20.236   1.214  52.362  1.00  0.00     0.070 C 
HETATM   13  C12 UNL     1      20.178   0.564  51.188  1.00  0.00    -0.005 C 
HETATM   14  P1  UNL     1      20.731   1.518  49.903  1.00  0.00    -0.055 P 
HETATM   15  C13 UNL     1      21.684   3.039  50.377  1.00  0.00     0.207 C 
HETATM   16  O1  UNL     1      22.777   3.210  49.488  1.00  0.00    -0.374 OA
HETATM   17  C14 UNL     1      23.452   4.342  49.838  1.00  0.00     0.180 C 
HETATM   18  C15 UNL     1      24.539   4.890  48.992  1.00  0.00     0.065 C 
HETATM   19  C16 UNL     1      25.012   5.990  50.002  1.00  0.00     0.178 C 
HETATM   20  O2  UNL     1      24.297   5.473  51.164  1.00  0.00    -0.353 OA
HETATM   21  C17 UNL     1      24.226   4.158  51.121  1.00  0.00     0.078 C 
HETATM   22  C18 UNL     1      24.291   2.926  51.329  1.00  0.00     0.073 C 
ENDROOT
BRANCH   4  23
HETATM   23  C4  UNL     1      26.193  -0.295  52.992  1.00  0.00     0.040 C 
HETATM   24  C5  UNL     1      27.362  -0.396  53.602  1.00  0.00     0.085 C 
HETATM   25 CL1  UNL     1      28.536  -0.019  54.847  1.00  0.00    -0.097 Cl
ENDBRANCH   4  23
TORSDOF 1
ENDMDL
MODEL 2
REMARK VINA RESULT:      -8.1      3.406      5.793
REMARK  1 active torsions:
REMARK  status: ('A' for Active; 'I' for Inactive)
REMARK    1  A    between atoms: C3_4  and  C4_5 
ROOT
HETATM    1  F1  UNL     1      22.680   1.198  51.267  1.00  0.00    -0.344 F 
HETATM    2  C1  UNL     1      23.743   1.178  51.960  1.00  0.00     0.080 A 
HETATM    3  C2  UNL     1      22.905   1.296  53.032  1.00  0.00     0.067 A 
HETATM    4  C3  UNL     1      21.567   1.382  52.415  1.00  0.00     0.244 A 
HETATM    5  N1  UNL     1      21.448   2.675  51.709  1.00  0.00    -0.314 N 
HETATM    6  C6  UNL     1      20.153   3.163  51.455  1.00  0.00     0.206 C 
HETATM    7  N2  UNL     1      19.812   4.268  50.826  1.00  0.00    -0.284 NA
HETATM    8  C7  UNL     1      20.900   5.121  50.310  1.00  0.00     0.156 C 
HETATM    9  C8  UNL     1      21.969   4.107  49.896  1.00  0.00     0.079 C 
HETATM   10  C9  UNL     1      22.492   3.580  51.179  1.00  0.00     0.014 C 
HETATM   11  C10 UNL     1      23.697   4.248  51.256  1.00  0.00     0.005 C 
HETATM   12  C11 UNL     1      24.626   5.147  50.601  1.00  0.00     0.070 C 
HETATM   13  C12 UNL     1      25.044   4.603  49.448  1.00  0.00    -0.005 C 
HETATM   14  P1  UNL     1      26.320   3.514  49.682  1.00  0.00    -0.055 P 
HETATM   15  C13 UNL     1      26.598   2.958  51.431  1.00  0.00     0.207 C 
HETATM   16  O1  UNL     1      26.912   1.574  51.444  1.00  0.00    -0.374 OA
HETATM   17  C14 UNL     1      27.133   1.189  52.733  1.00  0.00     0.180 C 
HETATM   18  C15 UNL     1      27.657  -0.159  53.061  1.00  0.00     0.065 C 
HETATM   19  C16 UNL     1      27.480  -0.045  54.613  1.00  0.00     0.178 C 
HETATM   20  O2  UNL     1      26.622   1.135  54.600  1.00  0.00    -0.353 OA
HETATM   21  C17 UNL     1      25.852   1.142  53.530  1.00  0.00     0.078 C 
HETATM   22  C18 UNL     1      24.914   1.154  52.705  1.00  0.00     0.073 C 
ENDROOT
BRANCH   4  23
HETATM   23  C4  UNL     1      21.051   0.232  51.711  1.00  0.00     0.040 C 
HETATM   24  C5  UNL     1      19.995  -0.361  52.240  1.00  0.00     0.085 C 
HETATM   25 CL1  UNL     1      18.731  -0.574  53.436  1.00  0.00    -0.097 Cl
ENDBRANCH   4  23
TORSDOF 1
ENDMDL
MODEL 3
REMARK VINA RESULT:      -8.0      2.663      5.378
REMARK  1 active torsions:
REMARK  status: ('A' for Active; 'I' for Inactive)
REMARK    1  A    between atoms: C3_4  and  C4_5 
ROOT
HETATM    1  F1  UNL     1      25.102   2.589  52.837  1.00  0.00    -0.344 F 
HETATM    2  C1  UNL     1      24.246   1.657  52.941  1.00  0.00     0.080 A 
HETATM    3  C2  UNL     1      25.197   0.879  52.345  1.00  0.00     0.067 A 
HETATM    4  C3  UNL     1      26.304   1.821  52.093  1.00  0.00     0.244 A 
HETATM    5  N1  UNL     1      25.892   2.771  51.038  1.00  0.00    -0.314 N 
HETATM    6  C6  UNL     1      26.907   3.437  50.327  1.00  0.00     0.206 C 
HETATM    7  N2  UNL     1      26.774   4.335  49.373  1.00  0.00    -0.284 NA
HETATM    8  C7  UNL     1      25.402   4.712  48.981  1.00  0.00     0.156 C 
HETATM    9  C8  UNL     1      24.630   4.634  50.300  1.00  0.00     0.079 C 
HETATM   10  C9  UNL     1      24.544   3.184  50.589  1.00  0.00     0.014 C 
HETATM   11  C10 UNL     1      23.231   2.932  50.246  1.00  0.00     0.005 C 
HETATM   12  C11 UNL     1      21.968   3.491  49.806  1.00  0.00     0.070 C 
HETATM   13  C12 UNL     1      21.522   4.371  50.716  1.00  0.00    -0.005 C 
HETATM   14  P1  UNL     1      20.701   3.612  51.989  1.00  0.00    -0.055 P 
HETATM   15  C13 UNL     1      20.941   1.777  52.124  1.00  0.00     0.207 C 
HETATM   16  O1  UNL     1      21.067   1.415  53.491  1.00  0.00    -0.374 OA
HETATM   17  C14 UNL     1      21.221   0.063  53.572  1.00  0.00     0.180 C 
HETATM   18  C15 UNL     1      21.199  -0.643  54.875  1.00  0.00     0.065 C 
HETATM   19  C16 UNL     1      21.625  -2.047  54.324  1.00  0.00     0.178 C 
HETATM   20  O2  UNL     1      22.069  -1.586  53.012  1.00  0.00    -0.353 OA
HETATM   21  C17 UNL     1      22.583  -0.375  53.092  1.00  0.00     0.078 C 
HETATM   22  C18 UNL     1      23.300   0.649  53.061  1.00  0.00     0.073 C 
ENDROOT
BRANCH   4  23
HETATM   23  C4  UNL     1      26.999   2.396  53.220  1.00  0.00     0.040 C 
HETATM   24  C5  UNL     1      28.128   1.810  53.581  1.00  0.00     0.085 C 
HETATM   25 CL1  UNL     1      29.396   0.605  53.463  1.00  0.00    -0.097 Cl
ENDBRANCH   4  23
TORSDOF 1
ENDMDL
MODEL 4
REMARK VINA RESULT:      -7.2      2.674      4.818
REMARK  1 active torsions:
REMARK  status: ('A' for Active; 'I' for Inactive)
REMARK    1  A    between atoms: C3_4  and  C4_5 
ROOT
HETATM    1  F1  UNL     1      22.477   2.304  52.190  1.00  0.00    -0.344 F 
HETATM    2  C1  UNL     1      21.906   2.534  51.079  1.00  0.00     0.080 A 
HETATM    3  C2  UNL     1      21.877   1.175  50.948  1.00  0.00     0.067 A 
HETATM    4  C3  UNL     1      22.560   0.697  52.166  1.00  0.00     0.244 A 
HETATM    5  N1  UNL     1      23.994   1.046  52.079  1.00  0.00    -0.314 N 
HETATM    6  C6  UNL     1      24.893   0.310  52.871  1.00  0.00     0.206 C 
HETATM    7  N2  UNL     1      26.197   0.461  52.972  1.00  0.00    -0.284 NA
HETATM    8  C7  UNL     1      26.821   1.530  52.167  1.00  0.00     0.156 C 
HETATM    9  C8  UNL     1      25.754   2.628  52.160  1.00  0.00     0.079 C 
HETATM   10  C9  UNL     1      24.682   2.091  51.289  1.00  0.00     0.014 C 
HETATM   11  C10 UNL     1      24.899   2.822  50.139  1.00  0.00     0.005 C 
HETATM   12  C11 UNL     1      25.660   3.878  49.503  1.00  0.00     0.070 C 
HETATM   13  C12 UNL     1      25.460   5.035  50.155  1.00  0.00    -0.005 C 
HETATM   14  P1  UNL     1      24.038   5.810  49.659  1.00  0.00    -0.055 P 
HETATM   15  C13 UNL     1      22.847   4.769  48.687  1.00  0.00     0.207 C 
HETATM   16  O1  UNL     1      21.520   5.061  49.096  1.00  0.00    -0.374 OA
HETATM   17  C14 UNL     1      20.659   4.304  48.358  1.00  0.00     0.180 C 
HETATM   18  C15 UNL     1      19.192   4.510  48.425  1.00  0.00     0.065 C 
HETATM   19  C16 UNL     1      18.798   3.258  47.569  1.00  0.00     0.178 C 
HETATM   20  O2  UNL     1      20.102   2.604  47.615  1.00  0.00    -0.353 OA
HETATM   21  C17 UNL     1      20.708   2.849  48.759  1.00  0.00     0.078 C 
HETATM   22  C18 UNL     1      21.283   2.801  49.868  1.00  0.00     0.073 C 
ENDROOT
BRANCH   4  23
HETATM   23  C4  UNL     1      21.935   0.923  53.447  1.00  0.00     0.040 C 
HETATM   24  C5  UNL     1      21.616  -0.152  54.148  1.00  0.00     0.085 C 
HETATM   25 CL1  UNL     1      21.503  -1.876  54.441  1.00  0.00    -0.097 Cl
ENDBRANCH   4  23
TORSDOF 1
ENDMDL
MODEL 5
REMARK VINA RESULT:      -7.1      2.202      2.678
REMARK  1 active torsions:
REMARK  status: ('A' for Active; 'I' for Inactive)
REMARK    1  A    between atoms: C3_4  and  C4_5 
ROOT
HETATM    1  F1  UNL     1      22.617   1.960  51.277  1.00  0.00    -0.344 F 
HETATM    2  C1  UNL     1      22.353   3.189  51.100  1.00  0.00     0.080 A 
HETATM    3  C2  UNL     1      22.831   3.351  52.369  1.00  0.00     0.067 A 
HETATM    4  C3  UNL     1      23.167   1.977  52.789  1.00  0.00     0.244 A 
HETATM    5  N1  UNL     1      21.915   1.211  52.962  1.00  0.00    -0.314 N 
HETATM    6  C6  UNL     1      21.959   0.066  53.779  1.00  0.00     0.206 C 
HETATM    7  N2  UNL     1      20.982  -0.774  54.052  1.00  0.00    -0.284 NA
HETATM    8  C7  UNL     1      19.666  -0.508  53.438  1.00  0.00     0.156 C 
HETATM    9  C8  UNL     1      20.032   0.082  52.074  1.00  0.00     0.079 C 
HETATM   10  C9  UNL     1      20.568   1.427  52.389  1.00  0.00     0.014 C 
HETATM   11  C10 UNL     1      19.500   2.220  52.021  1.00  0.00     0.005 C 
HETATM   12  C11 UNL     1      18.178   2.270  51.430  1.00  0.00     0.070 C 
HETATM   13  C12 UNL     1      18.231   1.820  50.166  1.00  0.00    -0.005 C 
HETATM   14  P1  UNL     1      18.722   3.023  49.080  1.00  0.00    -0.055 P 
HETATM   15  C13 UNL     1      19.488   4.533  49.839  1.00  0.00     0.207 C 
HETATM   16  O1  UNL     1      20.586   4.957  49.046  1.00  0.00    -0.374 OA
HETATM   17  C14 UNL     1      21.123   6.078  49.607  1.00  0.00     0.180 C 
HETATM   18  C15 UNL     1      22.172   6.865  48.916  1.00  0.00     0.065 C 
HETATM   19  C16 UNL     1      22.490   7.826  50.112  1.00  0.00     0.178 C 
HETATM   20  O2  UNL     1      21.795   7.055  51.138  1.00  0.00    -0.353 OA
HETATM   21  C17 UNL     1      21.868   5.764  50.882  1.00  0.00     0.078 C 
HETATM   22  C18 UNL     1      22.058   4.529  50.892  1.00  0.00     0.073 C 
ENDROOT
BRANCH   4  23
HETATM   23  C4  UNL     1      24.239   1.286  52.114  1.00  0.00     0.040 C 
HETATM   24  C5  UNL     1      25.327   1.042  52.824  1.00  0.00     0.085 C 
HETATM   25 CL1  UNL     1      26.317   1.084  54.269  1.00  0.00    -0.097 Cl
ENDBRANCH   4  23
TORSDOF 1
ENDMDL
MODEL 6
REMARK VINA RESULT:      -7.0      8.666     11.644
REMARK  1 active torsions:
REMARK  status: ('A' for Active; 'I' for Inactive)
REMARK    1  A    between atoms: C3_4  and  C4_5 
ROOT
HETATM    1  F1  UNL     1      28.871   7.426  47.185  1.00  0.00    -0.344 F 
HETATM    2  C1  UNL     1      29.886   6.669  47.279  1.00  0.00     0.080 A 
HETATM    3  C2  UNL     1      29.461   6.457  48.560  1.00  0.00     0.067 A 
HETATM    4  C3  UNL     1      28.267   7.316  48.673  1.00  0.00     0.244 A 
HETATM    5  N1  UNL     1      28.692   8.732  48.655  1.00  0.00    -0.314 N 
HETATM    6  C6  UNL     1      27.811   9.684  49.201  1.00  0.00     0.206 C 
HETATM    7  N2  UNL     1      27.969  10.989  49.268  1.00  0.00    -0.284 NA
HETATM    8  C7  UNL     1      29.213  11.553  48.708  1.00  0.00     0.156 C 
HETATM    9  C8  UNL     1      29.500  10.642  47.512  1.00  0.00     0.079 C 
HETATM   10  C9  UNL     1      29.921   9.359  48.123  1.00  0.00     0.014 C 
HETATM   11  C10 UNL     1      31.286   9.417  47.922  1.00  0.00     0.005 C 
HETATM   12  C11 UNL     1      32.391  10.147  47.336  1.00  0.00     0.070 C 
HETATM   13  C12 UNL     1      32.230  10.221  46.005  1.00  0.00    -0.005 C 
HETATM   14  P1  UNL     1      32.782   8.827  45.218  1.00  0.00    -0.055 P 
HETATM   15  C13 UNL     1      33.077   7.349  46.301  1.00  0.00     0.207 C 
HETATM   16  O1  UNL     1      32.630   6.177  45.637  1.00  0.00    -0.374 OA
HETATM   17  C14 UNL     1      32.874   5.102  46.438  1.00  0.00     0.180 C 
HETATM   18  C15 UNL     1      32.683   3.714  45.953  1.00  0.00     0.065 C 
HETATM   19  C16 UNL     1      32.904   3.011  47.335  1.00  0.00     0.178 C 
HETATM   20  O2  UNL     1      32.793   4.212  48.157  1.00  0.00    -0.353 OA
HETATM   21  C17 UNL     1      31.940   5.064  47.624  1.00  0.00     0.078 C 
HETATM   22  C18 UNL     1      30.999   5.845  47.366  1.00  0.00     0.073 C 
ENDROOT
BRANCH   4  23
HETATM   23  C4  UNL     1      27.104   6.998  47.878  1.00  0.00     0.040 C 
HETATM   24  C5  UNL     1      26.056   6.520  48.526  1.00  0.00     0.085 C 
HETATM   25 CL1  UNL     1      25.179   5.994  49.949  1.00  0.00    -0.097 Cl
ENDBRANCH   4  23
TORSDOF 1
ENDMDL
MODEL 7
REMARK VINA RESULT:      -6.6     11.036     13.112
REMARK  1 active torsions:
REMARK  status: ('A' for Active; 'I' for Inactive)
REMARK    1  A    between atoms: C3_4  and  C4_5 
ROOT
HETATM    1  F1  UNL     1      32.382   4.956  45.480  1.00  0.00    -0.344 F 
HETATM    2  C1  UNL     1      33.209   5.401  44.626  1.00  0.00     0.080 A 
HETATM    3  C2  UNL     1      34.161   4.861  45.443  1.00  0.00     0.067 A 
HETATM    4  C3  UNL     1      33.378   4.308  46.565  1.00  0.00     0.244 A 
HETATM    5  N1  UNL     1      32.810   5.426  47.348  1.00  0.00    -0.314 N 
HETATM    6  C6  UNL     1      32.434   5.165  48.679  1.00  0.00     0.206 C 
HETATM    7  N2  UNL     1      31.890   5.994  49.545  1.00  0.00    -0.284 NA
HETATM    8  C7  UNL     1      31.627   7.374  49.092  1.00  0.00     0.156 C 
HETATM    9  C8  UNL     1      31.256   7.192  47.619  1.00  0.00     0.079 C 
HETATM   10  C9  UNL     1      32.532   6.827  46.962  1.00  0.00     0.014 C 
HETATM   11  C10 UNL     1      32.849   8.018  46.341  1.00  0.00     0.005 C 
HETATM   12  C11 UNL     1      32.433   9.373  46.040  1.00  0.00     0.070 C 
HETATM   13  C12 UNL     1      31.295   9.348  45.327  1.00  0.00    -0.005 C 
HETATM   14  P1  UNL     1      31.582   9.108  43.675  1.00  0.00    -0.055 P 
HETATM   15  C13 UNL     1      33.281   8.507  43.229  1.00  0.00     0.207 C 
HETATM   16  O1  UNL     1      33.184   7.537  42.197  1.00  0.00    -0.374 OA
HETATM   17  C14 UNL     1      34.441   7.124  41.868  1.00  0.00     0.180 C 
HETATM   18  C15 UNL     1      34.687   6.245  40.699  1.00  0.00     0.065 C 
HETATM   19  C16 UNL     1      36.203   5.981  40.993  1.00  0.00     0.178 C 
HETATM   20  O2  UNL     1      36.202   6.486  42.362  1.00  0.00    -0.353 OA
HETATM   21  C17 UNL     1      35.043   6.253  42.944  1.00  0.00     0.078 C 
HETATM   22  C18 UNL     1      34.102   5.893  43.684  1.00  0.00     0.073 C 
ENDROOT
BRANCH   4  23
HETATM   23  C4  UNL     1      32.487   3.201  46.312  1.00  0.00     0.040 C 
HETATM   24  C5  UNL     1      32.577   2.168  47.133  1.00  0.00     0.085 C 
HETATM   25 CL1  UNL     1      33.232   1.280  48.494  1.00  0.00    -0.097 Cl
ENDBRANCH   4  23
TORSDOF 1
ENDMDL
MODEL 8
REMARK VINA RESULT:      -6.6      3.348      6.050
REMARK  1 active torsions:
REMARK  status: ('A' for Active; 'I' for Inactive)
REMARK    1  A    between atoms: C3_4  and  C4_5 
ROOT
HETATM    1  F1  UNL     1      20.216   1.420  52.665  1.00  0.00    -0.344 F 
HETATM    2  C1  UNL     1      19.291   1.073  51.868  1.00  0.00     0.080 A 
HETATM    3  C2  UNL     1      19.916  -0.142  51.861  1.00  0.00     0.067 A 
HETATM    4  C3  UNL     1      21.090   0.070  52.729  1.00  0.00     0.244 A 
HETATM    5  N1  UNL     1      22.035   0.975  52.042  1.00  0.00    -0.314 N 
HETATM    6  C6  UNL     1      23.380   0.948  52.454  1.00  0.00     0.206 C 
HETATM    7  N2  UNL     1      24.381   1.677  52.005  1.00  0.00    -0.284 NA
HETATM    8  C7  UNL     1      24.085   2.655  50.940  1.00  0.00     0.156 C 
HETATM    9  C8  UNL     1      22.671   3.127  51.285  1.00  0.00     0.079 C 
HETATM   10  C9  UNL     1      21.809   1.965  50.966  1.00  0.00     0.014 C 
HETATM   11  C10 UNL     1      21.248   2.383  49.776  1.00  0.00     0.005 C 
HETATM   12  C11 UNL     1      21.122   3.455  48.809  1.00  0.00     0.070 C 
HETATM   13  C12 UNL     1      20.581   4.533  49.399  1.00  0.00    -0.005 C 
HETATM   14  P1  UNL     1      18.891   4.444  49.466  1.00  0.00    -0.055 P 
HETATM   15  C13 UNL     1      18.157   2.770  49.141  1.00  0.00     0.207 C 
HETATM   16  O1  UNL     1      17.074   2.547  50.030  1.00  0.00    -0.374 OA
HETATM   17  C14 UNL     1      16.534   1.324  49.763  1.00  0.00     0.180 C 
HETATM   18  C15 UNL     1      15.274   0.876  50.403  1.00  0.00     0.065 C 
HETATM   19  C16 UNL     1      15.323  -0.600  49.877  1.00  0.00     0.178 C 
HETATM   20  O2  UNL     1      16.715  -0.577  49.438  1.00  0.00    -0.353 OA
HETATM   21  C17 UNL     1      17.438   0.203  50.217  1.00  0.00     0.078 C 
HETATM   22  C18 UNL     1      18.274   0.708  50.997  1.00  0.00     0.073 C 
ENDROOT
BRANCH   4  23
HETATM   23  C4  UNL     1      20.879   0.330  54.133  1.00  0.00     0.040 C 
HETATM   24  C5  UNL     1      21.628  -0.354  54.981  1.00  0.00     0.085 C 
HETATM   25 CL1  UNL     1      22.860  -1.520  55.421  1.00  0.00    -0.097 Cl
ENDBRANCH   4  23
TORSDOF 1
ENDMDL
MODEL 9
REMARK VINA RESULT:      -6.5      4.681      7.343
REMARK  1 active torsions:
REMARK  status: ('A' for Active; 'I' for Inactive)
REMARK    1  A    between atoms: C3_4  and  C4_5 
ROOT
HETATM    1  F1  UNL     1      19.258   0.958  50.326  1.00  0.00    -0.344 F 
HETATM    2  C1  UNL     1      19.940   0.731  51.372  1.00  0.00     0.080 A 
HETATM    3  C2  UNL     1      18.739   0.769  52.020  1.00  0.00     0.067 A 
HETATM    4  C3  UNL     1      17.777   1.076  50.945  1.00  0.00     0.244 A 
HETATM    5  N1  UNL     1      17.995   2.466  50.490  1.00  0.00    -0.314 N 
HETATM    6  C6  UNL     1      16.933   3.110  49.829  1.00  0.00     0.206 C 
HETATM    7  N2  UNL     1      16.912   4.325  49.321  1.00  0.00    -0.284 NA
HETATM    8  C7  UNL     1      18.140   5.134  49.443  1.00  0.00     0.156 C 
HETATM    9  C8  UNL     1      19.256   4.094  49.321  1.00  0.00     0.079 C 
HETATM   10  C9  UNL     1      19.189   3.334  50.591  1.00  0.00     0.014 C 
HETATM   11  C10 UNL     1      20.274   3.861  51.261  1.00  0.00     0.005 C 
HETATM   12  C11 UNL     1      21.415   4.753  51.202  1.00  0.00     0.070 C 
HETATM   13  C12 UNL     1      22.255   4.349  50.236  1.00  0.00    -0.005 C 
HETATM   14  P1  UNL     1      23.291   3.118  50.766  1.00  0.00    -0.055 P 
HETATM   15  C13 UNL     1      22.809   2.283  52.353  1.00  0.00     0.207 C 
HETATM   16  O1  UNL     1      23.051   0.889  52.247  1.00  0.00    -0.374 OA
HETATM   17  C14 UNL     1      22.712   0.296  53.426  1.00  0.00     0.180 C 
HETATM   18  C15 UNL     1      23.016  -1.130  53.694  1.00  0.00     0.065 C 
HETATM   19  C16 UNL     1      22.220  -1.232  55.039  1.00  0.00     0.178 C 
HETATM   20  O2  UNL     1      21.476   0.015  54.892  1.00  0.00    -0.353 OA
HETATM   21  C17 UNL     1      21.215   0.256  53.622  1.00  0.00     0.078 C 
HETATM   22  C18 UNL     1      20.700   0.483  52.506  1.00  0.00     0.073 C 
ENDROOT
BRANCH   4  23
HETATM   23  C4  UNL     1      17.564   0.101  49.903  1.00  0.00     0.040 C 
HETATM   24  C5  UNL     1      16.401  -0.528  49.909  1.00  0.00     0.085 C 
HETATM   25 CL1  UNL     1      14.802  -0.895  50.525  1.00  0.00    -0.097 Cl
ENDBRANCH   4  23
TORSDOF 1
ENDMDL
