MODEL 1
REMARK VINA RESULT:      -7.6      0.000      0.000
REMARK  4 active torsions:
REMARK  status: ('A' for Active; 'I' for Inactive)
REMARK    1  A    between atoms: O1_2  and  C2_3 
REMARK    2  A    between atoms: C8_9  and  O2_10 
REMARK    3  A    between atoms: C10_12  and  O3_13 
REMARK    4  A    between atoms: C17_23  and  O5_24 
ROOT
HETATM    1  C2  UNL     1      27.024   0.089  53.641  1.00  0.00     0.100 C 
HETATM    2  C3  UNL     1      25.768  -0.408  53.602  1.00  0.00     0.019 C 
HETATM    3  C4  UNL     1      24.575   0.149  52.865  1.00  0.00    -0.016 C 
HETATM    4  C5  UNL     1      23.416  -0.032  53.660  1.00  0.00     0.076 C 
HETATM    5  C6  UNL     1      22.198   0.511  52.977  1.00  0.00    -0.047 A 
HETATM    6  C7  UNL     1      21.097  -0.049  52.306  1.00  0.00     0.047 A 
HETATM    7  C8  UNL     1      20.077   0.689  51.715  1.00  0.00     0.104 A 
HETATM    8  C10 UNL     1      20.132   2.055  51.777  1.00  0.00     0.135 A 
HETATM    9  C12 UNL     1      21.144   2.744  52.395  1.00  0.00     0.107 A 
HETATM   10  C13 UNL     1      22.102   1.949  52.953  1.00  0.00     0.047 A 
HETATM   11  O4  UNL     1      21.346   4.087  52.535  1.00  0.00    -0.327 OA
HETATM   12  C14 UNL     1      22.488   4.714  51.943  1.00  0.00     0.325 C 
HETATM   13  N1  UNL     1      23.745   4.235  52.389  1.00  0.00    -0.259 NA
HETATM   14  C15 UNL     1      24.621   3.667  51.609  1.00  0.00     0.203 C 
HETATM   15  N2  UNL     1      25.937   3.082  51.691  1.00  0.00    -0.352 N 
HETATM   16  C16 UNL     1      26.137   1.712  52.025  1.00  0.00     0.047 C 
HETATM   17  C17 UNL     1      27.147   1.258  52.748  1.00  0.00     0.123 C 
HETATM   18  C19 UNL     1      25.152   0.724  51.543  1.00  0.00     0.070 C 
HETATM   19  H17 UNL     1      26.843   3.535  51.534  1.00  0.00     0.166 HD
ENDROOT
BRANCH   1  20
HETATM   20  O1  UNL     1      28.008  -0.455  54.422  1.00  0.00    -0.353 OA
HETATM   21  C1  UNL     1      29.079  -1.118  53.775  1.00  0.00     0.210 C 
ENDBRANCH   1  20
BRANCH  17  22
HETATM   22  O5  UNL     1      28.352   1.919  52.650  1.00  0.00    -0.351 OA
HETATM   23  C18 UNL     1      28.914   2.575  53.753  1.00  0.00     0.210 C 
ENDBRANCH  17  22
BRANCH   7  24
HETATM   24  O2  UNL     1      19.112  -0.074  51.125  1.00  0.00    -0.353 OA
HETATM   25  C9  UNL     1      17.933  -0.438  51.806  1.00  0.00     0.210 C 
ENDBRANCH   7  24
BRANCH   8  26
HETATM   26  O3  UNL     1      19.119   2.790  51.190  1.00  0.00    -0.351 OA
HETATM   27  C11 UNL     1      19.168   3.246  49.855  1.00  0.00     0.210 C 
ENDBRANCH   8  26
TORSDOF 4
ENDMDL
MODEL 2
REMARK VINA RESULT:      -7.5      2.963      5.019
REMARK  4 active torsions:
REMARK  status: ('A' for Active; 'I' for Inactive)
REMARK    1  A    between atoms: O1_2  and  C2_3 
REMARK    2  A    between atoms: C8_9  and  O2_10 
REMARK    3  A    between atoms: C10_12  and  O3_13 
REMARK    4  A    between atoms: C17_23  and  O5_24 
ROOT
HETATM    1  C2  UNL     1      26.885   0.389  52.792  1.00  0.00     0.100 C 
HETATM    2  C3  UNL     1      27.104   1.539  52.118  1.00  0.00     0.019 C 
HETATM    3  C4  UNL     1      26.079   2.512  51.589  1.00  0.00    -0.016 C 
HETATM    4  C5  UNL     1      26.518   3.011  50.338  1.00  0.00     0.076 C 
HETATM    5  C6  UNL     1      25.531   3.980  49.763  1.00  0.00    -0.047 A 
HETATM    6  C7  UNL     1      25.471   5.378  49.623  1.00  0.00     0.047 A 
HETATM    7  C8  UNL     1      24.401   6.067  49.060  1.00  0.00     0.104 A 
HETATM    8  C10 UNL     1      23.324   5.353  48.608  1.00  0.00     0.135 A 
HETATM    9  C12 UNL     1      23.238   3.986  48.677  1.00  0.00     0.107 A 
HETATM   10  C13 UNL     1      24.327   3.386  49.238  1.00  0.00     0.047 A 
HETATM   11  O4  UNL     1      22.243   3.139  48.284  1.00  0.00    -0.327 OA
HETATM   12  C14 UNL     1      21.549   2.338  49.246  1.00  0.00     0.325 C 
HETATM   13  N1  UNL     1      22.357   1.434  49.980  1.00  0.00    -0.259 NA
HETATM   14  C15 UNL     1      22.503   1.481  51.274  1.00  0.00     0.203 C 
HETATM   15  N2  UNL     1      23.201   0.774  52.320  1.00  0.00    -0.352 N 
HETATM   16  C16 UNL     1      24.536   1.101  52.693  1.00  0.00     0.047 C 
HETATM   17  C17 UNL     1      25.446   0.217  53.070  1.00  0.00     0.123 C 
HETATM   18  C19 UNL     1      24.947   2.518  52.652  1.00  0.00     0.070 C 
HETATM   19  H17 UNL     1      22.862  -0.003  52.895  1.00  0.00     0.166 HD
ENDROOT
BRANCH   1  20
HETATM   20  O1  UNL     1      27.897  -0.464  53.144  1.00  0.00    -0.353 OA
HETATM   21  C1  UNL     1      28.666  -0.145  54.289  1.00  0.00     0.210 C 
ENDBRANCH   1  20
BRANCH  17  22
HETATM   22  O5  UNL     1      25.008  -0.902  53.745  1.00  0.00    -0.351 OA
HETATM   23  C18 UNL     1      24.931  -0.923  55.143  1.00  0.00     0.210 C 
ENDBRANCH  17  22
BRANCH   7  24
HETATM   24  O2  UNL     1      24.569   7.420  49.029  1.00  0.00    -0.353 OA
HETATM   25  C9  UNL     1      24.284   8.230  50.147  1.00  0.00     0.210 C 
ENDBRANCH   7  24
BRANCH   8  26
HETATM   26  O3  UNL     1      22.260   6.036  48.048  1.00  0.00    -0.351 OA
HETATM   27  C11 UNL     1      21.139   6.465  48.791  1.00  0.00     0.210 C 
ENDBRANCH   8  26
TORSDOF 4
ENDMDL
MODEL 3
REMARK VINA RESULT:      -7.4      3.205      5.646
REMARK  4 active torsions:
REMARK  status: ('A' for Active; 'I' for Inactive)
REMARK    1  A    between atoms: O1_2  and  C2_3 
REMARK    2  A    between atoms: C8_9  and  O2_10 
REMARK    3  A    between atoms: C10_12  and  O3_13 
REMARK    4  A    between atoms: C17_23  and  O5_24 
ROOT
HETATM    1  C2  UNL     1      25.657  -0.258  53.002  1.00  0.00     0.100 C 
HETATM    2  C3  UNL     1      26.362   0.598  52.231  1.00  0.00     0.019 C 
HETATM    3  C4  UNL     1      25.925   1.939  51.699  1.00  0.00    -0.016 C 
HETATM    4  C5  UNL     1      26.438   2.106  50.388  1.00  0.00     0.076 C 
HETATM    5  C6  UNL     1      26.026   3.423  49.807  1.00  0.00    -0.047 A 
HETATM    6  C7  UNL     1      26.667   4.652  49.568  1.00  0.00     0.047 A 
HETATM    7  C8  UNL     1      26.045   5.772  49.024  1.00  0.00     0.104 A 
HETATM    8  C10 UNL     1      24.719   5.692  48.696  1.00  0.00     0.135 A 
HETATM    9  C12 UNL     1      23.961   4.562  48.872  1.00  0.00     0.107 A 
HETATM   10  C13 UNL     1      24.645   3.509  49.405  1.00  0.00     0.047 A 
HETATM   11  O4  UNL     1      22.643   4.328  48.606  1.00  0.00    -0.327 OA
HETATM   12  C14 UNL     1      21.733   4.023  49.667  1.00  0.00     0.325 C 
HETATM   13  N1  UNL     1      22.038   2.857  50.413  1.00  0.00    -0.259 NA
HETATM   14  C15 UNL     1      22.306   2.864  51.688  1.00  0.00     0.203 C 
HETATM   15  N2  UNL     1      22.645   1.933  52.737  1.00  0.00    -0.352 N 
HETATM   16  C16 UNL     1      23.990   1.547  52.999  1.00  0.00     0.047 C 
HETATM   17  C17 UNL     1      24.359   0.335  53.382  1.00  0.00     0.123 C 
HETATM   18  C19 UNL     1      25.055   2.555  52.827  1.00  0.00     0.070 C 
HETATM   19  H17 UNL     1      22.015   1.455  53.389  1.00  0.00     0.166 HD
ENDROOT
BRANCH   1  20
HETATM   20  O1  UNL     1      26.127  -1.496  53.351  1.00  0.00    -0.353 OA
HETATM   21  C1  UNL     1      27.051  -2.124  52.482  1.00  0.00     0.210 C 
ENDBRANCH   1  20
BRANCH  17  22
HETATM   22  O5  UNL     1      23.481  -0.383  54.165  1.00  0.00    -0.351 OA
HETATM   23  C18 UNL     1      22.533  -1.241  53.593  1.00  0.00     0.210 C 
ENDBRANCH  17  22
BRANCH   7  24
HETATM   24  O2  UNL     1      26.870   6.849  48.883  1.00  0.00    -0.353 OA
HETATM   25  C9  UNL     1      28.009   6.809  48.052  1.00  0.00     0.210 C 
ENDBRANCH   7  24
BRANCH   8  26
HETATM   26  O3  UNL     1      24.099   6.804  48.156  1.00  0.00    -0.351 OA
HETATM   27  C11 UNL     1      23.421   7.767  48.934  1.00  0.00     0.210 C 
ENDBRANCH   8  26
TORSDOF 4
ENDMDL
MODEL 4
REMARK VINA RESULT:      -7.2      2.059      7.500
REMARK  4 active torsions:
REMARK  status: ('A' for Active; 'I' for Inactive)
REMARK    1  A    between atoms: O1_2  and  C2_3 
REMARK    2  A    between atoms: C8_9  and  O2_10 
REMARK    3  A    between atoms: C10_12  and  O3_13 
REMARK    4  A    between atoms: C17_23  and  O5_24 
ROOT
HETATM    1  C2  UNL     1      19.121   2.416  51.817  1.00  0.00     0.100 C 
HETATM    2  C3  UNL     1      20.221   3.127  51.487  1.00  0.00     0.019 C 
HETATM    3  C4  UNL     1      21.647   2.642  51.405  1.00  0.00    -0.016 C 
HETATM    4  C5  UNL     1      22.509   3.659  51.884  1.00  0.00     0.076 C 
HETATM    5  C6  UNL     1      23.942   3.226  51.830  1.00  0.00    -0.047 A 
HETATM    6  C7  UNL     1      25.042   3.516  51.002  1.00  0.00     0.047 A 
HETATM    7  C8  UNL     1      26.304   2.948  51.143  1.00  0.00     0.104 A 
HETATM    8  C10 UNL     1      26.509   2.042  52.148  1.00  0.00     0.135 A 
HETATM    9  C12 UNL     1      25.533   1.658  53.033  1.00  0.00     0.107 A 
HETATM   10  C13 UNL     1      24.328   2.263  52.830  1.00  0.00     0.047 A 
HETATM   11  O4  UNL     1      25.576   0.773  54.070  1.00  0.00    -0.327 OA
HETATM   12  C14 UNL     1      24.768  -0.409  54.049  1.00  0.00     0.325 C 
HETATM   13  N1  UNL     1      23.370  -0.188  53.979  1.00  0.00    -0.259 NA
HETATM   14  C15 UNL     1      22.622  -0.595  52.993  1.00  0.00     0.203 C 
HETATM   15  N2  UNL     1      21.237  -0.563  52.587  1.00  0.00    -0.352 N 
HETATM   16  C16 UNL     1      20.690   0.526  51.851  1.00  0.00     0.047 C 
HETATM   17  C17 UNL     1      19.461   0.991  52.004  1.00  0.00     0.123 C 
HETATM   18  C19 UNL     1      21.546   1.195  50.851  1.00  0.00     0.070 C 
HETATM   19  H17 UNL     1      20.510  -1.263  52.761  1.00  0.00     0.166 HD
ENDROOT
BRANCH   1  20
HETATM   20  O1  UNL     1      17.884   2.988  51.949  1.00  0.00    -0.353 OA
HETATM   21  C1  UNL     1      17.321   3.621  50.815  1.00  0.00     0.210 C 
ENDBRANCH   1  20
BRANCH  17  22
HETATM   22  O5  UNL     1      18.477   0.093  52.354  1.00  0.00    -0.351 OA
HETATM   23  C18 UNL     1      17.607  -0.442  51.396  1.00  0.00     0.210 C 
ENDBRANCH  17  22
BRANCH   7  24
HETATM   24  O2  UNL     1      27.213   3.385  50.224  1.00  0.00    -0.353 OA
HETATM   25  C9  UNL     1      26.862   4.297  49.208  1.00  0.00     0.210 C 
ENDBRANCH   7  24
BRANCH   8  26
HETATM   26  O3  UNL     1      27.763   1.476  52.289  1.00  0.00    -0.351 OA
HETATM   27  C11 UNL     1      28.667   1.842  53.309  1.00  0.00     0.210 C 
ENDBRANCH   8  26
TORSDOF 4
ENDMDL
MODEL 5
REMARK VINA RESULT:      -7.1      1.345      1.650
REMARK  4 active torsions:
REMARK  status: ('A' for Active; 'I' for Inactive)
REMARK    1  A    between atoms: O1_2  and  C2_3 
REMARK    2  A    between atoms: C8_9  and  O2_10 
REMARK    3  A    between atoms: C10_12  and  O3_13 
REMARK    4  A    between atoms: C17_23  and  O5_24 
ROOT
HETATM    1  C2  UNL     1      25.435   0.141  54.425  1.00  0.00     0.100 C 
HETATM    2  C3  UNL     1      24.219  -0.260  53.994  1.00  0.00     0.019 C 
HETATM    3  C4  UNL     1      23.333   0.408  52.972  1.00  0.00    -0.016 C 
HETATM    4  C5  UNL     1      21.982   0.286  53.382  1.00  0.00     0.076 C 
HETATM    5  C6  UNL     1      21.055   0.940  52.404  1.00  0.00    -0.047 A 
HETATM    6  C7  UNL     1      20.169   0.484  51.411  1.00  0.00     0.047 A 
HETATM    7  C8  UNL     1      19.415   1.315  50.588  1.00  0.00     0.104 A 
HETATM    8  C10 UNL     1      19.533   2.670  50.738  1.00  0.00     0.135 A 
HETATM    9  C12 UNL     1      20.357   3.262  51.660  1.00  0.00     0.107 A 
HETATM   10  C13 UNL     1      21.057   2.380  52.430  1.00  0.00     0.047 A 
HETATM   11  O4  UNL     1      20.590   4.581  51.925  1.00  0.00    -0.327 OA
HETATM   12  C14 UNL     1      21.891   5.142  51.726  1.00  0.00     0.325 C 
HETATM   13  N1  UNL     1      22.929   4.557  52.493  1.00  0.00    -0.259 NA
HETATM   14  C15 UNL     1      23.960   3.952  51.975  1.00  0.00     0.203 C 
HETATM   15  N2  UNL     1      25.156   3.270  52.406  1.00  0.00    -0.352 N 
HETATM   16  C16 UNL     1      25.165   1.878  52.709  1.00  0.00     0.047 C 
HETATM   17  C17 UNL     1      25.887   1.327  53.671  1.00  0.00     0.123 C 
HETATM   18  C19 UNL     1      24.308   0.982  51.909  1.00  0.00     0.070 C 
HETATM   19  H17 UNL     1      26.093   3.660  52.545  1.00  0.00     0.166 HD
ENDROOT
BRANCH   1  20
HETATM   20  O1  UNL     1      26.110  -0.500  55.429  1.00  0.00    -0.353 OA
HETATM   21  C1  UNL     1      25.354  -1.045  56.495  1.00  0.00     0.210 C 
ENDBRANCH   1  20
BRANCH  17  22
HETATM   22  O5  UNL     1      27.105   1.901  53.965  1.00  0.00    -0.351 OA
HETATM   23  C18 UNL     1      28.294   1.403  53.417  1.00  0.00     0.210 C 
ENDBRANCH  17  22
BRANCH   7  24
HETATM   24  O2  UNL     1      18.623   0.645  49.702  1.00  0.00    -0.353 OA
HETATM   25  C9  UNL     1      17.409   0.046  50.096  1.00  0.00     0.210 C 
ENDBRANCH   7  24
BRANCH   8  26
HETATM   26  O3  UNL     1      18.784   3.498  49.920  1.00  0.00    -0.351 OA
HETATM   27  C11 UNL     1      19.213   3.917  48.642  1.00  0.00     0.210 C 
ENDBRANCH   8  26
TORSDOF 4
ENDMDL
MODEL 6
REMARK VINA RESULT:      -7.0      2.327      7.190
REMARK  4 active torsions:
REMARK  status: ('A' for Active; 'I' for Inactive)
REMARK    1  A    between atoms: O1_2  and  C2_3 
REMARK    2  A    between atoms: C8_9  and  O2_10 
REMARK    3  A    between atoms: C10_12  and  O3_13 
REMARK    4  A    between atoms: C17_23  and  O5_24 
ROOT
HETATM    1  C2  UNL     1      20.174   4.744  50.767  1.00  0.00     0.100 C 
HETATM    2  C3  UNL     1      20.743   3.797  51.544  1.00  0.00     0.019 C 
HETATM    3  C4  UNL     1      22.197   3.661  51.922  1.00  0.00    -0.016 C 
HETATM    4  C5  UNL     1      22.542   2.286  51.944  1.00  0.00     0.076 C 
HETATM    5  C6  UNL     1      23.981   2.093  52.308  1.00  0.00    -0.047 A 
HETATM    6  C7  UNL     1      24.671   1.668  53.458  1.00  0.00     0.047 A 
HETATM    7  C8  UNL     1      26.057   1.596  53.562  1.00  0.00     0.104 A 
HETATM    8  C10 UNL     1      26.817   1.961  52.484  1.00  0.00     0.135 A 
HETATM    9  C12 UNL     1      26.288   2.397  51.296  1.00  0.00     0.107 A 
HETATM   10  C13 UNL     1      24.925   2.435  51.274  1.00  0.00     0.047 A 
HETATM   11  O4  UNL     1      26.902   2.800  50.147  1.00  0.00    -0.327 OA
HETATM   12  C14 UNL     1      26.754   4.144  49.678  1.00  0.00     0.325 C 
HETATM   13  N1  UNL     1      25.425   4.546  49.392  1.00  0.00    -0.259 NA
HETATM   14  C15 UNL     1      24.814   5.517  50.010  1.00  0.00     0.203 C 
HETATM   15  N2  UNL     1      23.534   6.181  50.000  1.00  0.00    -0.352 N 
HETATM   16  C16 UNL     1      22.432   5.712  50.770  1.00  0.00     0.047 C 
HETATM   17  C17 UNL     1      21.169   5.763  50.378  1.00  0.00     0.123 C 
HETATM   18  C19 UNL     1      22.705   5.118  52.093  1.00  0.00     0.070 C 
HETATM   19  H17 UNL     1      23.258   7.018  49.477  1.00  0.00     0.166 HD
ENDROOT
BRANCH   1  20
HETATM   20  O1  UNL     1      18.851   4.714  50.416  1.00  0.00    -0.353 OA
HETATM   21  C1  UNL     1      18.359   3.549  49.780  1.00  0.00     0.210 C 
ENDBRANCH   1  20
BRANCH  17  22
HETATM   22  O5  UNL     1      20.792   6.816  49.574  1.00  0.00    -0.351 OA
HETATM   23  C18 UNL     1      20.553   8.089  50.107  1.00  0.00     0.210 C 
ENDBRANCH  17  22
BRANCH   7  24
HETATM   24  O2  UNL     1      26.498   1.152  54.774  1.00  0.00    -0.353 OA
HETATM   25  C9  UNL     1      26.201  -0.143  55.244  1.00  0.00     0.210 C 
ENDBRANCH   7  24
BRANCH   8  26
HETATM   26  O3  UNL     1      28.195   1.890  52.586  1.00  0.00    -0.351 OA
HETATM   27  C11 UNL     1      28.924   2.482  53.640  1.00  0.00     0.210 C 
ENDBRANCH   8  26
TORSDOF 4
ENDMDL
MODEL 7
REMARK VINA RESULT:      -6.9      2.039      3.918
REMARK  4 active torsions:
REMARK  status: ('A' for Active; 'I' for Inactive)
REMARK    1  A    between atoms: O1_2  and  C2_3 
REMARK    2  A    between atoms: C8_9  and  O2_10 
REMARK    3  A    between atoms: C10_12  and  O3_13 
REMARK    4  A    between atoms: C17_23  and  O5_24 
ROOT
HETATM    1  C2  UNL     1      26.414   3.091  50.366  1.00  0.00     0.100 C 
HETATM    2  C3  UNL     1      25.099   3.268  50.114  1.00  0.00     0.019 C 
HETATM    3  C4  UNL     1      23.927   2.839  50.962  1.00  0.00    -0.016 C 
HETATM    4  C5  UNL     1      22.880   2.400  50.116  1.00  0.00     0.076 C 
HETATM    5  C6  UNL     1      21.690   1.955  50.910  1.00  0.00    -0.047 A 
HETATM    6  C7  UNL     1      20.423   2.495  51.197  1.00  0.00     0.047 A 
HETATM    7  C8  UNL     1      19.473   1.883  52.007  1.00  0.00     0.104 A 
HETATM    8  C10 UNL     1      19.772   0.674  52.575  1.00  0.00     0.135 A 
HETATM    9  C12 UNL     1      20.966   0.024  52.388  1.00  0.00     0.107 A 
HETATM   10  C13 UNL     1      21.841   0.687  51.578  1.00  0.00     0.047 A 
HETATM   11  O4  UNL     1      21.415  -1.165  52.883  1.00  0.00    -0.327 OA
HETATM   12  C14 UNL     1      22.551  -1.207  53.751  1.00  0.00     0.325 C 
HETATM   13  N1  UNL     1      23.757  -0.707  53.199  1.00  0.00    -0.259 NA
HETATM   14  C15 UNL     1      24.402   0.319  53.679  1.00  0.00     0.203 C 
HETATM   15  N2  UNL     1      25.595   1.083  53.406  1.00  0.00    -0.352 N 
HETATM   16  C16 UNL     1      25.600   2.179  52.497  1.00  0.00     0.047 C 
HETATM   17  C17 UNL     1      26.609   2.483  51.698  1.00  0.00     0.123 C 
HETATM   18  C19 UNL     1      24.401   3.036  52.428  1.00  0.00     0.070 C 
HETATM   19  H17 UNL     1      26.533   0.953  53.796  1.00  0.00     0.166 HD
ENDROOT
BRANCH   1  20
HETATM   20  O1  UNL     1      27.390   3.443  49.474  1.00  0.00    -0.353 OA
HETATM   21  C1  UNL     1      27.298   4.713  48.855  1.00  0.00     0.210 C 
ENDBRANCH   1  20
BRANCH  17  22
HETATM   22  O5  UNL     1      27.884   2.211  52.145  1.00  0.00    -0.351 OA
HETATM   23  C18 UNL     1      28.294   2.572  53.435  1.00  0.00     0.210 C 
ENDBRANCH  17  22
BRANCH   7  24
HETATM   24  O2  UNL     1      18.316   2.595  52.138  1.00  0.00    -0.353 OA
HETATM   25  C9  UNL     1      17.980   3.635  51.249  1.00  0.00     0.210 C 
ENDBRANCH   7  24
BRANCH   8  26
HETATM   26  O3  UNL     1      18.828   0.064  53.381  1.00  0.00    -0.351 OA
HETATM   27  C11 UNL     1      17.902  -0.888  52.904  1.00  0.00     0.210 C 
ENDBRANCH   8  26
TORSDOF 4
ENDMDL
MODEL 8
REMARK VINA RESULT:      -6.7      1.942      2.795
REMARK  4 active torsions:
REMARK  status: ('A' for Active; 'I' for Inactive)
REMARK    1  A    between atoms: O1_2  and  C2_3 
REMARK    2  A    between atoms: C8_9  and  O2_10 
REMARK    3  A    between atoms: C10_12  and  O3_13 
REMARK    4  A    between atoms: C17_23  and  O5_24 
ROOT
HETATM    1  C2  UNL     1      25.266   2.060  52.584  1.00  0.00     0.100 C 
HETATM    2  C3  UNL     1      24.233   1.272  52.953  1.00  0.00     0.019 C 
HETATM    3  C4  UNL     1      22.850   1.219  52.354  1.00  0.00    -0.016 C 
HETATM    4  C5  UNL     1      21.904   1.021  53.391  1.00  0.00     0.076 C 
HETATM    5  C6  UNL     1      20.508   0.967  52.851  1.00  0.00    -0.047 A 
HETATM    6  C7  UNL     1      19.568  -0.052  52.616  1.00  0.00     0.047 A 
HETATM    7  C8  UNL     1      18.307   0.153  52.064  1.00  0.00     0.104 A 
HETATM    8  C10 UNL     1      17.940   1.425  51.718  1.00  0.00     0.135 A 
HETATM    9  C12 UNL     1      18.749   2.520  51.886  1.00  0.00     0.107 A 
HETATM   10  C13 UNL     1      19.965   2.236  52.436  1.00  0.00     0.047 A 
HETATM   11  O4  UNL     1      18.536   3.834  51.588  1.00  0.00    -0.327 OA
HETATM   12  C14 UNL     1      19.348   4.499  50.615  1.00  0.00     0.325 C 
HETATM   13  N1  UNL     1      20.734   4.541  50.907  1.00  0.00    -0.259 NA
HETATM   14  C15 UNL     1      21.648   3.992  50.159  1.00  0.00     0.203 C 
HETATM   15  N2  UNL     1      23.082   3.831  50.128  1.00  0.00    -0.352 N 
HETATM   16  C16 UNL     1      23.737   2.755  50.792  1.00  0.00     0.047 C 
HETATM   17  C17 UNL     1      24.915   2.850  51.388  1.00  0.00     0.123 C 
HETATM   18  C19 UNL     1      23.062   1.443  50.833  1.00  0.00     0.070 C 
HETATM   19  H17 UNL     1      23.776   4.424  49.662  1.00  0.00     0.166 HD
ENDROOT
BRANCH   1  20
HETATM   20  O1  UNL     1      26.454   2.086  53.265  1.00  0.00    -0.353 OA
HETATM   21  C1  UNL     1      26.906   0.882  53.858  1.00  0.00     0.210 C 
ENDBRANCH   1  20
BRANCH  17  22
HETATM   22  O5  UNL     1      25.833   3.728  50.854  1.00  0.00    -0.351 OA
HETATM   23  C18 UNL     1      26.582   3.395  49.718  1.00  0.00     0.210 C 
ENDBRANCH  17  22
BRANCH   7  24
HETATM   24  O2  UNL     1      17.569  -0.987  51.934  1.00  0.00    -0.353 OA
HETATM   25  C9  UNL     1      17.351  -1.859  53.020  1.00  0.00     0.210 C 
ENDBRANCH   7  24
BRANCH   8  26
HETATM   26  O3  UNL     1      16.687   1.630  51.169  1.00  0.00    -0.351 OA
HETATM   27  C11 UNL     1      16.441   1.628  49.780  1.00  0.00     0.210 C 
ENDBRANCH   8  26
TORSDOF 4
ENDMDL
MODEL 9
REMARK VINA RESULT:      -6.7      3.296      6.472
REMARK  4 active torsions:
REMARK  status: ('A' for Active; 'I' for Inactive)
REMARK    1  A    between atoms: O1_2  and  C2_3 
REMARK    2  A    between atoms: C8_9  and  O2_10 
REMARK    3  A    between atoms: C10_12  and  O3_13 
REMARK    4  A    between atoms: C17_23  and  O5_24 
ROOT
HETATM    1  C2  UNL     1      23.578   5.709  48.462  1.00  0.00     0.100 C 
HETATM    2  C3  UNL     1      24.258   5.051  49.426  1.00  0.00     0.019 C 
HETATM    3  C4  UNL     1      23.976   3.678  49.984  1.00  0.00    -0.016 C 
HETATM    4  C5  UNL     1      24.232   3.684  51.378  1.00  0.00     0.076 C 
HETATM    5  C6  UNL     1      23.961   2.342  51.986  1.00  0.00    -0.047 A 
HETATM    6  C7  UNL     1      24.756   1.279  52.451  1.00  0.00     0.047 A 
HETATM    7  C8  UNL     1      24.253   0.087  52.964  1.00  0.00     0.104 A 
HETATM    8  C10 UNL     1      22.896  -0.082  53.026  1.00  0.00     0.135 A 
HETATM    9  C12 UNL     1      21.995   0.865  52.608  1.00  0.00     0.107 A 
HETATM   10  C13 UNL     1      22.567   2.004  52.123  1.00  0.00     0.047 A 
HETATM   11  O4  UNL     1      20.631   0.846  52.596  1.00  0.00    -0.327 OA
HETATM   12  C14 UNL     1      19.915   0.909  51.358  1.00  0.00     0.325 C 
HETATM   13  N1  UNL     1      20.146   2.073  50.582  1.00  0.00    -0.259 NA
HETATM   14  C15 UNL     1      20.665   2.054  49.387  1.00  0.00     0.203 C 
HETATM   15  N2  UNL     1      21.034   2.979  48.343  1.00  0.00    -0.352 N 
HETATM   16  C16 UNL     1      22.309   3.612  48.309  1.00  0.00     0.047 C 
HETATM   17  C17 UNL     1      22.518   4.851  47.896  1.00  0.00     0.123 C 
HETATM   18  C19 UNL     1      23.483   2.845  48.770  1.00  0.00     0.070 C 
HETATM   19  H17 UNL     1      20.473   3.289  47.544  1.00  0.00     0.166 HD
ENDROOT
BRANCH   1  20
HETATM   20  O1  UNL     1      23.873   6.996  48.100  1.00  0.00    -0.353 OA
HETATM   21  C1  UNL     1      25.227   7.320  47.843  1.00  0.00     0.210 C 
ENDBRANCH   1  20
BRANCH  17  22
HETATM   22  O5  UNL     1      21.702   5.340  46.900  1.00  0.00    -0.351 OA
HETATM   23  C18 UNL     1      22.016   5.157  45.547  1.00  0.00     0.210 C 
ENDBRANCH  17  22
BRANCH   7  24
HETATM   24  O2  UNL     1      25.216  -0.796  53.356  1.00  0.00    -0.353 OA
HETATM   25  C9  UNL     1      26.511  -0.779  52.800  1.00  0.00     0.210 C 
ENDBRANCH   7  24
BRANCH   8  26
HETATM   26  O3  UNL     1      22.395  -1.266  53.535  1.00  0.00    -0.351 OA
HETATM   27  C11 UNL     1      22.095  -1.456  54.901  1.00  0.00     0.210 C 
ENDBRANCH   8  26
TORSDOF 4
ENDMDL
