MODEL 1
REMARK VINA RESULT:      -8.5      0.000      0.000
REMARK  9 active torsions:
REMARK  status: ('A' for Active; 'I' for Inactive)
REMARK    1  A    between atoms: O1_2  and  C2_3 
REMARK    2  A    between atoms: C6_9  and  N3_10 
REMARK    3  A    between atoms: N4_13  and  C9_14 
REMARK    4  A    between atoms: C9_14  and  N5_16 
REMARK    5  A    between atoms: N5_16  and  C10_17 
REMARK    6  A    between atoms: C10_17  and  C11_18 
REMARK    7  A    between atoms: C15_22  and  C16_23 
REMARK    8  A    between atoms: C16_23  and  O2_24 
REMARK    9  A    between atoms: C22_30  and  O3_31 
ROOT
HETATM    1  N3  UNL     1      21.073   2.322  50.688  1.00  0.00    -0.362 N 
HETATM    2  C7  UNL     1      21.524   3.515  51.417  1.00  0.00     0.144 C 
HETATM    3  C8  UNL     1      22.707   3.184  52.292  1.00  0.00     0.145 C 
HETATM    4  N4  UNL     1      23.799   2.566  51.590  1.00  0.00    -0.355 N 
HETATM    5  C18 UNL     1      23.266   1.404  50.909  1.00  0.00     0.145 C 
HETATM    6  C19 UNL     1      22.225   1.882  49.926  1.00  0.00     0.144 C 
ENDROOT
BRANCH   1   7
HETATM    7  C6  UNL     1      19.807   1.689  50.685  1.00  0.00     0.139 A 
HETATM    8  N2  UNL     1      18.972   2.148  49.733  1.00  0.00    -0.224 NA
HETATM    9  C5  UNL     1      17.730   1.651  49.596  1.00  0.00     0.236 A 
HETATM   10  N1  UNL     1      17.268   0.663  50.415  1.00  0.00    -0.241 NA
HETATM   11  C4  UNL     1      18.081   0.175  51.385  1.00  0.00     0.075 A 
HETATM   12  C3  UNL     1      17.657  -0.815  52.226  1.00  0.00     0.072 A 
HETATM   13  C20 UNL     1      19.353   0.691  51.519  1.00  0.00     0.041 A 
HETATM   14  C2  UNL     1      18.556  -1.250  53.187  1.00  0.00     0.103 A 
HETATM   15  C22 UNL     1      19.830  -0.740  53.328  1.00  0.00     0.102 A 
HETATM   16  C21 UNL     1      20.260   0.268  52.470  1.00  0.00     0.057 A 
BRANCH  14  17
HETATM   17  O1  UNL     1      18.146  -2.254  54.051  1.00  0.00    -0.353 OA
HETATM   18  C1  UNL     1      17.212  -3.241  53.588  1.00  0.00     0.210 C 
ENDBRANCH  14  17
BRANCH  15  19
HETATM   19  O3  UNL     1      20.646  -1.252  54.326  1.00  0.00    -0.353 OA
HETATM   20  C23 UNL     1      22.002  -0.949  54.459  1.00  0.00     0.210 C 
ENDBRANCH  15  19
ENDBRANCH   1   7
BRANCH   4  21
HETATM   21  C9  UNL     1      25.145   3.089  51.622  1.00  0.00     0.170 C 
HETATM   22  S1  UNL     1      25.525   3.997  50.295  1.00  0.00    -0.041 SA
BRANCH  21  23
HETATM   23  N5  UNL     1      26.070   2.856  52.672  1.00  0.00    -0.363 N 
HETATM   24  H10 UNL     1      26.924   3.487  52.558  1.00  0.00     0.162 HD
BRANCH  23  25
HETATM   25  C10 UNL     1      26.103   1.980  53.818  1.00  0.00     0.160 C 
BRANCH  25  26
HETATM   26  C11 UNL     1      27.309   1.117  53.699  1.00  0.00    -0.040 A 
HETATM   27  C12 UNL     1      28.643   1.370  53.927  1.00  0.00     0.009 A 
HETATM   28  C13 UNL     1      29.569   0.381  53.757  1.00  0.00     0.001 A 
HETATM   29  C14 UNL     1      29.246  -0.899  53.358  1.00  0.00     0.009 A 
HETATM   30  C15 UNL     1      27.915  -1.177  53.124  1.00  0.00    -0.034 A 
HETATM   31  C17 UNL     1      26.988  -0.186  53.295  1.00  0.00     0.018 A 
BRANCH  30  32
HETATM   32  C16 UNL     1      27.599  -2.552  52.700  1.00  0.00     0.202 C 
BRANCH  32  33
HETATM   33  O2  UNL     1      28.479  -3.446  53.325  1.00  0.00    -0.396 OA
HETATM   34  H18 UNL     1      29.353  -3.439  52.867  1.00  0.00     0.209 HD
ENDBRANCH  32  33
ENDBRANCH  30  32
ENDBRANCH  25  26
ENDBRANCH  23  25
ENDBRANCH  21  23
ENDBRANCH   4  21
TORSDOF 9
ENDMDL
MODEL 2
REMARK VINA RESULT:      -8.4      3.688      6.622
REMARK  9 active torsions:
REMARK  status: ('A' for Active; 'I' for Inactive)
REMARK    1  A    between atoms: O1_2  and  C2_3 
REMARK    2  A    between atoms: C6_9  and  N3_10 
REMARK    3  A    between atoms: N4_13  and  C9_14 
REMARK    4  A    between atoms: C9_14  and  N5_16 
REMARK    5  A    between atoms: N5_16  and  C10_17 
REMARK    6  A    between atoms: C10_17  and  C11_18 
REMARK    7  A    between atoms: C15_22  and  C16_23 
REMARK    8  A    between atoms: C16_23  and  O2_24 
REMARK    9  A    between atoms: C22_30  and  O3_31 
ROOT
HETATM    1  N3  UNL     1      21.591   1.335  52.184  1.00  0.00    -0.362 N 
HETATM    2  C7  UNL     1      21.207   2.747  52.311  1.00  0.00     0.144 C 
HETATM    3  C8  UNL     1      22.013   3.602  51.365  1.00  0.00     0.145 C 
HETATM    4  N4  UNL     1      21.953   3.173  49.994  1.00  0.00    -0.355 N 
HETATM    5  C18 UNL     1      22.350   1.781  49.963  1.00  0.00     0.145 C 
HETATM    6  C19 UNL     1      21.358   1.000  50.793  1.00  0.00     0.144 C 
ENDROOT
BRANCH   1   7
HETATM    7  C6  UNL     1      22.087   0.441  53.163  1.00  0.00     0.139 A 
HETATM    8  N2  UNL     1      21.125  -0.134  53.910  1.00  0.00    -0.224 NA
HETATM    9  C5  UNL     1      21.429  -1.009  54.885  1.00  0.00     0.236 A 
HETATM   10  N1  UNL     1      22.723  -1.349  55.154  1.00  0.00    -0.241 NA
HETATM   11  C4  UNL     1      23.719  -0.791  54.421  1.00  0.00     0.075 A 
HETATM   12  C3  UNL     1      25.027  -1.105  54.658  1.00  0.00     0.072 A 
HETATM   13  C20 UNL     1      23.398   0.106  53.423  1.00  0.00     0.041 A 
HETATM   14  C2  UNL     1      25.975  -0.485  53.860  1.00  0.00     0.103 A 
HETATM   15  C22 UNL     1      25.664   0.413  52.860  1.00  0.00     0.102 A 
HETATM   16  C21 UNL     1      24.330   0.731  52.620  1.00  0.00     0.057 A 
BRANCH  14  17
HETATM   17  O1  UNL     1      27.310  -0.789  54.083  1.00  0.00    -0.353 OA
HETATM   18  C1  UNL     1      28.068   0.010  55.003  1.00  0.00     0.210 C 
ENDBRANCH  14  17
BRANCH  15  19
HETATM   19  O3  UNL     1      26.696   0.972  52.122  1.00  0.00    -0.353 OA
HETATM   20  C23 UNL     1      27.216   2.249  52.348  1.00  0.00     0.210 C 
ENDBRANCH  15  19
ENDBRANCH   1   7
BRANCH   4  21
HETATM   21  C9  UNL     1      21.555   4.051  48.917  1.00  0.00     0.170 C 
HETATM   22  S1  UNL     1      19.954   3.922  48.527  1.00  0.00    -0.041 SA
BRANCH  21  23
HETATM   23  N5  UNL     1      22.432   4.938  48.243  1.00  0.00    -0.363 N 
HETATM   24  H10 UNL     1      22.405   4.754  47.191  1.00  0.00     0.162 HD
BRANCH  23  25
HETATM   25  C10 UNL     1      23.320   5.997  48.658  1.00  0.00     0.160 C 
BRANCH  25  26
HETATM   26  C11 UNL     1      24.677   5.413  48.829  1.00  0.00    -0.040 A 
HETATM   27  C12 UNL     1      25.095   4.162  49.228  1.00  0.00     0.009 A 
HETATM   28  C13 UNL     1      26.427   3.869  49.287  1.00  0.00     0.001 A 
HETATM   29  C14 UNL     1      27.417   4.772  48.962  1.00  0.00     0.009 A 
HETATM   30  C15 UNL     1      27.024   6.033  48.560  1.00  0.00    -0.034 A 
HETATM   31  C17 UNL     1      25.690   6.326  48.501  1.00  0.00     0.018 A 
BRANCH  30  32
HETATM   32  C16 UNL     1      28.103   6.975  48.219  1.00  0.00     0.202 C 
BRANCH  32  33
HETATM   33  O2  UNL     1      29.237   6.684  48.989  1.00  0.00    -0.396 OA
HETATM   34  H18 UNL     1      30.003   7.227  48.686  1.00  0.00     0.209 HD
ENDBRANCH  32  33
ENDBRANCH  30  32
ENDBRANCH  25  26
ENDBRANCH  23  25
ENDBRANCH  21  23
ENDBRANCH   4  21
TORSDOF 9
ENDMDL
MODEL 3
REMARK VINA RESULT:      -8.4      1.984      7.625
REMARK  9 active torsions:
REMARK  status: ('A' for Active; 'I' for Inactive)
REMARK    1  A    between atoms: O1_2  and  C2_3 
REMARK    2  A    between atoms: C6_9  and  N3_10 
REMARK    3  A    between atoms: N4_13  and  C9_14 
REMARK    4  A    between atoms: C9_14  and  N5_16 
REMARK    5  A    between atoms: N5_16  and  C10_17 
REMARK    6  A    between atoms: C10_17  and  C11_18 
REMARK    7  A    between atoms: C15_22  and  C16_23 
REMARK    8  A    between atoms: C16_23  and  O2_24 
REMARK    9  A    between atoms: C22_30  and  O3_31 
ROOT
HETATM    1  N3  UNL     1      23.042   2.209  51.297  1.00  0.00    -0.362 N 
HETATM    2  C7  UNL     1      22.069   2.527  52.351  1.00  0.00     0.144 C 
HETATM    3  C8  UNL     1      21.088   3.566  51.867  1.00  0.00     0.145 C 
HETATM    4  N4  UNL     1      20.424   3.217  50.641  1.00  0.00    -0.355 N 
HETATM    5  C18 UNL     1      21.454   2.927  49.665  1.00  0.00     0.145 C 
HETATM    6  C19 UNL     1      22.252   1.750  50.172  1.00  0.00     0.144 C 
ENDROOT
BRANCH   1   7
HETATM    7  C6  UNL     1      24.455   2.307  51.311  1.00  0.00     0.139 A 
HETATM    8  N2  UNL     1      24.939   3.288  50.527  1.00  0.00    -0.224 NA
HETATM    9  C5  UNL     1      26.262   3.513  50.428  1.00  0.00     0.236 A 
HETATM   10  N1  UNL     1      27.163   2.756  51.119  1.00  0.00    -0.241 NA
HETATM   11  C4  UNL     1      26.711   1.759  51.920  1.00  0.00     0.075 A 
HETATM   12  C3  UNL     1      27.580   0.979  52.630  1.00  0.00     0.072 A 
HETATM   13  C20 UNL     1      25.353   1.535  52.015  1.00  0.00     0.041 A 
HETATM   14  C2  UNL     1      27.027  -0.016  53.420  1.00  0.00     0.103 A 
HETATM   15  C22 UNL     1      25.671  -0.247  53.522  1.00  0.00     0.102 A 
HETATM   16  C21 UNL     1      24.788   0.549  52.799  1.00  0.00     0.057 A 
BRANCH  14  17
HETATM   17  O1  UNL     1      27.891  -0.820  54.150  1.00  0.00    -0.353 OA
HETATM   18  C1  UNL     1      29.269  -0.906  53.757  1.00  0.00     0.210 C 
ENDBRANCH  14  17
BRANCH  15  19
HETATM   19  O3  UNL     1      25.230  -1.271  54.346  1.00  0.00    -0.353 OA
HETATM   20  C23 UNL     1      24.516  -1.070  55.529  1.00  0.00     0.210 C 
ENDBRANCH  15  19
ENDBRANCH   1   7
BRANCH   4  21
HETATM   21  C9  UNL     1      18.985   3.192  50.511  1.00  0.00     0.170 C 
HETATM   22  S1  UNL     1      18.365   4.567  49.838  1.00  0.00    -0.041 SA
BRANCH  21  23
HETATM   23  N5  UNL     1      18.164   2.109  50.918  1.00  0.00    -0.363 N 
HETATM   24  H10 UNL     1      17.597   2.381  51.781  1.00  0.00     0.162 HD
BRANCH  23  25
HETATM   25  C10 UNL     1      17.940   0.768  50.434  1.00  0.00     0.160 C 
BRANCH  25  26
HETATM   26  C11 UNL     1      18.050  -0.159  51.592  1.00  0.00    -0.040 A 
HETATM   27  C12 UNL     1      17.174  -1.087  52.110  1.00  0.00     0.009 A 
HETATM   28  C13 UNL     1      17.530  -1.839  53.192  1.00  0.00     0.001 A 
HETATM   29  C14 UNL     1      18.752  -1.727  53.824  1.00  0.00     0.009 A 
HETATM   30  C15 UNL     1      19.646  -0.804  53.324  1.00  0.00    -0.034 A 
HETATM   31  C17 UNL     1      19.289  -0.051  52.239  1.00  0.00     0.018 A 
BRANCH  30  32
HETATM   32  C16 UNL     1      20.942  -0.707  54.018  1.00  0.00     0.202 C 
BRANCH  32  33
HETATM   33  O2  UNL     1      21.024  -1.709  54.993  1.00  0.00    -0.396 OA
HETATM   34  H18 UNL     1      20.799  -2.586  54.601  1.00  0.00     0.209 HD
ENDBRANCH  32  33
ENDBRANCH  30  32
ENDBRANCH  25  26
ENDBRANCH  23  25
ENDBRANCH  21  23
ENDBRANCH   4  21
TORSDOF 9
ENDMDL
MODEL 4
REMARK VINA RESULT:      -8.3      4.194      7.383
REMARK  9 active torsions:
REMARK  status: ('A' for Active; 'I' for Inactive)
REMARK    1  A    between atoms: O1_2  and  C2_3 
REMARK    2  A    between atoms: C6_9  and  N3_10 
REMARK    3  A    between atoms: N4_13  and  C9_14 
REMARK    4  A    between atoms: C9_14  and  N5_16 
REMARK    5  A    between atoms: N5_16  and  C10_17 
REMARK    6  A    between atoms: C10_17  and  C11_18 
REMARK    7  A    between atoms: C15_22  and  C16_23 
REMARK    8  A    between atoms: C16_23  and  O2_24 
REMARK    9  A    between atoms: C22_30  and  O3_31 
ROOT
HETATM    1  N3  UNL     1      23.457   2.866  51.625  1.00  0.00    -0.362 N 
HETATM    2  C7  UNL     1      23.338   3.174  50.193  1.00  0.00     0.144 C 
HETATM    3  C8  UNL     1      22.097   3.992  49.931  1.00  0.00     0.145 C 
HETATM    4  N4  UNL     1      22.005   5.187  50.725  1.00  0.00    -0.355 N 
HETATM    5  C18 UNL     1      22.127   4.788  52.112  1.00  0.00     0.145 C 
HETATM    6  C19 UNL     1      23.484   4.152  52.292  1.00  0.00     0.144 C 
ENDROOT
BRANCH   1   7
HETATM    7  C6  UNL     1      23.534   1.611  52.276  1.00  0.00     0.139 A 
HETATM    8  N2  UNL     1      22.339   1.016  52.450  1.00  0.00    -0.224 NA
HETATM    9  C5  UNL     1      22.238  -0.183  53.053  1.00  0.00     0.236 A 
HETATM   10  N1  UNL     1      23.342  -0.841  53.511  1.00  0.00    -0.241 NA
HETATM   11  C4  UNL     1      24.563  -0.272  53.352  1.00  0.00     0.075 A 
HETATM   12  C3  UNL     1      25.694  -0.898  53.795  1.00  0.00     0.072 A 
HETATM   13  C20 UNL     1      24.657   0.957  52.733  1.00  0.00     0.041 A 
HETATM   14  C2  UNL     1      26.896  -0.241  53.590  1.00  0.00     0.103 A 
HETATM   15  C22 UNL     1      27.000   0.988  52.972  1.00  0.00     0.102 A 
HETATM   16  C21 UNL     1      25.848   1.624  52.521  1.00  0.00     0.057 A 
BRANCH  14  17
HETATM   17  O1  UNL     1      28.057  -0.858  54.032  1.00  0.00    -0.353 OA
HETATM   18  C1  UNL     1      28.772  -1.728  53.141  1.00  0.00     0.210 C 
ENDBRANCH  14  17
BRANCH  15  19
HETATM   19  O3  UNL     1      28.257   1.553  52.819  1.00  0.00    -0.353 OA
HETATM   20  C23 UNL     1      28.788   2.522  53.673  1.00  0.00     0.210 C 
ENDBRANCH  15  19
ENDBRANCH   1   7
BRANCH   4  21
HETATM   21  C9  UNL     1      21.824   6.498  50.146  1.00  0.00     0.170 C 
HETATM   22  S1  UNL     1      20.300   6.749  49.559  1.00  0.00    -0.041 SA
BRANCH  21  23
HETATM   23  N5  UNL     1      22.839   7.486  50.071  1.00  0.00    -0.363 N 
HETATM   24  H10 UNL     1      22.624   8.176  49.284  1.00  0.00     0.162 HD
BRANCH  23  25
HETATM   25  C10 UNL     1      24.055   7.750  50.803  1.00  0.00     0.160 C 
BRANCH  25  26
HETATM   26  C11 UNL     1      25.192   7.223  50.003  1.00  0.00    -0.040 A 
HETATM   27  C12 UNL     1      25.388   6.015  49.370  1.00  0.00     0.009 A 
HETATM   28  C13 UNL     1      26.538   5.783  48.673  1.00  0.00     0.001 A 
HETATM   29  C14 UNL     1      27.553   6.709  48.554  1.00  0.00     0.009 A 
HETATM   30  C15 UNL     1      27.381   7.927  49.180  1.00  0.00    -0.034 A 
HETATM   31  C17 UNL     1      26.228   8.159  49.878  1.00  0.00     0.018 A 
BRANCH  30  32
HETATM   32  C16 UNL     1      28.481   8.896  49.036  1.00  0.00     0.202 C 
BRANCH  32  33
HETATM   33  O2  UNL     1      28.781   9.449  50.289  1.00  0.00    -0.396 OA
HETATM   34  H18 UNL     1      27.957   9.768  50.727  1.00  0.00     0.209 HD
ENDBRANCH  32  33
ENDBRANCH  30  32
ENDBRANCH  25  26
ENDBRANCH  23  25
ENDBRANCH  21  23
ENDBRANCH   4  21
TORSDOF 9
ENDMDL
MODEL 5
REMARK VINA RESULT:      -8.3      4.606      7.220
REMARK  9 active torsions:
REMARK  status: ('A' for Active; 'I' for Inactive)
REMARK    1  A    between atoms: O1_2  and  C2_3 
REMARK    2  A    between atoms: C6_9  and  N3_10 
REMARK    3  A    between atoms: N4_13  and  C9_14 
REMARK    4  A    between atoms: C9_14  and  N5_16 
REMARK    5  A    between atoms: N5_16  and  C10_17 
REMARK    6  A    between atoms: C10_17  and  C11_18 
REMARK    7  A    between atoms: C15_22  and  C16_23 
REMARK    8  A    between atoms: C16_23  and  O2_24 
REMARK    9  A    between atoms: C22_30  and  O3_31 
ROOT
HETATM    1  N3  UNL     1      22.890   2.900  51.833  1.00  0.00    -0.362 N 
HETATM    2  C7  UNL     1      22.495   4.146  52.503  1.00  0.00     0.144 C 
HETATM    3  C8  UNL     1      23.538   5.215  52.286  1.00  0.00     0.145 C 
HETATM    4  N4  UNL     1      23.855   5.451  50.903  1.00  0.00    -0.355 N 
HETATM    5  C18 UNL     1      24.235   4.177  50.329  1.00  0.00     0.145 C 
HETATM    6  C19 UNL     1      23.048   3.250  50.435  1.00  0.00     0.144 C 
ENDROOT
BRANCH   1   7
HETATM    7  C6  UNL     1      23.089   1.607  52.374  1.00  0.00     0.139 A 
HETATM    8  N2  UNL     1      22.050   0.772  52.184  1.00  0.00    -0.224 NA
HETATM    9  C5  UNL     1      22.080  -0.494  52.638  1.00  0.00     0.236 A 
HETATM   10  N1  UNL     1      23.165  -0.981  53.307  1.00  0.00    -0.241 NA
HETATM   11  C4  UNL     1      24.231  -0.169  53.516  1.00  0.00     0.075 A 
HETATM   12  C3  UNL     1      25.337  -0.619  54.181  1.00  0.00     0.072 A 
HETATM   13  C20 UNL     1      24.192   1.128  53.048  1.00  0.00     0.041 A 
HETATM   14  C2  UNL     1      26.377   0.282  54.348  1.00  0.00     0.103 A 
HETATM   15  C22 UNL     1      26.346   1.580  53.883  1.00  0.00     0.102 A 
HETATM   16  C21 UNL     1      25.219   2.036  53.206  1.00  0.00     0.057 A 
BRANCH  14  17
HETATM   17  O1  UNL     1      27.510  -0.153  55.020  1.00  0.00    -0.353 OA
HETATM   18  C1  UNL     1      28.610  -0.688  54.268  1.00  0.00     0.210 C 
ENDBRANCH  14  17
BRANCH  15  19
HETATM   19  O3  UNL     1      27.447   2.394  54.107  1.00  0.00    -0.353 OA
HETATM   20  C23 UNL     1      28.509   2.537  53.212  1.00  0.00     0.210 C 
ENDBRANCH  15  19
ENDBRANCH   1   7
BRANCH   4  21
HETATM   21  C9  UNL     1      23.776   6.759  50.295  1.00  0.00     0.170 C 
HETATM   22  S1  UNL     1      22.325   7.509  50.544  1.00  0.00    -0.041 SA
BRANCH  21  23
HETATM   23  N5  UNL     1      24.822   7.359  49.549  1.00  0.00    -0.363 N 
HETATM   24  H10 UNL     1      25.386   8.021  50.170  1.00  0.00     0.162 HD
BRANCH  23  25
HETATM   25  C10 UNL     1      25.272   7.271  48.180  1.00  0.00     0.160 C 
BRANCH  25  26
HETATM   26  C11 UNL     1      26.632   6.670  48.184  1.00  0.00    -0.040 A 
HETATM   27  C12 UNL     1      27.088   5.436  48.591  1.00  0.00     0.009 A 
HETATM   28  C13 UNL     1      28.410   5.118  48.471  1.00  0.00     0.001 A 
HETATM   29  C14 UNL     1      29.352   5.979  47.948  1.00  0.00     0.009 A 
HETATM   30  C15 UNL     1      28.920   7.222  47.533  1.00  0.00    -0.034 A 
HETATM   31  C17 UNL     1      27.595   7.540  47.654  1.00  0.00     0.018 A 
BRANCH  30  32
HETATM   32  C16 UNL     1      29.947   8.120  46.980  1.00  0.00     0.202 C 
BRANCH  32  33
HETATM   33  O2  UNL     1      30.192   9.161  47.885  1.00  0.00    -0.396 OA
HETATM   34  H18 UNL     1      29.661   9.956  47.642  1.00  0.00     0.209 HD
ENDBRANCH  32  33
ENDBRANCH  30  32
ENDBRANCH  25  26
ENDBRANCH  23  25
ENDBRANCH  21  23
ENDBRANCH   4  21
TORSDOF 9
ENDMDL
MODEL 6
REMARK VINA RESULT:      -8.2      3.586      6.995
REMARK  9 active torsions:
REMARK  status: ('A' for Active; 'I' for Inactive)
REMARK    1  A    between atoms: O1_2  and  C2_3 
REMARK    2  A    between atoms: C6_9  and  N3_10 
REMARK    3  A    between atoms: N4_13  and  C9_14 
REMARK    4  A    between atoms: C9_14  and  N5_16 
REMARK    5  A    between atoms: N5_16  and  C10_17 
REMARK    6  A    between atoms: C10_17  and  C11_18 
REMARK    7  A    between atoms: C15_22  and  C16_23 
REMARK    8  A    between atoms: C16_23  and  O2_24 
REMARK    9  A    between atoms: C22_30  and  O3_31 
ROOT
HETATM    1  N3  UNL     1      22.837   1.944  51.916  1.00  0.00    -0.362 N 
HETATM    2  C7  UNL     1      22.512   1.868  50.486  1.00  0.00     0.144 C 
HETATM    3  C8  UNL     1      21.133   2.421  50.227  1.00  0.00     0.145 C 
HETATM    4  N4  UNL     1      20.933   3.753  50.730  1.00  0.00    -0.355 N 
HETATM    5  C18 UNL     1      21.270   3.733  52.138  1.00  0.00     0.145 C 
HETATM    6  C19 UNL     1      22.725   3.348  52.259  1.00  0.00     0.144 C 
ENDROOT
BRANCH   1   7
HETATM    7  C6  UNL     1      23.190   0.913  52.820  1.00  0.00     0.139 A 
HETATM    8  N2  UNL     1      22.136   0.225  53.298  1.00  0.00    -0.224 NA
HETATM    9  C5  UNL     1      22.300  -0.788  54.168  1.00  0.00     0.236 A 
HETATM   10  N1  UNL     1      23.541  -1.157  54.599  1.00  0.00    -0.241 NA
HETATM   11  C4  UNL     1      24.627  -0.486  54.139  1.00  0.00     0.075 A 
HETATM   12  C3  UNL     1      25.886  -0.825  54.546  1.00  0.00     0.072 A 
HETATM   13  C20 UNL     1      24.449   0.551  53.248  1.00  0.00     0.041 A 
HETATM   14  C2  UNL     1      26.934  -0.083  54.024  1.00  0.00     0.103 A 
HETATM   15  C22 UNL     1      26.766   0.955  53.132  1.00  0.00     0.102 A 
HETATM   16  C21 UNL     1      25.482   1.298  52.718  1.00  0.00     0.057 A 
BRANCH  14  17
HETATM   17  O1  UNL     1      28.222  -0.409  54.423  1.00  0.00    -0.353 OA
HETATM   18  C1  UNL     1      29.021  -1.262  53.589  1.00  0.00     0.210 C 
ENDBRANCH  14  17
BRANCH  15  19
HETATM   19  O3  UNL     1      27.889   1.628  52.673  1.00  0.00    -0.353 OA
HETATM   20  C23 UNL     1      28.650   2.502  53.453  1.00  0.00     0.210 C 
ENDBRANCH  15  19
ENDBRANCH   1   7
BRANCH   4  21
HETATM   21  C9  UNL     1      20.477   4.842  49.898  1.00  0.00     0.170 C 
HETATM   22  S1  UNL     1      18.835   5.028  49.908  1.00  0.00    -0.041 SA
BRANCH  21  23
HETATM   23  N5  UNL     1      21.331   5.679  49.135  1.00  0.00    -0.363 N 
HETATM   24  H10 UNL     1      21.412   6.640  49.594  1.00  0.00     0.162 HD
BRANCH  23  25
HETATM   25  C10 UNL     1      22.084   5.516  47.915  1.00  0.00     0.160 C 
BRANCH  25  26
HETATM   26  C11 UNL     1      23.521   5.728  48.234  1.00  0.00    -0.040 A 
HETATM   27  C12 UNL     1      24.357   6.803  48.030  1.00  0.00     0.009 A 
HETATM   28  C13 UNL     1      25.659   6.749  48.439  1.00  0.00     0.001 A 
HETATM   29  C14 UNL     1      26.212   5.651  49.065  1.00  0.00     0.009 A 
HETATM   30  C15 UNL     1      25.394   4.561  49.280  1.00  0.00    -0.034 A 
HETATM   31  C17 UNL     1      24.090   4.616  48.870  1.00  0.00     0.018 A 
BRANCH  30  32
HETATM   32  C16 UNL     1      26.011   3.403  49.950  1.00  0.00     0.202 C 
BRANCH  32  33
HETATM   33  O2  UNL     1      27.243   3.785  50.498  1.00  0.00    -0.396 OA
HETATM   34  H18 UNL     1      27.445   3.238  51.294  1.00  0.00     0.209 HD
ENDBRANCH  32  33
ENDBRANCH  30  32
ENDBRANCH  25  26
ENDBRANCH  23  25
ENDBRANCH  21  23
ENDBRANCH   4  21
TORSDOF 9
ENDMDL
MODEL 7
REMARK VINA RESULT:      -8.1      3.405      7.090
REMARK  9 active torsions:
REMARK  status: ('A' for Active; 'I' for Inactive)
REMARK    1  A    between atoms: O1_2  and  C2_3 
REMARK    2  A    between atoms: C6_9  and  N3_10 
REMARK    3  A    between atoms: N4_13  and  C9_14 
REMARK    4  A    between atoms: C9_14  and  N5_16 
REMARK    5  A    between atoms: N5_16  and  C10_17 
REMARK    6  A    between atoms: C10_17  and  C11_18 
REMARK    7  A    between atoms: C15_22  and  C16_23 
REMARK    8  A    between atoms: C16_23  and  O2_24 
REMARK    9  A    between atoms: C22_30  and  O3_31 
ROOT
HETATM    1  N3  UNL     1      21.704   1.184  52.040  1.00  0.00    -0.362 N 
HETATM    2  C7  UNL     1      21.217   0.799  50.709  1.00  0.00     0.144 C 
HETATM    3  C8  UNL     1      19.783   1.229  50.526  1.00  0.00     0.145 C 
HETATM    4  N4  UNL     1      19.556   2.627  50.773  1.00  0.00    -0.355 N 
HETATM    5  C18 UNL     1      20.059   2.914  52.101  1.00  0.00     0.145 C 
HETATM    6  C19 UNL     1      21.541   2.623  52.105  1.00  0.00     0.144 C 
ENDROOT
BRANCH   1   7
HETATM    7  C6  UNL     1      22.231   0.379  53.079  1.00  0.00     0.139 A 
HETATM    8  N2  UNL     1      21.291  -0.157  53.880  1.00  0.00    -0.224 NA
HETATM    9  C5  UNL     1      21.626  -0.948  54.916  1.00  0.00     0.236 A 
HETATM   10  N1  UNL     1      22.930  -1.238  55.193  1.00  0.00    -0.241 NA
HETATM   11  C4  UNL     1      23.904  -0.716  54.406  1.00  0.00     0.075 A 
HETATM   12  C3  UNL     1      25.222  -0.983  54.650  1.00  0.00     0.072 A 
HETATM   13  C20 UNL     1      23.552   0.094  53.347  1.00  0.00     0.041 A 
HETATM   14  C2  UNL     1      26.147  -0.406  53.794  1.00  0.00     0.103 A 
HETATM   15  C22 UNL     1      25.804   0.405  52.732  1.00  0.00     0.102 A 
HETATM   16  C21 UNL     1      24.461   0.675  52.486  1.00  0.00     0.057 A 
BRANCH  14  17
HETATM   17  O1  UNL     1      27.491  -0.663  54.022  1.00  0.00    -0.353 OA
HETATM   18  C1  UNL     1      28.224   0.182  54.923  1.00  0.00     0.210 C 
ENDBRANCH  14  17
BRANCH  15  19
HETATM   19  O3  UNL     1      26.815   0.929  51.940  1.00  0.00    -0.353 OA
HETATM   20  C23 UNL     1      27.096   2.292  51.830  1.00  0.00     0.210 C 
ENDBRANCH  15  19
ENDBRANCH   1   7
BRANCH   4  21
HETATM   21  C9  UNL     1      18.931   3.500  49.807  1.00  0.00     0.170 C 
HETATM   22  S1  UNL     1      17.444   4.043  50.281  1.00  0.00    -0.041 SA
BRANCH  21  23
HETATM   23  N5  UNL     1      19.512   3.866  48.565  1.00  0.00    -0.363 N 
HETATM   24  H10 UNL     1      19.115   3.261  47.780  1.00  0.00     0.162 HD
BRANCH  23  25
HETATM   25  C10 UNL     1      20.491   4.842  48.152  1.00  0.00     0.160 C 
BRANCH  25  26
HETATM   26  C11 UNL     1      21.803   4.448  48.732  1.00  0.00    -0.040 A 
HETATM   27  C12 UNL     1      22.601   3.345  48.529  1.00  0.00     0.009 A 
HETATM   28  C13 UNL     1      23.792   3.228  49.186  1.00  0.00     0.001 A 
HETATM   29  C14 UNL     1      24.266   4.174  50.071  1.00  0.00     0.009 A 
HETATM   30  C15 UNL     1      23.483   5.290  50.291  1.00  0.00    -0.034 A 
HETATM   31  C17 UNL     1      22.291   5.406  49.632  1.00  0.00     0.018 A 
BRANCH  30  32
HETATM   32  C16 UNL     1      24.014   6.283  51.239  1.00  0.00     0.202 C 
BRANCH  32  33
HETATM   33  O2  UNL     1      23.951   5.766  52.540  1.00  0.00    -0.396 OA
HETATM   34  H18 UNL     1      24.670   5.104  52.679  1.00  0.00     0.209 HD
ENDBRANCH  32  33
ENDBRANCH  30  32
ENDBRANCH  25  26
ENDBRANCH  23  25
ENDBRANCH  21  23
ENDBRANCH   4  21
TORSDOF 9
ENDMDL
MODEL 8
REMARK VINA RESULT:      -8.0      5.163      8.842
REMARK  9 active torsions:
REMARK  status: ('A' for Active; 'I' for Inactive)
REMARK    1  A    between atoms: O1_2  and  C2_3 
REMARK    2  A    between atoms: C6_9  and  N3_10 
REMARK    3  A    between atoms: N4_13  and  C9_14 
REMARK    4  A    between atoms: C9_14  and  N5_16 
REMARK    5  A    between atoms: N5_16  and  C10_17 
REMARK    6  A    between atoms: C10_17  and  C11_18 
REMARK    7  A    between atoms: C15_22  and  C16_23 
REMARK    8  A    between atoms: C16_23  and  O2_24 
REMARK    9  A    between atoms: C22_30  and  O3_31 
ROOT
HETATM    1  N3  UNL     1      25.599   4.365  49.298  1.00  0.00    -0.362 N 
HETATM    2  C7  UNL     1      26.518   3.396  49.907  1.00  0.00     0.144 C 
HETATM    3  C8  UNL     1      26.092   3.080  51.320  1.00  0.00     0.145 C 
HETATM    4  N4  UNL     1      24.728   2.639  51.434  1.00  0.00    -0.355 N 
HETATM    5  C18 UNL     1      23.899   3.652  50.816  1.00  0.00     0.145 C 
HETATM    6  C19 UNL     1      24.291   3.744  49.360  1.00  0.00     0.144 C 
ENDROOT
BRANCH   1   7
HETATM    7  C6  UNL     1      25.865   5.643  48.750  1.00  0.00     0.139 A 
HETATM    8  N2  UNL     1      24.770   6.414  48.610  1.00  0.00    -0.224 NA
HETATM    9  C5  UNL     1      24.852   7.657  48.103  1.00  0.00     0.236 A 
HETATM   10  N1  UNL     1      26.047   8.186  47.712  1.00  0.00    -0.241 NA
HETATM   11  C4  UNL     1      27.173   7.439  47.839  1.00  0.00     0.075 A 
HETATM   12  C3  UNL     1      28.390   7.932  47.460  1.00  0.00     0.072 A 
HETATM   13  C20 UNL     1      27.080   6.165  48.359  1.00  0.00     0.041 A 
HETATM   14  C2  UNL     1      29.483   7.096  47.626  1.00  0.00     0.103 A 
HETATM   15  C22 UNL     1      29.400   5.821  48.145  1.00  0.00     0.102 A 
HETATM   16  C21 UNL     1      28.159   5.322  48.531  1.00  0.00     0.057 A 
BRANCH  14  17
HETATM   17  O1  UNL     1      30.729   7.576  47.248  1.00  0.00    -0.353 OA
HETATM   18  C1  UNL     1      31.072   7.616  45.854  1.00  0.00     0.210 C 
ENDBRANCH  14  17
BRANCH  15  19
HETATM   19  O3  UNL     1      30.561   5.074  48.267  1.00  0.00    -0.353 OA
HETATM   20  C23 UNL     1      31.582   5.358  49.177  1.00  0.00     0.210 C 
ENDBRANCH  15  19
ENDBRANCH   1   7
BRANCH   4  21
HETATM   21  C9  UNL     1      24.359   1.395  52.070  1.00  0.00     0.170 C 
HETATM   22  S1  UNL     1      22.779   0.979  51.824  1.00  0.00    -0.041 SA
BRANCH  21  23
HETATM   23  N5  UNL     1      25.244   0.596  52.838  1.00  0.00    -0.363 N 
HETATM   24  H10 UNL     1      25.720   1.189  53.588  1.00  0.00     0.162 HD
BRANCH  23  25
HETATM   25  C10 UNL     1      25.626  -0.796  52.824  1.00  0.00     0.160 C 
BRANCH  25  26
HETATM   26  C11 UNL     1      27.087  -0.871  53.089  1.00  0.00    -0.040 A 
HETATM   27  C12 UNL     1      27.987  -1.908  52.982  1.00  0.00     0.009 A 
HETATM   28  C13 UNL     1      29.304  -1.708  53.276  1.00  0.00     0.001 A 
HETATM   29  C14 UNL     1      29.814  -0.494  53.688  1.00  0.00     0.009 A 
HETATM   30  C15 UNL     1      28.932   0.561  53.803  1.00  0.00    -0.034 A 
HETATM   31  C17 UNL     1      27.612   0.360  53.508  1.00  0.00     0.018 A 
BRANCH  30  32
HETATM   32  C16 UNL     1      29.503   1.845  54.244  1.00  0.00     0.202 C 
BRANCH  32  33
HETATM   33  O2  UNL     1      29.269   2.820  53.266  1.00  0.00    -0.396 OA
HETATM   34  H18 UNL     1      29.529   2.480  52.376  1.00  0.00     0.209 HD
ENDBRANCH  32  33
ENDBRANCH  30  32
ENDBRANCH  25  26
ENDBRANCH  23  25
ENDBRANCH  21  23
ENDBRANCH   4  21
TORSDOF 9
ENDMDL
MODEL 9
REMARK VINA RESULT:      -8.0      1.205      1.969
REMARK  9 active torsions:
REMARK  status: ('A' for Active; 'I' for Inactive)
REMARK    1  A    between atoms: O1_2  and  C2_3 
REMARK    2  A    between atoms: C6_9  and  N3_10 
REMARK    3  A    between atoms: N4_13  and  C9_14 
REMARK    4  A    between atoms: C9_14  and  N5_16 
REMARK    5  A    between atoms: N5_16  and  C10_17 
REMARK    6  A    between atoms: C10_17  and  C11_18 
REMARK    7  A    between atoms: C15_22  and  C16_23 
REMARK    8  A    between atoms: C16_23  and  O2_24 
REMARK    9  A    between atoms: C22_30  and  O3_31 
ROOT
HETATM    1  N3  UNL     1      21.162   1.871  50.931  1.00  0.00    -0.362 N 
HETATM    2  C7  UNL     1      22.244   1.517  50.003  1.00  0.00     0.144 C 
HETATM    3  C8  UNL     1      22.781   2.751  49.322  1.00  0.00     0.145 C 
HETATM    4  N4  UNL     1      23.199   3.785  50.230  1.00  0.00    -0.355 N 
HETATM    5  C18 UNL     1      22.075   4.071  51.098  1.00  0.00     0.145 C 
HETATM    6  C19 UNL     1      21.751   2.811  51.864  1.00  0.00     0.144 C 
ENDROOT
BRANCH   1   7
HETATM    7  C6  UNL     1      19.817   1.429  50.964  1.00  0.00     0.139 A 
HETATM    8  N2  UNL     1      19.005   2.094  50.121  1.00  0.00    -0.224 NA
HETATM    9  C5  UNL     1      17.697   1.795  50.032  1.00  0.00     0.236 A 
HETATM   10  N1  UNL     1      17.142   0.806  50.791  1.00  0.00    -0.241 NA
HETATM   11  C4  UNL     1      17.930   0.114  51.651  1.00  0.00     0.075 A 
HETATM   12  C3  UNL     1      17.414  -0.884  52.429  1.00  0.00     0.072 A 
HETATM   13  C20 UNL     1      19.270   0.427  51.738  1.00  0.00     0.041 A 
HETATM   14  C2  UNL     1      18.294  -1.535  53.279  1.00  0.00     0.103 A 
HETATM   15  C22 UNL     1      19.635  -1.229  53.371  1.00  0.00     0.102 A 
HETATM   16  C21 UNL     1      20.159  -0.213  52.578  1.00  0.00     0.057 A 
BRANCH  14  17
HETATM   17  O1  UNL     1      17.791  -2.552  54.078  1.00  0.00    -0.353 OA
HETATM   18  C1  UNL     1      17.214  -3.711  53.458  1.00  0.00     0.210 C 
ENDBRANCH  14  17
BRANCH  15  19
HETATM   19  O3  UNL     1      20.424  -1.948  54.257  1.00  0.00    -0.353 OA
HETATM   20  C23 UNL     1      21.716  -1.576  54.633  1.00  0.00     0.210 C 
ENDBRANCH  15  19
ENDBRANCH   1   7
BRANCH   4  21
HETATM   21  C9  UNL     1      24.522   4.365  50.199  1.00  0.00     0.170 C 
HETATM   22  S1  UNL     1      24.659   5.623  49.137  1.00  0.00    -0.041 SA
BRANCH  21  23
HETATM   23  N5  UNL     1      25.612   3.914  50.987  1.00  0.00    -0.363 N 
HETATM   24  H10 UNL     1      25.723   4.533  51.851  1.00  0.00     0.162 HD
BRANCH  23  25
HETATM   25  C10 UNL     1      26.568   2.839  50.875  1.00  0.00     0.160 C 
BRANCH  25  26
HETATM   26  C11 UNL     1      26.129   1.741  51.776  1.00  0.00    -0.040 A 
HETATM   27  C12 UNL     1      24.918   1.476  52.377  1.00  0.00     0.009 A 
HETATM   28  C13 UNL     1      24.768   0.369  53.161  1.00  0.00     0.001 A 
HETATM   29  C14 UNL     1      25.782  -0.534  53.400  1.00  0.00     0.009 A 
HETATM   30  C15 UNL     1      27.005  -0.291  52.809  1.00  0.00    -0.034 A 
HETATM   31  C17 UNL     1      27.155   0.819  52.024  1.00  0.00     0.018 A 
BRANCH  30  32
HETATM   32  C16 UNL     1      28.069  -1.272  53.082  1.00  0.00     0.202 C 
BRANCH  32  33
HETATM   33  O2  UNL     1      27.524  -2.562  53.084  1.00  0.00    -0.396 OA
HETATM   34  H18 UNL     1      28.068  -3.162  53.648  1.00  0.00     0.209 HD
ENDBRANCH  32  33
ENDBRANCH  30  32
ENDBRANCH  25  26
ENDBRANCH  23  25
ENDBRANCH  21  23
ENDBRANCH   4  21
TORSDOF 9
ENDMDL
