MODEL 1
REMARK VINA RESULT:      -7.5      0.000      0.000
REMARK  9 active torsions:
REMARK  status: ('A' for Active; 'I' for Inactive)
REMARK    1  A    between atoms: O1_2  and  C2_3 
REMARK    2  A    between atoms: C5_6  and  C6_7 
REMARK       I    between atoms: C6_7  and  N1_9 
REMARK    3  A    between atoms: N1_9  and  C7_10 
REMARK    4  A    between atoms: C7_10  and  C8_11 
REMARK    5  A    between atoms: C8_11  and  O3_12 
REMARK    6  A    between atoms: C8_11  and  C9_13 
REMARK    7  A    between atoms: C9_13  and  O4_14 
REMARK    8  A    between atoms: P1_16  and  C11_17 
REMARK    9  A    between atoms: C12_18  and  C13_19 
ROOT
HETATM    1  C2  UNL     1      22.492   3.168  50.352  1.00  0.00     0.071 A 
HETATM    2  C3  UNL     1      22.448   1.855  50.469  1.00  0.00     0.038 A 
HETATM    3  C4  UNL     1      23.188   1.108  51.474  1.00  0.00     0.020 A 
HETATM    4  C5  UNL     1      23.982   1.648  52.378  1.00  0.00     0.033 A 
HETATM    5  C10 UNL     1      24.203   3.083  52.459  1.00  0.00     0.026 A 
HETATM    6  P1  UNL     1      23.496   4.138  51.460  1.00  0.00    -0.053 P 
HETATM    7  H15 UNL     1      22.620   4.983  52.187  1.00  0.00     0.067 HD
ENDROOT
BRANCH   4   8
HETATM    8  C6  UNL     1      24.677   0.800  53.338  1.00  0.00     0.251 C 
HETATM    9  O2  UNL     1      24.166  -0.316  53.700  1.00  0.00    -0.268 OA
HETATM   10  N1  UNL     1      25.910   1.057  53.960  1.00  0.00    -0.354 N 
HETATM   11  H6  UNL     1      26.372   1.976  53.690  1.00  0.00     0.162 HD
BRANCH  10  12
HETATM   12  C7  UNL     1      26.626   0.257  54.900  1.00  0.00     0.156 C 
BRANCH  12  13
HETATM   13  C8  UNL     1      28.113   0.464  54.725  1.00  0.00     0.159 C 
BRANCH  13  14
HETATM   14  O3  UNL     1      28.647  -0.796  54.391  1.00  0.00    -0.392 OA
HETATM   15  H10 UNL     1      28.940  -1.234  55.228  1.00  0.00     0.210 HD
ENDBRANCH  13  14
BRANCH  13  16
HETATM   16  C9  UNL     1      28.345   1.452  53.596  1.00  0.00     0.197 C 
BRANCH  16  17
HETATM   17  O4  UNL     1      28.114   2.725  54.112  1.00  0.00    -0.398 OA
HETATM   18  H13 UNL     1      28.391   2.688  55.063  1.00  0.00     0.209 HD
ENDBRANCH  16  17
ENDBRANCH  13  16
ENDBRANCH  12  13
ENDBRANCH  10  12
ENDBRANCH   4   8
BRANCH   6  19
HETATM   19  C11 UNL     1      24.681   5.143  50.602  1.00  0.00     0.011 C 
HETATM   20  C12 UNL     1      25.528   4.705  49.666  1.00  0.00     0.012 C 
BRANCH  20  21
HETATM   21  C13 UNL     1      26.524   5.485  48.927  1.00  0.00    -0.036 A 
HETATM   22  C14 UNL     1      26.210   6.735  48.417  1.00  0.00     0.013 A 
HETATM   23  C15 UNL     1      27.219   7.392  47.734  1.00  0.00     0.024 A 
HETATM   24  C16 UNL     1      28.488   6.878  47.541  1.00  0.00     0.034 A 
HETATM   25 CL1  UNL     1      29.742   7.728  46.676  1.00  0.00    -0.084 Cl
HETATM   26  C17 UNL     1      28.772   5.628  48.061  1.00  0.00     0.024 A 
HETATM   27  C18 UNL     1      27.780   4.939  48.754  1.00  0.00     0.013 A 
ENDBRANCH  20  21
ENDBRANCH   6  19
BRANCH   1  28
HETATM   28  O1  UNL     1      21.888   4.047  49.498  1.00  0.00    -0.355 OA
HETATM   29  C1  UNL     1      22.023   4.090  48.102  1.00  0.00     0.210 C 
ENDBRANCH   1  28
TORSDOF 9
ENDMDL
MODEL 2
REMARK VINA RESULT:      -7.4      3.015      5.744
REMARK  9 active torsions:
REMARK  status: ('A' for Active; 'I' for Inactive)
REMARK    1  A    between atoms: O1_2  and  C2_3 
REMARK    2  A    between atoms: C5_6  and  C6_7 
REMARK       I    between atoms: C6_7  and  N1_9 
REMARK    3  A    between atoms: N1_9  and  C7_10 
REMARK    4  A    between atoms: C7_10  and  C8_11 
REMARK    5  A    between atoms: C8_11  and  O3_12 
REMARK    6  A    between atoms: C8_11  and  C9_13 
REMARK    7  A    between atoms: C9_13  and  O4_14 
REMARK    8  A    between atoms: P1_16  and  C11_17 
REMARK    9  A    between atoms: C12_18  and  C13_19 
ROOT
HETATM    1  C2  UNL     1      27.192   0.591  53.744  1.00  0.00     0.071 A 
HETATM    2  C3  UNL     1      26.751   0.142  54.904  1.00  0.00     0.038 A 
HETATM    3  C4  UNL     1      25.403  -0.360  55.116  1.00  0.00     0.020 A 
HETATM    4  C5  UNL     1      24.470  -0.426  54.186  1.00  0.00     0.033 A 
HETATM    5  C10 UNL     1      24.705   0.011  52.819  1.00  0.00     0.026 A 
HETATM    6  P1  UNL     1      26.121   0.607  52.319  1.00  0.00    -0.053 P 
HETATM    7  H15 UNL     1      26.698  -0.256  51.353  1.00  0.00     0.067 HD
ENDROOT
BRANCH   4   8
HETATM    8  C6  UNL     1      23.149  -0.948  54.513  1.00  0.00     0.251 C 
HETATM    9  O2  UNL     1      22.922  -1.448  55.668  1.00  0.00    -0.268 OA
HETATM   10  N1  UNL     1      22.019  -0.977  53.678  1.00  0.00    -0.354 N 
HETATM   11  H6  UNL     1      22.161  -0.572  52.706  1.00  0.00     0.162 HD
BRANCH  10  12
HETATM   12  C7  UNL     1      20.710  -1.474  53.956  1.00  0.00     0.156 C 
BRANCH  12  13
HETATM   13  C8  UNL     1      19.672  -0.492  53.463  1.00  0.00     0.159 C 
BRANCH  13  14
HETATM   14  O3  UNL     1      20.239   0.152  52.347  1.00  0.00    -0.392 OA
HETATM   15  H10 UNL     1      19.500   0.493  51.784  1.00  0.00     0.210 HD
ENDBRANCH  13  14
BRANCH  13  16
HETATM   16  C9  UNL     1      18.426  -1.257  53.054  1.00  0.00     0.197 C 
BRANCH  16  17
HETATM   17  O4  UNL     1      17.567  -1.259  54.152  1.00  0.00    -0.398 OA
HETATM   18  H13 UNL     1      16.660  -1.093  53.790  1.00  0.00     0.209 HD
ENDBRANCH  16  17
ENDBRANCH  13  16
ENDBRANCH  12  13
ENDBRANCH  10  12
ENDBRANCH   4   8
BRANCH   6  19
HETATM   19  C11 UNL     1      25.954   2.227  51.613  1.00  0.00     0.011 C 
HETATM   20  C12 UNL     1      26.435   2.601  50.423  1.00  0.00     0.012 C 
BRANCH  20  21
HETATM   21  C13 UNL     1      26.328   3.919  49.792  1.00  0.00    -0.036 A 
HETATM   22  C14 UNL     1      27.366   4.424  49.024  1.00  0.00     0.013 A 
HETATM   23  C15 UNL     1      27.168   5.677  48.470  1.00  0.00     0.024 A 
HETATM   24  C16 UNL     1      26.020   6.428  48.638  1.00  0.00     0.034 A 
HETATM   25 CL1  UNL     1      25.797   8.006  47.929  1.00  0.00    -0.084 Cl
HETATM   26  C17 UNL     1      25.001   5.898  49.409  1.00  0.00     0.024 A 
HETATM   27  C18 UNL     1      25.166   4.640  49.982  1.00  0.00     0.013 A 
ENDBRANCH  20  21
ENDBRANCH   6  19
BRANCH   1  28
HETATM   28  O1  UNL     1      28.394   1.095  53.339  1.00  0.00    -0.355 OA
HETATM   29  C1  UNL     1      29.031   2.247  53.826  1.00  0.00     0.210 C 
ENDBRANCH   1  28
TORSDOF 9
ENDMDL
MODEL 3
REMARK VINA RESULT:      -7.3      4.908      8.493
REMARK  9 active torsions:
REMARK  status: ('A' for Active; 'I' for Inactive)
REMARK    1  A    between atoms: O1_2  and  C2_3 
REMARK    2  A    between atoms: C5_6  and  C6_7 
REMARK       I    between atoms: C6_7  and  N1_9 
REMARK    3  A    between atoms: N1_9  and  C7_10 
REMARK    4  A    between atoms: C7_10  and  C8_11 
REMARK    5  A    between atoms: C8_11  and  O3_12 
REMARK    6  A    between atoms: C8_11  and  C9_13 
REMARK    7  A    between atoms: C9_13  and  O4_14 
REMARK    8  A    between atoms: P1_16  and  C11_17 
REMARK    9  A    between atoms: C12_18  and  C13_19 
ROOT
HETATM    1  C2  UNL     1      25.395   0.608  52.589  1.00  0.00     0.071 A 
HETATM    2  C3  UNL     1      26.477   0.706  51.840  1.00  0.00     0.038 A 
HETATM    3  C4  UNL     1      26.782   1.857  51.006  1.00  0.00     0.020 A 
HETATM    4  C5  UNL     1      26.021   2.929  50.897  1.00  0.00     0.033 A 
HETATM    5  C10 UNL     1      24.768   3.067  51.622  1.00  0.00     0.026 A 
HETATM    6  P1  UNL     1      24.201   1.931  52.621  1.00  0.00    -0.053 P 
HETATM    7  H15 UNL     1      24.163   2.428  53.949  1.00  0.00     0.067 HD
ENDROOT
BRANCH   4   8
HETATM    8  C6  UNL     1      26.426   4.026  50.027  1.00  0.00     0.251 C 
HETATM    9  O2  UNL     1      27.237   3.815  49.061  1.00  0.00    -0.268 OA
HETATM   10  N1  UNL     1      26.019   5.368  50.110  1.00  0.00    -0.354 N 
HETATM   11  H6  UNL     1      25.344   5.590  50.901  1.00  0.00     0.162 HD
BRANCH  10  12
HETATM   12  C7  UNL     1      26.385   6.470  49.282  1.00  0.00     0.156 C 
BRANCH  12  13
HETATM   13  C8  UNL     1      26.012   7.769  49.958  1.00  0.00     0.159 C 
BRANCH  13  14
HETATM   14  O3  UNL     1      25.749   7.450  51.304  1.00  0.00    -0.392 OA
HETATM   15  H10 UNL     1      24.977   7.992  51.600  1.00  0.00     0.210 HD
ENDBRANCH  13  14
BRANCH  13  16
HETATM   16  C9  UNL     1      27.183   8.730  49.862  1.00  0.00     0.197 C 
BRANCH  16  17
HETATM   17  O4  UNL     1      27.371   9.275  51.131  1.00  0.00    -0.398 OA
HETATM   18  H13 UNL     1      27.177  10.243  51.043  1.00  0.00     0.209 HD
ENDBRANCH  16  17
ENDBRANCH  13  16
ENDBRANCH  12  13
ENDBRANCH  10  12
ENDBRANCH   4   8
BRANCH   6  19
HETATM   19  C11 UNL     1      22.573   1.390  52.164  1.00  0.00     0.011 C 
HETATM   20  C12 UNL     1      21.743   0.700  52.951  1.00  0.00     0.012 C 
BRANCH  20  21
HETATM   21  C13 UNL     1      20.394   0.227  52.629  1.00  0.00    -0.036 A 
HETATM   22  C14 UNL     1      19.764   0.622  51.459  1.00  0.00     0.013 A 
HETATM   23  C15 UNL     1      18.491   0.121  51.246  1.00  0.00     0.024 A 
HETATM   24  C16 UNL     1      17.835  -0.729  52.117  1.00  0.00     0.034 A 
HETATM   25 CL1  UNL     1      16.230  -1.345  51.825  1.00  0.00    -0.084 Cl
HETATM   26  C17 UNL     1      18.489  -1.106  53.277  1.00  0.00     0.024 A 
HETATM   27  C18 UNL     1      19.771  -0.621  53.523  1.00  0.00     0.013 A 
ENDBRANCH  20  21
ENDBRANCH   6  19
BRANCH   1  28
HETATM   28  O1  UNL     1      24.929  -0.363  53.428  1.00  0.00    -0.355 OA
HETATM   29  C1  UNL     1      25.284  -0.557  54.771  1.00  0.00     0.210 C 
ENDBRANCH   1  28
TORSDOF 9
ENDMDL
MODEL 4
REMARK VINA RESULT:      -7.3      4.070      7.199
REMARK  9 active torsions:
REMARK  status: ('A' for Active; 'I' for Inactive)
REMARK    1  A    between atoms: O1_2  and  C2_3 
REMARK    2  A    between atoms: C5_6  and  C6_7 
REMARK       I    between atoms: C6_7  and  N1_9 
REMARK    3  A    between atoms: N1_9  and  C7_10 
REMARK    4  A    between atoms: C7_10  and  C8_11 
REMARK    5  A    between atoms: C8_11  and  O3_12 
REMARK    6  A    between atoms: C8_11  and  C9_13 
REMARK    7  A    between atoms: C9_13  and  O4_14 
REMARK    8  A    between atoms: P1_16  and  C11_17 
REMARK    9  A    between atoms: C12_18  and  C13_19 
ROOT
HETATM    1  C2  UNL     1      23.519   4.253  51.249  1.00  0.00     0.071 A 
HETATM    2  C3  UNL     1      23.293   5.471  51.704  1.00  0.00     0.038 A 
HETATM    3  C4  UNL     1      24.063   6.638  51.307  1.00  0.00     0.020 A 
HETATM    4  C5  UNL     1      25.068   6.621  50.453  1.00  0.00     0.033 A 
HETATM    5  C10 UNL     1      25.518   5.397  49.810  1.00  0.00     0.026 A 
HETATM    6  P1  UNL     1      24.829   3.960  50.076  1.00  0.00    -0.053 P 
HETATM    7  H15 UNL     1      24.225   3.483  48.885  1.00  0.00     0.067 HD
ENDROOT
BRANCH   4   8
HETATM    8  C6  UNL     1      25.771   7.855  50.128  1.00  0.00     0.251 C 
HETATM    9  O2  UNL     1      25.114   8.907  49.814  1.00  0.00    -0.268 OA
HETATM   10  N1  UNL     1      27.161   8.061  50.113  1.00  0.00    -0.354 N 
HETATM   11  H6  UNL     1      27.749   7.212  50.367  1.00  0.00     0.162 HD
BRANCH  10  12
HETATM   12  C7  UNL     1      27.890   9.248  49.805  1.00  0.00     0.156 C 
BRANCH  12  13
HETATM   13  C8  UNL     1      29.082   8.911  48.939  1.00  0.00     0.159 C 
BRANCH  13  14
HETATM   14  O3  UNL     1      30.187   8.824  49.808  1.00  0.00    -0.392 OA
HETATM   15  H10 UNL     1      29.886   9.096  50.711  1.00  0.00     0.210 HD
ENDBRANCH  13  14
BRANCH  13  16
HETATM   16  C9  UNL     1      28.837   7.574  48.262  1.00  0.00     0.197 C 
BRANCH  16  17
HETATM   17  O4  UNL     1      29.465   6.601  49.036  1.00  0.00    -0.398 OA
HETATM   18  H13 UNL     1      28.870   5.809  49.014  1.00  0.00     0.209 HD
ENDBRANCH  16  17
ENDBRANCH  13  16
ENDBRANCH  12  13
ENDBRANCH  10  12
ENDBRANCH   4   8
BRANCH   6  19
HETATM   19  C11 UNL     1      25.998   2.753  50.649  1.00  0.00     0.011 C 
HETATM   20  C12 UNL     1      26.119   2.339  51.914  1.00  0.00     0.012 C 
BRANCH  20  21
HETATM   21  C13 UNL     1      27.062   1.351  52.444  1.00  0.00    -0.036 A 
HETATM   22  C14 UNL     1      26.818  -0.007  52.306  1.00  0.00     0.013 A 
HETATM   23  C15 UNL     1      27.768  -0.860  52.841  1.00  0.00     0.024 A 
HETATM   24  C16 UNL     1      28.916  -0.438  53.486  1.00  0.00     0.034 A 
HETATM   25 CL1  UNL     1      30.098  -1.535  54.151  1.00  0.00    -0.084 Cl
HETATM   26  C17 UNL     1      29.132   0.923  53.608  1.00  0.00     0.024 A 
HETATM   27  C18 UNL     1      28.197   1.810  53.082  1.00  0.00     0.013 A 
ENDBRANCH  20  21
ENDBRANCH   6  19
BRANCH   1  28
HETATM   28  O1  UNL     1      22.927   3.046  51.487  1.00  0.00    -0.355 OA
HETATM   29  C1  UNL     1      22.340   2.194  50.540  1.00  0.00     0.210 C 
ENDBRANCH   1  28
TORSDOF 9
ENDMDL
MODEL 5
REMARK VINA RESULT:      -7.3      5.037      7.503
REMARK  9 active torsions:
REMARK  status: ('A' for Active; 'I' for Inactive)
REMARK    1  A    between atoms: O1_2  and  C2_3 
REMARK    2  A    between atoms: C5_6  and  C6_7 
REMARK       I    between atoms: C6_7  and  N1_9 
REMARK    3  A    between atoms: N1_9  and  C7_10 
REMARK    4  A    between atoms: C7_10  and  C8_11 
REMARK    5  A    between atoms: C8_11  and  O3_12 
REMARK    6  A    between atoms: C8_11  and  C9_13 
REMARK    7  A    between atoms: C9_13  and  O4_14 
REMARK    8  A    between atoms: P1_16  and  C11_17 
REMARK    9  A    between atoms: C12_18  and  C13_19 
ROOT
HETATM    1  C2  UNL     1      22.867   3.581  51.830  1.00  0.00     0.071 A 
HETATM    2  C3  UNL     1      23.692   3.814  52.832  1.00  0.00     0.038 A 
HETATM    3  C4  UNL     1      24.612   2.823  53.368  1.00  0.00     0.020 A 
HETATM    4  C5  UNL     1      24.730   1.588  52.923  1.00  0.00     0.033 A 
HETATM    5  C10 UNL     1      23.927   1.081  51.821  1.00  0.00     0.026 A 
HETATM    6  P1  UNL     1      22.830   1.980  51.047  1.00  0.00    -0.053 P 
HETATM    7  H15 UNL     1      23.221   2.166  49.697  1.00  0.00     0.067 HD
ENDROOT
BRANCH   4   8
HETATM    8  C6  UNL     1      25.688   0.678  53.538  1.00  0.00     0.251 C 
HETATM    9  O2  UNL     1      25.670  -0.568  53.248  1.00  0.00    -0.268 OA
HETATM   10  N1  UNL     1      26.693   1.004  54.464  1.00  0.00    -0.354 N 
HETATM   11  H6  UNL     1      26.744   2.030  54.736  1.00  0.00     0.162 HD
BRANCH  10  12
HETATM   12  C7  UNL     1      27.650   0.150  55.088  1.00  0.00     0.156 C 
BRANCH  12  13
HETATM   13  C8  UNL     1      28.947   0.176  54.310  1.00  0.00     0.159 C 
BRANCH  13  14
HETATM   14  O3  UNL     1      28.825  -0.808  53.311  1.00  0.00    -0.392 OA
HETATM   15  H10 UNL     1      29.707  -0.908  52.873  1.00  0.00     0.210 HD
ENDBRANCH  13  14
BRANCH  13  16
HETATM   16  C9  UNL     1      29.118   1.547  53.682  1.00  0.00     0.197 C 
BRANCH  16  17
HETATM   17  O4  UNL     1      29.563   2.405  54.686  1.00  0.00    -0.398 OA
HETATM   18  H13 UNL     1      29.606   3.306  54.276  1.00  0.00     0.209 HD
ENDBRANCH  16  17
ENDBRANCH  13  16
ENDBRANCH  12  13
ENDBRANCH  10  12
ENDBRANCH   4   8
BRANCH   6  19
HETATM   19  C11 UNL     1      21.216   1.242  51.080  1.00  0.00     0.011 C 
HETATM   20  C12 UNL     1      20.685   0.599  52.124  1.00  0.00     0.012 C 
BRANCH  20  21
HETATM   21  C13 UNL     1      19.364  -0.028  52.209  1.00  0.00    -0.036 A 
HETATM   22  C14 UNL     1      19.030  -0.837  53.284  1.00  0.00     0.013 A 
HETATM   23  C15 UNL     1      17.758  -1.382  53.272  1.00  0.00     0.024 A 
HETATM   24  C16 UNL     1      16.830  -1.168  52.270  1.00  0.00     0.034 A 
HETATM   25 CL1  UNL     1      15.233  -1.869  52.279  1.00  0.00    -0.084 Cl
HETATM   26  C17 UNL     1      17.192  -0.356  51.209  1.00  0.00     0.024 A 
HETATM   27  C18 UNL     1      18.464   0.209  51.189  1.00  0.00     0.013 A 
ENDBRANCH  20  21
ENDBRANCH   6  19
BRANCH   1  28
HETATM   28  O1  UNL     1      21.942   4.354  51.189  1.00  0.00    -0.355 OA
HETATM   29  C1  UNL     1      21.796   5.746  51.284  1.00  0.00     0.210 C 
ENDBRANCH   1  28
TORSDOF 9
ENDMDL
MODEL 6
REMARK VINA RESULT:      -7.2      4.571      7.483
REMARK  9 active torsions:
REMARK  status: ('A' for Active; 'I' for Inactive)
REMARK    1  A    between atoms: O1_2  and  C2_3 
REMARK    2  A    between atoms: C5_6  and  C6_7 
REMARK       I    between atoms: C6_7  and  N1_9 
REMARK    3  A    between atoms: N1_9  and  C7_10 
REMARK    4  A    between atoms: C7_10  and  C8_11 
REMARK    5  A    between atoms: C8_11  and  O3_12 
REMARK    6  A    between atoms: C8_11  and  C9_13 
REMARK    7  A    between atoms: C9_13  and  O4_14 
REMARK    8  A    between atoms: P1_16  and  C11_17 
REMARK    9  A    between atoms: C12_18  and  C13_19 
ROOT
HETATM    1  C2  UNL     1      23.677   6.775  50.444  1.00  0.00     0.071 A 
HETATM    2  C3  UNL     1      24.767   7.518  50.431  1.00  0.00     0.038 A 
HETATM    3  C4  UNL     1      26.043   7.072  49.897  1.00  0.00     0.020 A 
HETATM    4  C5  UNL     1      26.263   5.884  49.369  1.00  0.00     0.033 A 
HETATM    5  C10 UNL     1      25.220   4.875  49.267  1.00  0.00     0.026 A 
HETATM    6  P1  UNL     1      23.709   5.119  49.783  1.00  0.00    -0.053 P 
HETATM    7  H15 UNL     1      22.811   5.090  48.686  1.00  0.00     0.067 HD
ENDROOT
BRANCH   4   8
HETATM    8  C6  UNL     1      27.587   5.542  48.864  1.00  0.00     0.251 C 
HETATM    9  O2  UNL     1      27.876   4.328  48.582  1.00  0.00    -0.268 OA
HETATM   10  N1  UNL     1      28.658   6.422  48.630  1.00  0.00    -0.354 N 
HETATM   11  H6  UNL     1      28.464   7.443  48.852  1.00  0.00     0.162 HD
BRANCH  10  12
HETATM   12  C7  UNL     1      29.965   6.133  48.136  1.00  0.00     0.156 C 
BRANCH  12  13
HETATM   13  C8  UNL     1      30.971   7.070  48.765  1.00  0.00     0.159 C 
BRANCH  13  14
HETATM   14  O3  UNL     1      30.244   7.894  49.645  1.00  0.00    -0.392 OA
HETATM   15  H10 UNL     1      30.240   7.461  50.534  1.00  0.00     0.210 HD
ENDBRANCH  13  14
BRANCH  13  16
HETATM   16  C9  UNL     1      31.994   6.252  49.532  1.00  0.00     0.197 C 
BRANCH  16  17
HETATM   17  O4  UNL     1      31.293   5.483  50.458  1.00  0.00    -0.398 OA
HETATM   18  H13 UNL     1      31.595   4.549  50.322  1.00  0.00     0.209 HD
ENDBRANCH  16  17
ENDBRANCH  13  16
ENDBRANCH  12  13
ENDBRANCH  10  12
ENDBRANCH   4   8
BRANCH   6  19
HETATM   19  C11 UNL     1      23.202   3.902  50.971  1.00  0.00     0.011 C 
HETATM   20  C12 UNL     1      23.686   2.659  51.054  1.00  0.00     0.012 C 
BRANCH  20  21
HETATM   21  C13 UNL     1      23.308   1.615  52.009  1.00  0.00    -0.036 A 
HETATM   22  C14 UNL     1      21.981   1.423  52.362  1.00  0.00     0.013 A 
HETATM   23  C15 UNL     1      21.726   0.411  53.271  1.00  0.00     0.024 A 
HETATM   24  C16 UNL     1      22.701  -0.394  53.830  1.00  0.00     0.034 A 
HETATM   25 CL1  UNL     1      22.352  -1.662  54.976  1.00  0.00    -0.084 Cl
HETATM   26  C17 UNL     1      24.016  -0.179  53.460  1.00  0.00     0.024 A 
HETATM   27  C18 UNL     1      24.309   0.830  52.547  1.00  0.00     0.013 A 
ENDBRANCH  20  21
ENDBRANCH   6  19
BRANCH   1  28
HETATM   28  O1  UNL     1      22.405   6.997  50.888  1.00  0.00    -0.355 OA
HETATM   29  C1  UNL     1      21.254   7.153  50.101  1.00  0.00     0.210 C 
ENDBRANCH   1  28
TORSDOF 9
ENDMDL
MODEL 7
REMARK VINA RESULT:      -6.8      4.669      7.606
REMARK  9 active torsions:
REMARK  status: ('A' for Active; 'I' for Inactive)
REMARK    1  A    between atoms: O1_2  and  C2_3 
REMARK    2  A    between atoms: C5_6  and  C6_7 
REMARK       I    between atoms: C6_7  and  N1_9 
REMARK    3  A    between atoms: N1_9  and  C7_10 
REMARK    4  A    between atoms: C7_10  and  C8_11 
REMARK    5  A    between atoms: C8_11  and  O3_12 
REMARK    6  A    between atoms: C8_11  and  C9_13 
REMARK    7  A    between atoms: C9_13  and  O4_14 
REMARK    8  A    between atoms: P1_16  and  C11_17 
REMARK    9  A    between atoms: C12_18  and  C13_19 
ROOT
HETATM    1  C2  UNL     1      22.438   2.150  50.195  1.00  0.00     0.071 A 
HETATM    2  C3  UNL     1      21.494   1.361  49.718  1.00  0.00     0.038 A 
HETATM    3  C4  UNL     1      20.561   0.622  50.552  1.00  0.00     0.020 A 
HETATM    4  C5  UNL     1      20.546   0.650  51.871  1.00  0.00     0.033 A 
HETATM    5  C10 UNL     1      21.490   1.445  52.640  1.00  0.00     0.026 A 
HETATM    6  P1  UNL     1      22.630   2.362  51.955  1.00  0.00    -0.053 P 
HETATM    7  H15 UNL     1      22.389   3.730  52.240  1.00  0.00     0.067 HD
ENDROOT
BRANCH   4   8
HETATM    8  C6  UNL     1      19.563  -0.134  52.607  1.00  0.00     0.251 C 
HETATM    9  O2  UNL     1      19.870  -0.661  53.731  1.00  0.00    -0.268 OA
HETATM   10  N1  UNL     1      18.238  -0.407  52.225  1.00  0.00    -0.354 N 
HETATM   11  H6  UNL     1      17.938   0.011  51.295  1.00  0.00     0.162 HD
BRANCH  10  12
HETATM   12  C7  UNL     1      17.243  -1.164  52.913  1.00  0.00     0.156 C 
BRANCH  12  13
HETATM   13  C8  UNL     1      15.868  -0.776  52.420  1.00  0.00     0.159 C 
BRANCH  13  14
HETATM   14  O3  UNL     1      15.242  -0.107  53.489  1.00  0.00    -0.392 OA
HETATM   15  H10 UNL     1      15.946   0.189  54.118  1.00  0.00     0.210 HD
ENDBRANCH  13  14
BRANCH  13  16
HETATM   16  C9  UNL     1      16.015   0.154  51.229  1.00  0.00     0.197 C 
BRANCH  16  17
HETATM   17  O4  UNL     1      15.953   1.458  51.716  1.00  0.00    -0.398 OA
HETATM   18  H13 UNL     1      16.424   2.021  51.050  1.00  0.00     0.209 HD
ENDBRANCH  16  17
ENDBRANCH  13  16
ENDBRANCH  12  13
ENDBRANCH  10  12
ENDBRANCH   4   8
BRANCH   6  19
HETATM   19  C11 UNL     1      24.259   1.938  52.518  1.00  0.00     0.011 C 
HETATM   20  C12 UNL     1      24.927   0.831  52.179  1.00  0.00     0.012 C 
BRANCH  20  21
HETATM   21  C13 UNL     1      26.267   0.429  52.612  1.00  0.00    -0.036 A 
HETATM   22  C14 UNL     1      27.185   1.372  53.047  1.00  0.00     0.013 A 
HETATM   23  C15 UNL     1      28.424   0.892  53.434  1.00  0.00     0.024 A 
HETATM   24  C16 UNL     1      28.782  -0.443  53.409  1.00  0.00     0.034 A 
HETATM   25 CL1  UNL     1      30.352  -1.022  53.903  1.00  0.00    -0.084 Cl
HETATM   26  C17 UNL     1      27.845  -1.362  52.970  1.00  0.00     0.024 A 
HETATM   27  C18 UNL     1      26.588  -0.914  52.573  1.00  0.00     0.013 A 
ENDBRANCH  20  21
ENDBRANCH   6  19
BRANCH   1  28
HETATM   28  O1  UNL     1      23.398   2.918  49.600  1.00  0.00    -0.355 OA
HETATM   29  C1  UNL     1      23.464   4.319  49.583  1.00  0.00     0.210 C 
ENDBRANCH   1  28
TORSDOF 9
ENDMDL
MODEL 8
REMARK VINA RESULT:      -6.7      1.484      2.018
REMARK  9 active torsions:
REMARK  status: ('A' for Active; 'I' for Inactive)
REMARK    1  A    between atoms: O1_2  and  C2_3 
REMARK    2  A    between atoms: C5_6  and  C6_7 
REMARK       I    between atoms: C6_7  and  N1_9 
REMARK    3  A    between atoms: N1_9  and  C7_10 
REMARK    4  A    between atoms: C7_10  and  C8_11 
REMARK    5  A    between atoms: C8_11  and  O3_12 
REMARK    6  A    between atoms: C8_11  and  C9_13 
REMARK    7  A    between atoms: C9_13  and  O4_14 
REMARK    8  A    between atoms: P1_16  and  C11_17 
REMARK    9  A    between atoms: C12_18  and  C13_19 
ROOT
HETATM    1  C2  UNL     1      22.820   3.337  49.024  1.00  0.00     0.071 A 
HETATM    2  C3  UNL     1      22.280   2.153  49.238  1.00  0.00     0.038 A 
HETATM    3  C4  UNL     1      22.494   1.373  50.446  1.00  0.00     0.020 A 
HETATM    4  C5  UNL     1      23.246   1.750  51.461  1.00  0.00     0.033 A 
HETATM    5  C10 UNL     1      23.956   3.020  51.471  1.00  0.00     0.026 A 
HETATM    6  P1  UNL     1      23.883   4.076  50.250  1.00  0.00    -0.053 P 
HETATM    7  H15 UNL     1      23.257   5.273  50.680  1.00  0.00     0.067 HD
ENDROOT
BRANCH   4   8
HETATM    8  C6  UNL     1      23.390   0.885  52.625  1.00  0.00     0.251 C 
HETATM    9  O2  UNL     1      22.417   0.739  53.443  1.00  0.00    -0.268 OA
HETATM   10  N1  UNL     1      24.524   0.140  52.993  1.00  0.00    -0.354 N 
HETATM   11  H6  UNL     1      25.358   0.232  52.341  1.00  0.00     0.162 HD
BRANCH  10  12
HETATM   12  C7  UNL     1      24.707  -0.719  54.117  1.00  0.00     0.156 C 
BRANCH  12  13
HETATM   13  C8  UNL     1      25.720  -0.118  55.064  1.00  0.00     0.159 C 
BRANCH  13  14
HETATM   14  O3  UNL     1      25.766  -0.972  56.183  1.00  0.00    -0.392 OA
HETATM   15  H10 UNL     1      26.667  -0.899  56.584  1.00  0.00     0.210 HD
ENDBRANCH  13  14
BRANCH  13  16
HETATM   16  C9  UNL     1      27.073  -0.076  54.377  1.00  0.00     0.197 C 
BRANCH  16  17
HETATM   17  O4  UNL     1      27.186  -1.240  53.620  1.00  0.00    -0.398 OA
HETATM   18  H13 UNL     1      26.884  -1.002  52.707  1.00  0.00     0.209 HD
ENDBRANCH  16  17
ENDBRANCH  13  16
ENDBRANCH  12  13
ENDBRANCH  10  12
ENDBRANCH   4   8
BRANCH   6  19
HETATM   19  C11 UNL     1      25.491   4.469  49.609  1.00  0.00     0.011 C 
HETATM   20  C12 UNL     1      25.825   5.622  49.022  1.00  0.00     0.012 C 
BRANCH  20  21
HETATM   21  C13 UNL     1      27.130   6.001  48.475  1.00  0.00    -0.036 A 
HETATM   22  C14 UNL     1      28.214   5.141  48.566  1.00  0.00     0.013 A 
HETATM   23  C15 UNL     1      29.403   5.591  48.019  1.00  0.00     0.024 A 
HETATM   24  C16 UNL     1      29.560   6.820  47.404  1.00  0.00     0.034 A 
HETATM   25 CL1  UNL     1      31.071   7.362  46.724  1.00  0.00    -0.084 Cl
HETATM   26  C17 UNL     1      28.461   7.656  47.329  1.00  0.00     0.024 A 
HETATM   27  C18 UNL     1      27.248   7.236  47.868  1.00  0.00     0.013 A 
ENDBRANCH  20  21
ENDBRANCH   6  19
BRANCH   1  28
HETATM   28  O1  UNL     1      22.750   4.217  47.982  1.00  0.00    -0.355 OA
HETATM   29  C1  UNL     1      22.143   5.482  47.988  1.00  0.00     0.210 C 
ENDBRANCH   1  28
TORSDOF 9
ENDMDL
MODEL 9
REMARK VINA RESULT:      -6.7      5.496      8.510
REMARK  9 active torsions:
REMARK  status: ('A' for Active; 'I' for Inactive)
REMARK    1  A    between atoms: O1_2  and  C2_3 
REMARK    2  A    between atoms: C5_6  and  C6_7 
REMARK       I    between atoms: C6_7  and  N1_9 
REMARK    3  A    between atoms: N1_9  and  C7_10 
REMARK    4  A    between atoms: C7_10  and  C8_11 
REMARK    5  A    between atoms: C8_11  and  O3_12 
REMARK    6  A    between atoms: C8_11  and  C9_13 
REMARK    7  A    between atoms: C9_13  and  O4_14 
REMARK    8  A    between atoms: P1_16  and  C11_17 
REMARK    9  A    between atoms: C12_18  and  C13_19 
ROOT
HETATM    1  C2  UNL     1      29.197   8.856  48.843  1.00  0.00     0.071 A 
HETATM    2  C3  UNL     1      30.313   9.357  49.335  1.00  0.00     0.038 A 
HETATM    3  C4  UNL     1      31.622   8.749  49.153  1.00  0.00     0.020 A 
HETATM    4  C5  UNL     1      31.847   7.636  48.482  1.00  0.00     0.033 A 
HETATM    5  C10 UNL     1      30.777   6.887  47.841  1.00  0.00     0.026 A 
HETATM    6  P1  UNL     1      29.230   7.350  47.890  1.00  0.00    -0.053 P 
HETATM    7  H15 UNL     1      28.778   7.670  46.585  1.00  0.00     0.067 HD
ENDROOT
BRANCH   4   8
HETATM    8  C6  UNL     1      33.203   7.116  48.364  1.00  0.00     0.251 C 
HETATM    9  O2  UNL     1      34.202   7.916  48.374  1.00  0.00    -0.268 OA
HETATM   10  N1  UNL     1      33.587   5.771  48.234  1.00  0.00    -0.354 N 
HETATM   11  H6  UNL     1      32.788   5.070  48.220  1.00  0.00     0.162 HD
BRANCH  10  12
HETATM   12  C7  UNL     1      34.897   5.219  48.120  1.00  0.00     0.156 C 
BRANCH  12  13
HETATM   13  C8  UNL     1      34.808   3.746  47.792  1.00  0.00     0.159 C 
BRANCH  13  14
HETATM   14  O3  UNL     1      35.106   3.059  48.985  1.00  0.00    -0.392 OA
HETATM   15  H10 UNL     1      35.663   3.654  49.547  1.00  0.00     0.210 HD
ENDBRANCH  13  14
BRANCH  13  16
HETATM   16  C9  UNL     1      33.395   3.426  47.338  1.00  0.00     0.197 C 
BRANCH  16  17
HETATM   17  O4  UNL     1      32.694   2.986  48.459  1.00  0.00    -0.398 OA
HETATM   18  H13 UNL     1      32.094   2.265  48.140  1.00  0.00     0.209 HD
ENDBRANCH  16  17
ENDBRANCH  13  16
ENDBRANCH  12  13
ENDBRANCH  10  12
ENDBRANCH   4   8
BRANCH   6  19
HETATM   19  C11 UNL     1      28.177   6.092  48.568  1.00  0.00     0.011 C 
HETATM   20  C12 UNL     1      26.843   6.080  48.488  1.00  0.00     0.012 C 
BRANCH  20  21
HETATM   21  C13 UNL     1      25.925   5.073  49.027  1.00  0.00    -0.036 A 
HETATM   22  C14 UNL     1      24.552   5.231  48.913  1.00  0.00     0.013 A 
HETATM   23  C15 UNL     1      23.771   4.225  49.454  1.00  0.00     0.024 A 
HETATM   24  C16 UNL     1      24.275   3.103  50.085  1.00  0.00     0.034 A 
HETATM   25 CL1  UNL     1      23.266   1.850  50.759  1.00  0.00    -0.084 Cl
HETATM   26  C17 UNL     1      25.649   2.973  50.183  1.00  0.00     0.024 A 
HETATM   27  C18 UNL     1      26.466   3.966  49.650  1.00  0.00     0.013 A 
ENDBRANCH  20  21
ENDBRANCH   6  19
BRANCH   1  28
HETATM   28  O1  UNL     1      27.894   9.259  48.896  1.00  0.00    -0.355 OA
HETATM   29  C1  UNL     1      27.103   9.403  50.046  1.00  0.00     0.210 C 
ENDBRANCH   1  28
TORSDOF 9
ENDMDL
