MODEL 1
REMARK VINA RESULT:      -6.8      0.000      0.000
REMARK  6 active torsions:
REMARK  status: ('A' for Active; 'I' for Inactive)
REMARK    1  A    between atoms: C2_2  and  C3_3 
REMARK    2  A    between atoms: C6_6  and  C7_7 
REMARK    3  A    between atoms: C7_7  and  O1_8 
REMARK    4  A    between atoms: C10_12  and  C11_13 
REMARK    5  A    between atoms: C11_13  and  O3_14 
REMARK    6  A    between atoms: C19_25  and  O4_26 
ROOT
HETATM    1  C3  UNL     1      23.290  -0.813  54.388  1.00  0.00    -0.061 C 
HETATM    2  C4  UNL     1      24.172  -0.416  53.514  1.00  0.00    -0.017 C 
HETATM    3  C5  UNL     1      25.375  -0.139  52.740  1.00  0.00     0.062 C 
HETATM    4  C6  UNL     1      25.694   1.302  52.501  1.00  0.00     0.154 C 
HETATM    5  O2  UNL     1      24.917   1.926  51.520  1.00  0.00    -0.355 OA
HETATM    6  C9  UNL     1      24.828   3.273  51.326  1.00  0.00     0.144 C 
HETATM    7  C10 UNL     1      23.925   4.214  51.195  1.00  0.00    -0.012 C 
HETATM    8  C13 UNL     1      22.497   4.061  51.190  1.00  0.00     0.021 C 
HETATM    9  C14 UNL     1      21.791   2.965  51.299  1.00  0.00    -0.016 A 
HETATM   10  N1  UNL     1      21.779   1.588  51.442  1.00  0.00     0.000 N 
HETATM   11  C15 UNL     1      22.157   0.733  50.544  1.00  0.00     0.094 A 
HETATM   12  N2  UNL     1      20.910   0.408  51.214  1.00  0.00    -0.183 NA
HETATM   13  C16 UNL     1      20.396   1.154  52.124  1.00  0.00     0.178 A 
HETATM   14  N3  UNL     1      20.053   0.487  53.329  1.00  0.00    -0.370 N 
HETATM   15  C17 UNL     1      20.807  -0.247  54.239  1.00  0.00     0.085 C 
HETATM   16  C18 UNL     1      21.903  -0.759  54.710  1.00  0.00     0.023 C 
HETATM   17  C19 UNL     1      20.372   2.490  51.481  1.00  0.00     0.203 A 
HETATM   18  H23 UNL     1      19.110   0.812  53.147  1.00  0.00     0.161 HD
ENDROOT
BRANCH   4  19
HETATM   19  C7  UNL     1      25.816   2.036  53.795  1.00  0.00     0.199 C 
BRANCH  19  20
HETATM   20  O1  UNL     1      27.077   1.858  54.391  1.00  0.00    -0.393 OA
HETATM   21  C8  UNL     1      28.018   2.300  53.479  1.00  0.00     0.201 C 
ENDBRANCH  19  20
ENDBRANCH   4  19
BRANCH   1  22
HETATM   22  C2  UNL     1      24.147  -1.554  55.321  1.00  0.00     0.034 C 
HETATM   23  C1  UNL     1      24.925  -0.610  56.238  1.00  0.00     0.010 C 
ENDBRANCH   1  22
BRANCH   7  24
HETATM   24  C11 UNL     1      24.129   5.667  50.988  1.00  0.00     0.207 C 
BRANCH  24  25
HETATM   25  O3  UNL     1      25.275   5.925  50.262  1.00  0.00    -0.391 OA
HETATM   26  C12 UNL     1      25.543   7.293  50.249  1.00  0.00     0.201 C 
ENDBRANCH  24  25
ENDBRANCH   7  24
BRANCH  17  27
HETATM   27  O4  UNL     1      19.686   3.417  52.300  1.00  0.00    -0.382 OA
HETATM   28  C20 UNL     1      18.443   3.720  51.769  1.00  0.00     0.202 C 
ENDBRANCH  17  27
TORSDOF 6
ENDMDL
MODEL 2
REMARK VINA RESULT:      -6.7      1.634      2.069
REMARK  6 active torsions:
REMARK  status: ('A' for Active; 'I' for Inactive)
REMARK    1  A    between atoms: C2_2  and  C3_3 
REMARK    2  A    between atoms: C6_6  and  C7_7 
REMARK    3  A    between atoms: C7_7  and  O1_8 
REMARK    4  A    between atoms: C10_12  and  C11_13 
REMARK    5  A    between atoms: C11_13  and  O3_14 
REMARK    6  A    between atoms: C19_25  and  O4_26 
ROOT
HETATM    1  C3  UNL     1      22.026   0.474  53.464  1.00  0.00    -0.061 C 
HETATM    2  C4  UNL     1      23.159   0.460  52.818  1.00  0.00    -0.017 C 
HETATM    3  C5  UNL     1      24.524   0.249  52.356  1.00  0.00     0.062 C 
HETATM    4  C6  UNL     1      25.343   1.477  52.119  1.00  0.00     0.154 C 
HETATM    5  O2  UNL     1      25.049   2.165  50.937  1.00  0.00    -0.355 OA
HETATM    6  C9  UNL     1      25.451   3.436  50.645  1.00  0.00     0.144 C 
HETATM    7  C10 UNL     1      24.958   4.579  50.235  1.00  0.00    -0.012 C 
HETATM    8  C13 UNL     1      23.598   4.867  49.879  1.00  0.00     0.021 C 
HETATM    9  C14 UNL     1      22.565   4.063  49.873  1.00  0.00    -0.016 A 
HETATM   10  N1  UNL     1      22.071   2.789  50.092  1.00  0.00     0.000 N 
HETATM   11  C15 UNL     1      22.335   1.743  49.372  1.00  0.00     0.094 A 
HETATM   12  N2  UNL     1      20.935   1.909  49.725  1.00  0.00    -0.183 NA
HETATM   13  C16 UNL     1      20.509   2.894  50.428  1.00  0.00     0.178 A 
HETATM   14  N3  UNL     1      19.710   2.536  51.546  1.00  0.00    -0.370 N 
HETATM   15  C17 UNL     1      19.963   1.741  52.660  1.00  0.00     0.085 C 
HETATM   16  C18 UNL     1      20.699   0.991  53.422  1.00  0.00     0.023 C 
HETATM   17  C19 UNL     1      21.065   4.072  49.720  1.00  0.00     0.203 A 
HETATM   18  H23 UNL     1      18.990   3.103  51.113  1.00  0.00     0.161 HD
ENDROOT
BRANCH   4  19
HETATM   19  C7  UNL     1      25.412   2.312  53.355  1.00  0.00     0.199 C 
BRANCH  19  20
HETATM   20  O1  UNL     1      26.485   1.944  54.185  1.00  0.00    -0.393 OA
HETATM   21  C8  UNL     1      27.641   2.110  53.445  1.00  0.00     0.201 C 
ENDBRANCH  19  20
ENDBRANCH   4  19
BRANCH   1  22
HETATM   22  C2  UNL     1      22.366  -0.355  54.626  1.00  0.00     0.034 C 
HETATM   23  C1  UNL     1      21.636  -1.697  54.589  1.00  0.00     0.010 C 
ENDBRANCH   1  22
BRANCH   7  24
HETATM   24  C11 UNL     1      25.668   5.858  49.997  1.00  0.00     0.207 C 
BRANCH  24  25
HETATM   25  O3  UNL     1      26.094   5.972  48.689  1.00  0.00    -0.391 OA
HETATM   26  C12 UNL     1      27.435   5.607  48.583  1.00  0.00     0.201 C 
ENDBRANCH  24  25
ENDBRANCH   7  24
BRANCH  17  27
HETATM   27  O4  UNL     1      20.560   5.267  50.282  1.00  0.00    -0.382 OA
HETATM   28  C20 UNL     1      19.393   5.657  49.646  1.00  0.00     0.202 C 
ENDBRANCH  17  27
TORSDOF 6
ENDMDL
MODEL 3
REMARK VINA RESULT:      -6.5      2.414      5.611
REMARK  6 active torsions:
REMARK  status: ('A' for Active; 'I' for Inactive)
REMARK    1  A    between atoms: C2_2  and  C3_3 
REMARK    2  A    between atoms: C6_6  and  C7_7 
REMARK    3  A    between atoms: C7_7  and  O1_8 
REMARK    4  A    between atoms: C10_12  and  C11_13 
REMARK    5  A    between atoms: C11_13  and  O3_14 
REMARK    6  A    between atoms: C19_25  and  O4_26 
ROOT
HETATM    1  C3  UNL     1      24.888   3.273  50.115  1.00  0.00    -0.061 C 
HETATM    2  C4  UNL     1      24.726   2.980  51.375  1.00  0.00    -0.017 C 
HETATM    3  C5  UNL     1      24.884   2.623  52.779  1.00  0.00     0.062 C 
HETATM    4  C6  UNL     1      24.139   1.413  53.245  1.00  0.00     0.154 C 
HETATM    5  O2  UNL     1      22.768   1.604  53.446  1.00  0.00    -0.355 OA
HETATM    6  C9  UNL     1      21.848   0.607  53.593  1.00  0.00     0.144 C 
HETATM    7  C10 UNL     1      20.691   0.226  53.110  1.00  0.00    -0.012 C 
HETATM    8  C13 UNL     1      19.894   0.893  52.120  1.00  0.00     0.021 C 
HETATM    9  C14 UNL     1      20.136   2.018  51.496  1.00  0.00    -0.016 A 
HETATM   10  N1  UNL     1      20.982   3.098  51.315  1.00  0.00     0.000 N 
HETATM   11  C15 UNL     1      21.200   4.039  52.180  1.00  0.00     0.094 A 
HETATM   12  N2  UNL     1      20.984   4.496  50.818  1.00  0.00    -0.183 NA
HETATM   13  C16 UNL     1      20.750   3.692  49.846  1.00  0.00     0.178 A 
HETATM   14  N3  UNL     1      21.578   3.866  48.706  1.00  0.00    -0.370 N 
HETATM   15  C17 UNL     1      22.957   3.805  48.534  1.00  0.00     0.085 C 
HETATM   16  C18 UNL     1      24.180   3.616  48.927  1.00  0.00     0.023 C 
HETATM   17  C19 UNL     1      19.629   2.869  50.360  1.00  0.00     0.203 A 
HETATM   18  H23 UNL     1      20.714   4.030  48.201  1.00  0.00     0.161 HD
ENDROOT
BRANCH   4  19
HETATM   19  C7  UNL     1      24.515   0.217  52.434  1.00  0.00     0.199 C 
BRANCH  19  20
HETATM   20  O1  UNL     1      25.624  -0.461  52.969  1.00  0.00    -0.393 OA
HETATM   21  C8  UNL     1      25.326  -0.736  54.291  1.00  0.00     0.201 C 
ENDBRANCH  19  20
ENDBRANCH   4  19
BRANCH   1  22
HETATM   22  C2  UNL     1      26.347   3.169  49.998  1.00  0.00     0.034 C 
HETATM   23  C1  UNL     1      26.921   4.296  49.139  1.00  0.00     0.010 C 
ENDBRANCH   1  22
BRANCH   7  24
HETATM   24  C11 UNL     1      19.885  -0.963  53.475  1.00  0.00     0.207 C 
BRANCH  24  25
HETATM   25  O3  UNL     1      18.575  -0.843  53.052  1.00  0.00    -0.391 OA
HETATM   26  C12 UNL     1      17.825  -1.935  53.486  1.00  0.00     0.201 C 
ENDBRANCH  24  25
ENDBRANCH   7  24
BRANCH  17  27
HETATM   27  O4  UNL     1      19.137   2.018  49.343  1.00  0.00    -0.382 OA
HETATM   28  C20 UNL     1      17.762   2.137  49.222  1.00  0.00     0.202 C 
ENDBRANCH  17  27
TORSDOF 6
ENDMDL
MODEL 4
REMARK VINA RESULT:      -6.5      2.665      5.402
REMARK  6 active torsions:
REMARK  status: ('A' for Active; 'I' for Inactive)
REMARK    1  A    between atoms: C2_2  and  C3_3 
REMARK    2  A    between atoms: C6_6  and  C7_7 
REMARK    3  A    between atoms: C7_7  and  O1_8 
REMARK    4  A    between atoms: C10_12  and  C11_13 
REMARK    5  A    between atoms: C11_13  and  O3_14 
REMARK    6  A    between atoms: C19_25  and  O4_26 
ROOT
HETATM    1  C3  UNL     1      22.634   0.047  53.432  1.00  0.00    -0.061 C 
HETATM    2  C4  UNL     1      21.614   0.826  53.203  1.00  0.00    -0.017 C 
HETATM    3  C5  UNL     1      20.297   1.439  53.087  1.00  0.00     0.062 C 
HETATM    4  C6  UNL     1      19.869   1.838  51.711  1.00  0.00     0.154 C 
HETATM    5  O2  UNL     1      20.459   3.008  51.223  1.00  0.00    -0.355 OA
HETATM    6  C9  UNL     1      20.446   3.412  49.920  1.00  0.00     0.144 C 
HETATM    7  C10 UNL     1      21.268   3.818  48.984  1.00  0.00    -0.012 C 
HETATM    8  C13 UNL     1      22.685   4.019  49.091  1.00  0.00     0.021 C 
HETATM    9  C14 UNL     1      23.459   3.857  50.134  1.00  0.00    -0.016 A 
HETATM   10  N1  UNL     1      23.565   3.514  51.471  1.00  0.00     0.000 N 
HETATM   11  C15 UNL     1      23.107   4.206  52.467  1.00  0.00     0.094 A 
HETATM   12  N2  UNL     1      24.455   3.693  52.645  1.00  0.00    -0.183 NA
HETATM   13  C16 UNL     1      25.055   2.995  51.751  1.00  0.00     0.178 A 
HETATM   14  N3  UNL     1      25.606   1.770  52.212  1.00  0.00    -0.370 N 
HETATM   15  C17 UNL     1      25.035   0.656  52.819  1.00  0.00     0.085 C 
HETATM   16  C18 UNL     1      24.048  -0.047  53.285  1.00  0.00     0.023 C 
HETATM   17  C19 UNL     1      24.913   3.825  50.531  1.00  0.00     0.203 A 
HETATM   18  H23 UNL     1      26.494   2.141  51.890  1.00  0.00     0.161 HD
ENDROOT
BRANCH   4  19
HETATM   19  C7  UNL     1      19.898   0.664  50.789  1.00  0.00     0.199 C 
BRANCH  19  20
HETATM   20  O1  UNL     1      18.730  -0.112  50.879  1.00  0.00    -0.393 OA
HETATM   21  C8  UNL     1      17.769   0.518  50.109  1.00  0.00     0.201 C 
ENDBRANCH  19  20
ENDBRANCH   4  19
BRANCH   1  22
HETATM   22  C2  UNL     1      21.964  -1.105  54.045  1.00  0.00     0.034 C 
HETATM   23  C1  UNL     1      22.648  -1.523  55.347  1.00  0.00     0.010 C 
ENDBRANCH   1  22
BRANCH   7  24
HETATM   24  C11 UNL     1      20.958   4.205  47.587  1.00  0.00     0.207 C 
BRANCH  24  25
HETATM   25  O3  UNL     1      21.656   3.438  46.675  1.00  0.00    -0.391 OA
HETATM   26  C12 UNL     1      21.580   4.007  45.405  1.00  0.00     0.201 C 
ENDBRANCH  24  25
ENDBRANCH   7  24
BRANCH  17  27
HETATM   27  O4  UNL     1      25.659   3.267  49.467  1.00  0.00    -0.382 OA
HETATM   28  C20 UNL     1      26.856   3.944  49.296  1.00  0.00     0.202 C 
ENDBRANCH  17  27
TORSDOF 6
ENDMDL
MODEL 5
REMARK VINA RESULT:      -6.3      2.891      5.734
REMARK  6 active torsions:
REMARK  status: ('A' for Active; 'I' for Inactive)
REMARK    1  A    between atoms: C2_2  and  C3_3 
REMARK    2  A    between atoms: C6_6  and  C7_7 
REMARK    3  A    between atoms: C7_7  and  O1_8 
REMARK    4  A    between atoms: C10_12  and  C11_13 
REMARK    5  A    between atoms: C11_13  and  O3_14 
REMARK    6  A    between atoms: C19_25  and  O4_26 
ROOT
HETATM    1  C3  UNL     1      26.028   2.325  51.201  1.00  0.00    -0.061 C 
HETATM    2  C4  UNL     1      25.093   2.356  52.110  1.00  0.00    -0.017 C 
HETATM    3  C5  UNL     1      24.201   2.105  53.234  1.00  0.00     0.062 C 
HETATM    4  C6  UNL     1      22.747   1.973  52.911  1.00  0.00     0.154 C 
HETATM    5  O2  UNL     1      22.086   3.179  52.653  1.00  0.00    -0.355 OA
HETATM    6  C9  UNL     1      20.857   3.294  52.073  1.00  0.00     0.144 C 
HETATM    7  C10 UNL     1      20.260   3.933  51.097  1.00  0.00    -0.012 C 
HETATM    8  C13 UNL     1      20.833   4.903  50.207  1.00  0.00     0.021 C 
HETATM    9  C14 UNL     1      22.057   5.367  50.181  1.00  0.00    -0.016 A 
HETATM   10  N1  UNL     1      23.325   5.359  50.736  1.00  0.00     0.000 N 
HETATM   11  C15 UNL     1      23.641   5.827  51.903  1.00  0.00     0.094 A 
HETATM   12  N2  UNL     1      24.552   6.187  50.830  1.00  0.00    -0.183 NA
HETATM   13  C16 UNL     1      24.378   5.809  49.616  1.00  0.00     0.178 A 
HETATM   14  N3  UNL     1      25.503   5.191  49.009  1.00  0.00    -0.370 N 
HETATM   15  C17 UNL     1      26.243   4.061  49.343  1.00  0.00     0.085 C 
HETATM   16  C18 UNL     1      26.524   3.012  50.056  1.00  0.00     0.023 C 
HETATM   17  C19 UNL     1      22.978   6.214  49.340  1.00  0.00     0.203 A 
HETATM   18  H23 UNL     1      25.443   5.936  48.324  1.00  0.00     0.161 HD
ENDROOT
BRANCH   4  19
HETATM   19  C7  UNL     1      22.525   0.886  51.913  1.00  0.00     0.199 C 
BRANCH  19  20
HETATM   20  O1  UNL     1      22.303  -0.360  52.524  1.00  0.00    -0.393 OA
HETATM   21  C8  UNL     1      21.199  -0.215  53.343  1.00  0.00     0.201 C 
ENDBRANCH  19  20
ENDBRANCH   4  19
BRANCH   1  22
HETATM   22  C2  UNL     1      26.750   1.110  51.596  1.00  0.00     0.034 C 
HETATM   23  C1  UNL     1      27.731   1.387  52.735  1.00  0.00     0.010 C 
ENDBRANCH   1  22
BRANCH   7  24
HETATM   24  C11 UNL     1      18.842   3.854  50.673  1.00  0.00     0.207 C 
BRANCH  24  25
HETATM   25  O3  UNL     1      17.988   3.759  51.755  1.00  0.00    -0.391 OA
HETATM   26  C12 UNL     1      16.715   4.207  51.408  1.00  0.00     0.201 C 
ENDBRANCH  24  25
ENDBRANCH   7  24
BRANCH  17  27
HETATM   27  O4  UNL     1      22.666   6.005  47.977  1.00  0.00    -0.382 OA
HETATM   28  C20 UNL     1      22.968   7.128  47.224  1.00  0.00     0.202 C 
ENDBRANCH  17  27
TORSDOF 6
ENDMDL
MODEL 6
REMARK VINA RESULT:      -6.1      2.558      7.396
REMARK  6 active torsions:
REMARK  status: ('A' for Active; 'I' for Inactive)
REMARK    1  A    between atoms: C2_2  and  C3_3 
REMARK    2  A    between atoms: C6_6  and  C7_7 
REMARK    3  A    between atoms: C7_7  and  O1_8 
REMARK    4  A    between atoms: C10_12  and  C11_13 
REMARK    5  A    between atoms: C11_13  and  O3_14 
REMARK    6  A    between atoms: C19_25  and  O4_26 
ROOT
HETATM    1  C3  UNL     1      21.898   6.610  50.345  1.00  0.00    -0.061 C 
HETATM    2  C4  UNL     1      21.210   5.577  49.944  1.00  0.00    -0.017 C 
HETATM    3  C5  UNL     1      20.183   4.647  49.495  1.00  0.00     0.062 C 
HETATM    4  C6  UNL     1      19.976   3.428  50.337  1.00  0.00     0.154 C 
HETATM    5  O2  UNL     1      20.946   2.433  50.185  1.00  0.00    -0.355 OA
HETATM    6  C9  UNL     1      21.129   1.377  51.030  1.00  0.00     0.144 C 
HETATM    7  C10 UNL     1      22.081   0.779  51.704  1.00  0.00    -0.012 C 
HETATM    8  C13 UNL     1      23.477   1.113  51.728  1.00  0.00     0.021 C 
HETATM    9  C14 UNL     1      24.103   2.064  51.083  1.00  0.00    -0.016 A 
HETATM   10  N1  UNL     1      24.027   3.121  50.192  1.00  0.00     0.000 N 
HETATM   11  C15 UNL     1      23.784   3.022  48.923  1.00  0.00     0.094 A 
HETATM   12  N2  UNL     1      24.872   3.921  49.271  1.00  0.00    -0.183 NA
HETATM   13  C16 UNL     1      25.241   4.125  50.482  1.00  0.00     0.178 A 
HETATM   14  N3  UNL     1      25.328   5.490  50.865  1.00  0.00    -0.370 N 
HETATM   15  C17 UNL     1      24.389   6.515  50.891  1.00  0.00     0.085 C 
HETATM   16  C18 UNL     1      23.203   7.023  50.740  1.00  0.00     0.023 C 
HETATM   17  C19 UNL     1      25.442   2.751  51.004  1.00  0.00     0.203 A 
HETATM   18  H23 UNL     1      26.302   5.290  51.065  1.00  0.00     0.161 HD
ENDROOT
BRANCH   4  19
HETATM   19  C7  UNL     1      19.650   3.808  51.743  1.00  0.00     0.199 C 
BRANCH  19  20
HETATM   20  O1  UNL     1      18.266   3.935  51.953  1.00  0.00    -0.393 OA
HETATM   21  C8  UNL     1      17.685   2.760  51.516  1.00  0.00     0.201 C 
ENDBRANCH  19  20
ENDBRANCH   4  19
BRANCH   1  22
HETATM   22  C2  UNL     1      20.853   7.639  50.371  1.00  0.00     0.034 C 
HETATM   23  C1  UNL     1      20.941   8.557  49.152  1.00  0.00     0.010 C 
ENDBRANCH   1  22
BRANCH   7  24
HETATM   24  C11 UNL     1      21.982  -0.407  52.587  1.00  0.00     0.207 C 
BRANCH  24  25
HETATM   25  O3  UNL     1      21.121  -0.188  53.644  1.00  0.00    -0.391 OA
HETATM   26  C12 UNL     1      20.745  -1.399  54.222  1.00  0.00     0.201 C 
ENDBRANCH  24  25
ENDBRANCH   7  24
BRANCH  17  27
HETATM   27  O4  UNL     1      26.005   2.795  52.301  1.00  0.00    -0.382 OA
HETATM   28  C20 UNL     1      27.160   2.032  52.363  1.00  0.00     0.202 C 
ENDBRANCH  17  27
TORSDOF 6
ENDMDL
MODEL 7
REMARK VINA RESULT:      -6.0      8.889     12.791
REMARK  6 active torsions:
REMARK  status: ('A' for Active; 'I' for Inactive)
REMARK    1  A    between atoms: C2_2  and  C3_3 
REMARK    2  A    between atoms: C6_6  and  C7_7 
REMARK    3  A    between atoms: C7_7  and  O1_8 
REMARK    4  A    between atoms: C10_12  and  C11_13 
REMARK    5  A    between atoms: C11_13  and  O3_14 
REMARK    6  A    between atoms: C19_25  and  O4_26 
ROOT
HETATM    1  C3  UNL     1      32.654   4.666  46.354  1.00  0.00    -0.061 C 
HETATM    2  C4  UNL     1      32.252   5.084  47.522  1.00  0.00    -0.017 C 
HETATM    3  C5  UNL     1      31.685   5.233  48.855  1.00  0.00     0.062 C 
HETATM    4  C6  UNL     1      30.669   6.318  49.028  1.00  0.00     0.154 C 
HETATM    5  O2  UNL     1      31.194   7.612  49.105  1.00  0.00    -0.355 OA
HETATM    6  C9  UNL     1      30.471   8.762  48.981  1.00  0.00     0.144 C 
HETATM    7  C10 UNL     1      30.482   9.892  48.316  1.00  0.00    -0.012 C 
HETATM    8  C13 UNL     1      31.463  10.339  47.368  1.00  0.00     0.021 C 
HETATM    9  C14 UNL     1      32.554   9.733  46.971  1.00  0.00    -0.016 A 
HETATM   10  N1  UNL     1      33.381   8.628  47.067  1.00  0.00     0.000 N 
HETATM   11  C15 UNL     1      34.106   8.315  48.095  1.00  0.00     0.094 A 
HETATM   12  N2  UNL     1      34.779   8.202  46.812  1.00  0.00    -0.183 NA
HETATM   13  C16 UNL     1      34.202   8.480  45.700  1.00  0.00     0.178 A 
HETATM   14  N3  UNL     1      34.295   7.472  44.704  1.00  0.00    -0.370 N 
HETATM   15  C17 UNL     1      33.888   6.142  44.679  1.00  0.00     0.085 C 
HETATM   16  C18 UNL     1      33.328   5.079  45.169  1.00  0.00     0.023 C 
HETATM   17  C19 UNL     1      33.651   9.835  45.942  1.00  0.00     0.203 A 
HETATM   18  H23 UNL     1      34.751   8.182  44.141  1.00  0.00     0.161 HD
ENDROOT
BRANCH   4  19
HETATM   19  C7  UNL     1      29.534   6.133  48.077  1.00  0.00     0.199 C 
BRANCH  19  20
HETATM   20  O1  UNL     1      28.838   4.934  48.305  1.00  0.00    -0.393 OA
HETATM   21  C8  UNL     1      27.535   5.278  48.611  1.00  0.00     0.201 C 
ENDBRANCH  19  20
ENDBRANCH   4  19
BRANCH   1  22
HETATM   22  C2  UNL     1      32.178   3.278  46.384  1.00  0.00     0.034 C 
HETATM   23  C1  UNL     1      33.150   2.369  47.136  1.00  0.00     0.010 C 
ENDBRANCH   1  22
BRANCH   7  24
HETATM   24  C11 UNL     1      29.516  11.014  48.386  1.00  0.00     0.207 C 
BRANCH  24  25
HETATM   25  O3  UNL     1      30.089  12.207  47.989  1.00  0.00    -0.391 OA
HETATM   26  C12 UNL     1      29.172  13.249  48.118  1.00  0.00     0.201 C 
ENDBRANCH  24  25
ENDBRANCH   7  24
BRANCH  17  27
HETATM   27  O4  UNL     1      33.105  10.364  44.750  1.00  0.00    -0.382 OA
HETATM   28  C20 UNL     1      34.051  11.104  44.059  1.00  0.00     0.202 C 
ENDBRANCH  17  27
TORSDOF 6
ENDMDL
MODEL 8
REMARK VINA RESULT:      -5.9      7.973     12.389
REMARK  6 active torsions:
REMARK  status: ('A' for Active; 'I' for Inactive)
REMARK    1  A    between atoms: C2_2  and  C3_3 
REMARK    2  A    between atoms: C6_6  and  C7_7 
REMARK    3  A    between atoms: C7_7  and  O1_8 
REMARK    4  A    between atoms: C10_12  and  C11_13 
REMARK    5  A    between atoms: C11_13  and  O3_14 
REMARK    6  A    between atoms: C19_25  and  O4_26 
ROOT
HETATM    1  C3  UNL     1      33.661   9.659  46.516  1.00  0.00    -0.061 C 
HETATM    2  C4  UNL     1      33.512   8.642  47.319  1.00  0.00    -0.017 C 
HETATM    3  C5  UNL     1      33.639   7.403  48.074  1.00  0.00     0.062 C 
HETATM    4  C6  UNL     1      32.500   6.440  47.968  1.00  0.00     0.154 C 
HETATM    5  O2  UNL     1      31.366   6.780  48.713  1.00  0.00    -0.355 OA
HETATM    6  C9  UNL     1      30.129   6.225  48.561  1.00  0.00     0.144 C 
HETATM    7  C10 UNL     1      28.879   6.581  48.397  1.00  0.00    -0.012 C 
HETATM    8  C13 UNL     1      28.349   7.915  48.350  1.00  0.00     0.021 C 
HETATM    9  C14 UNL     1      28.983   9.053  48.471  1.00  0.00    -0.016 A 
HETATM   10  N1  UNL     1      30.186   9.708  48.673  1.00  0.00     0.000 N 
HETATM   11  C15 UNL     1      30.865   9.714  49.777  1.00  0.00     0.094 A 
HETATM   12  N2  UNL     1      30.733  11.009  49.131  1.00  0.00    -0.183 NA
HETATM   13  C16 UNL     1      30.087  11.173  48.034  1.00  0.00     0.178 A 
HETATM   14  N3  UNL     1      30.796  11.858  47.013  1.00  0.00    -0.370 N 
HETATM   15  C17 UNL     1      31.995  11.585  46.362  1.00  0.00     0.085 C 
HETATM   16  C18 UNL     1      33.054  10.880  46.104  1.00  0.00     0.023 C 
HETATM   17  C19 UNL     1      28.778  10.539  48.323  1.00  0.00     0.203 A 
HETATM   18  H23 UNL     1      30.039  12.532  47.048  1.00  0.00     0.161 HD
ENDROOT
BRANCH   4  19
HETATM   19  C7  UNL     1      32.253   6.071  46.543  1.00  0.00     0.199 C 
BRANCH  19  20
HETATM   20  O1  UNL     1      32.952   4.912  46.164  1.00  0.00    -0.393 OA
HETATM   21  C8  UNL     1      32.330   3.846  46.788  1.00  0.00     0.201 C 
ENDBRANCH  19  20
ENDBRANCH   4  19
BRANCH   1  22
HETATM   22  C2  UNL     1      34.919   9.299  45.852  1.00  0.00     0.034 C 
HETATM   23  C1  UNL     1      34.706   9.008  44.367  1.00  0.00     0.010 C 
ENDBRANCH   1  22
BRANCH   7  24
HETATM   24  C11 UNL     1      27.684   5.717  48.250  1.00  0.00     0.207 C 
BRANCH  24  25
HETATM   25  O3  UNL     1      27.879   4.473  48.817  1.00  0.00    -0.391 OA
HETATM   26  C12 UNL     1      26.698   4.016  49.399  1.00  0.00     0.201 C 
ENDBRANCH  24  25
ENDBRANCH   7  24
BRANCH  17  27
HETATM   27  O4  UNL     1      27.876  10.767  47.257  1.00  0.00    -0.382 OA
HETATM   28  C20 UNL     1      27.114  11.900  47.490  1.00  0.00     0.202 C 
ENDBRANCH  17  27
TORSDOF 6
ENDMDL
MODEL 9
REMARK VINA RESULT:      -5.9      8.139     11.923
REMARK  6 active torsions:
REMARK  status: ('A' for Active; 'I' for Inactive)
REMARK    1  A    between atoms: C2_2  and  C3_3 
REMARK    2  A    between atoms: C6_6  and  C7_7 
REMARK    3  A    between atoms: C7_7  and  O1_8 
REMARK    4  A    between atoms: C10_12  and  C11_13 
REMARK    5  A    between atoms: C11_13  and  O3_14 
REMARK    6  A    between atoms: C19_25  and  O4_26 
ROOT
HETATM    1  C3  UNL     1      27.895   6.916  48.455  1.00  0.00    -0.061 C 
HETATM    2  C4  UNL     1      27.454   7.974  49.076  1.00  0.00    -0.017 C 
HETATM    3  C5  UNL     1      26.683   8.965  49.816  1.00  0.00     0.062 C 
HETATM    4  C6  UNL     1      26.456  10.275  49.132  1.00  0.00     0.154 C 
HETATM    5  O2  UNL     1      27.558  11.137  49.124  1.00  0.00    -0.355 OA
HETATM    6  C9  UNL     1      27.685  12.243  48.336  1.00  0.00     0.144 C 
HETATM    7  C10 UNL     1      28.534  12.794  47.503  1.00  0.00    -0.012 C 
HETATM    8  C13 UNL     1      29.834  12.311  47.132  1.00  0.00     0.021 C 
HETATM    9  C14 UNL     1      30.457  11.237  47.546  1.00  0.00    -0.016 A 
HETATM   10  N1  UNL     1      30.443  10.113  48.354  1.00  0.00     0.000 N 
HETATM   11  C15 UNL     1      30.503  10.114  49.649  1.00  0.00     0.094 A 
HETATM   12  N2  UNL     1      31.359   9.138  48.995  1.00  0.00    -0.183 NA
HETATM   13  C16 UNL     1      31.421   9.014  47.720  1.00  0.00     0.178 A 
HETATM   14  N3  UNL     1      31.241   7.692  47.233  1.00  0.00    -0.370 N 
HETATM   15  C17 UNL     1      30.193   6.785  47.355  1.00  0.00     0.085 C 
HETATM   16  C18 UNL     1      29.015   6.401  47.741  1.00  0.00     0.023 C 
HETATM   17  C19 UNL     1      31.679  10.401  47.264  1.00  0.00     0.203 A 
HETATM   18  H23 UNL     1      32.164   7.801  46.827  1.00  0.00     0.161 HD
ENDROOT
BRANCH   4  19
HETATM   19  C7  UNL     1      25.780  10.074  47.817  1.00  0.00     0.199 C 
BRANCH  19  20
HETATM   20  O1  UNL     1      24.453   9.635  47.963  1.00  0.00    -0.393 OA
HETATM   21  C8  UNL     1      24.188   8.796  46.896  1.00  0.00     0.201 C 
ENDBRANCH  19  20
ENDBRANCH   4  19
BRANCH   1  22
HETATM   22  C2  UNL     1      26.744   6.017  48.601  1.00  0.00     0.034 C 
HETATM   23  C1  UNL     1      27.187   4.587  48.912  1.00  0.00     0.010 C 
ENDBRANCH   1  22
BRANCH   7  24
HETATM   24  C11 UNL     1      28.398  14.065  46.752  1.00  0.00     0.207 C 
BRANCH  24  25
HETATM   25  O3  UNL     1      29.301  15.015  47.187  1.00  0.00    -0.391 OA
HETATM   26  C12 UNL     1      29.384  16.060  46.268  1.00  0.00     0.201 C 
ENDBRANCH  24  25
ENDBRANCH   7  24
BRANCH  17  27
HETATM   27  O4  UNL     1      31.929  10.422  45.872  1.00  0.00    -0.382 OA
HETATM   28  C20 UNL     1      33.290  10.385  45.615  1.00  0.00     0.202 C 
ENDBRANCH  17  27
TORSDOF 6
ENDMDL
