MODEL 1
REMARK VINA RESULT:      -8.1      0.000      0.000
REMARK  8 active torsions:
REMARK  status: ('A' for Active; 'I' for Inactive)
REMARK    1  A    between atoms: N1_1  and  C1_2 
REMARK    2  A    between atoms: C1_2  and  N2_3 
REMARK    3  A    between atoms: C4_6  and  C5_7 
REMARK    4  A    between atoms: C5_7  and  O2_9 
REMARK    5  A    between atoms: C8_12  and  O3_13 
REMARK    6  A    between atoms: O3_13  and  C9_14 
REMARK    7  A    between atoms: C12_19  and  N5_20 
REMARK    8  A    between atoms: N5_20  and  C13_21 
ROOT
HETATM    1  O3  UNL     1      23.758   3.537  52.396  1.00  0.00    -0.300 OA
ENDROOT
BRANCH   1   2
HETATM    2  C8  UNL     1      23.850   2.225  52.828  1.00  0.00     0.174 C 
HETATM    3  C7  UNL     1      24.917   1.572  53.268  1.00  0.00     0.059 A 
HETATM    4  N2  UNL     1      24.709   0.230  53.643  1.00  0.00    -0.339 N 
HETATM    5  C6  UNL     1      26.219   2.196  53.364  1.00  0.00     0.050 A 
HETATM    6  C2  UNL     1      25.880  -0.460  54.120  1.00  0.00     0.094 A 
HETATM    7  C3  UNL     1      27.070   0.155  54.194  1.00  0.00     0.035 A 
HETATM    8  C4  UNL     1      27.275   1.553  53.801  1.00  0.00     0.041 A 
BRANCH   4   9
HETATM    9  C1  UNL     1      23.523  -0.590  53.638  1.00  0.00     0.243 C 
BRANCH   9  10
HETATM   10  N1  UNL     1      23.182  -1.104  54.910  1.00  0.00    -0.415 N 
HETATM   11  H1  UNL     1      23.450  -0.602  55.739  1.00  0.00     0.151 HD
HETATM   12  H2  UNL     1      22.812  -2.044  55.001  1.00  0.00     0.151 HD
ENDBRANCH   9  10
ENDBRANCH   4   9
BRANCH   8  13
HETATM   13  C5  UNL     1      28.586   2.175  53.894  1.00  0.00     0.176 C 
HETATM   14  O1  UNL     1      29.358   1.942  54.884  1.00  0.00    -0.646 OA
BRANCH  13  15
HETATM   15  O2  UNL     1      29.013   3.038  52.896  1.00  0.00    -0.773 OA
HETATM   16  H7  UNL     1      28.398   3.218  52.123  1.00  0.00     0.167 HD
ENDBRANCH  13  15
ENDBRANCH   8  13
ENDBRANCH   1   2
BRANCH   1  17
HETATM   17  C9  UNL     1      23.563   3.854  51.062  1.00  0.00     0.201 A 
HETATM   18  N3  UNL     1      22.380   4.030  50.584  1.00  0.00    -0.215 NA
HETATM   19  C10 UNL     1      22.418   4.348  49.197  1.00  0.00     0.236 A 
HETATM   20  N4  UNL     1      23.675   4.367  48.808  1.00  0.00    -0.236 NA
HETATM   21  C11 UNL     1      24.487   4.062  49.935  1.00  0.00     0.126 A 
HETATM   22  C12 UNL     1      25.791   3.955  50.071  1.00  0.00     0.124 C 
BRANCH  22  23
HETATM   23  N5  UNL     1      26.830   4.116  49.122  1.00  0.00    -0.363 N 
HETATM   24  H12 UNL     1      27.336   3.402  48.594  1.00  0.00     0.165 HD
BRANCH  23  25
HETATM   25  C13 UNL     1      27.505   5.250  48.597  1.00  0.00     0.033 A 
HETATM   26  C14 UNL     1      26.653   6.338  48.388  1.00  0.00     0.029 A 
HETATM   27  C15 UNL     1      27.186   7.518  47.863  1.00  0.00     0.004 A 
HETATM   28  C16 UNL     1      28.527   7.554  47.574  1.00  0.00     0.019 A 
HETATM   29  C17 UNL     1      29.360   6.479  47.781  1.00  0.00     0.013 A 
HETATM   30 BR1  UNL     1      31.203   6.546  47.373  1.00  0.00    -0.051 Br
HETATM   31  C18 UNL     1      28.844   5.310  48.299  1.00  0.00     0.048 A 
ENDBRANCH  23  25
ENDBRANCH  22  23
ENDBRANCH   1  17
TORSDOF 8
ENDMDL
MODEL 2
REMARK VINA RESULT:      -8.1      1.101      1.441
REMARK  8 active torsions:
REMARK  status: ('A' for Active; 'I' for Inactive)
REMARK    1  A    between atoms: N1_1  and  C1_2 
REMARK    2  A    between atoms: C1_2  and  N2_3 
REMARK    3  A    between atoms: C4_6  and  C5_7 
REMARK    4  A    between atoms: C5_7  and  O2_9 
REMARK    5  A    between atoms: C8_12  and  O3_13 
REMARK    6  A    between atoms: O3_13  and  C9_14 
REMARK    7  A    between atoms: C12_19  and  N5_20 
REMARK    8  A    between atoms: N5_20  and  C13_21 
ROOT
HETATM    1  O3  UNL     1      23.689   3.484  52.342  1.00  0.00    -0.300 OA
ENDROOT
BRANCH   1   2
HETATM    2  C8  UNL     1      23.798   2.166  52.752  1.00  0.00     0.174 C 
HETATM    3  C7  UNL     1      24.870   1.523  53.193  1.00  0.00     0.059 A 
HETATM    4  N2  UNL     1      24.680   0.171  53.542  1.00  0.00    -0.339 N 
HETATM    5  C6  UNL     1      26.161   2.166  53.315  1.00  0.00     0.050 A 
HETATM    6  C2  UNL     1      25.857  -0.508  54.021  1.00  0.00     0.094 A 
HETATM    7  C3  UNL     1      27.036   0.124  54.119  1.00  0.00     0.035 A 
HETATM    8  C4  UNL     1      27.223   1.532  53.754  1.00  0.00     0.041 A 
BRANCH   4   9
HETATM    9  C1  UNL     1      23.508  -0.668  53.507  1.00  0.00     0.243 C 
BRANCH   9  10
HETATM   10  N1  UNL     1      23.037  -1.037  54.788  1.00  0.00    -0.415 N 
HETATM   11  H1  UNL     1      23.648  -0.966  55.584  1.00  0.00     0.151 HD
HETATM   12  H2  UNL     1      22.149  -1.518  54.889  1.00  0.00     0.151 HD
ENDBRANCH   9  10
ENDBRANCH   4   9
BRANCH   8  13
HETATM   13  C5  UNL     1      28.522   2.174  53.874  1.00  0.00     0.176 C 
HETATM   14  O1  UNL     1      29.286   1.937  54.869  1.00  0.00    -0.646 OA
BRANCH  13  15
HETATM   15  O2  UNL     1      28.947   3.061  52.896  1.00  0.00    -0.773 OA
HETATM   16  H7  UNL     1      29.878   2.960  52.530  1.00  0.00     0.167 HD
ENDBRANCH  13  15
ENDBRANCH   8  13
ENDBRANCH   1   2
BRANCH   1  17
HETATM   17  C9  UNL     1      23.581   3.826  51.005  1.00  0.00     0.201 A 
HETATM   18  N3  UNL     1      22.430   3.946  50.438  1.00  0.00    -0.215 NA
HETATM   19  C10 UNL     1      22.558   4.304  49.067  1.00  0.00     0.236 A 
HETATM   20  N4  UNL     1      23.838   4.407  48.779  1.00  0.00    -0.236 NA
HETATM   21  C11 UNL     1      24.576   4.117  49.960  1.00  0.00     0.126 A 
HETATM   22  C12 UNL     1      25.869   4.082  50.196  1.00  0.00     0.124 C 
BRANCH  22  23
HETATM   23  N5  UNL     1      26.968   4.328  49.337  1.00  0.00    -0.363 N 
HETATM   24  H12 UNL     1      27.703   3.686  49.031  1.00  0.00     0.165 HD
BRANCH  23  25
HETATM   25  C13 UNL     1      27.423   5.479  48.639  1.00  0.00     0.033 A 
HETATM   26  C14 UNL     1      28.782   5.415  48.319  1.00  0.00     0.029 A 
HETATM   27  C15 UNL     1      29.363   6.489  47.640  1.00  0.00     0.004 A 
HETATM   28  C16 UNL     1      28.569   7.561  47.318  1.00  0.00     0.019 A 
HETATM   29  C17 UNL     1      27.232   7.617  47.636  1.00  0.00     0.013 A 
HETATM   30 BR1  UNL     1      26.157   9.103  47.188  1.00  0.00    -0.051 Br
HETATM   31  C18 UNL     1      26.649   6.563  48.306  1.00  0.00     0.048 A 
ENDBRANCH  23  25
ENDBRANCH  22  23
ENDBRANCH   1  17
TORSDOF 8
ENDMDL
MODEL 3
REMARK VINA RESULT:      -7.9      3.562      8.440
REMARK  8 active torsions:
REMARK  status: ('A' for Active; 'I' for Inactive)
REMARK    1  A    between atoms: N1_1  and  C1_2 
REMARK    2  A    between atoms: C1_2  and  N2_3 
REMARK    3  A    between atoms: C4_6  and  C5_7 
REMARK    4  A    between atoms: C5_7  and  O2_9 
REMARK    5  A    between atoms: C8_12  and  O3_13 
REMARK    6  A    between atoms: O3_13  and  C9_14 
REMARK    7  A    between atoms: C12_19  and  N5_20 
REMARK    8  A    between atoms: N5_20  and  C13_21 
ROOT
HETATM    1  O3  UNL     1      26.847   2.399  50.602  1.00  0.00    -0.300 OA
ENDROOT
BRANCH   1   2
HETATM    2  C8  UNL     1      26.447   3.663  50.202  1.00  0.00     0.174 C 
HETATM    3  C7  UNL     1      25.311   4.025  49.623  1.00  0.00     0.059 A 
HETATM    4  N2  UNL     1      25.180   5.397  49.325  1.00  0.00    -0.339 N 
HETATM    5  C6  UNL     1      24.263   3.076  49.315  1.00  0.00     0.050 A 
HETATM    6  C2  UNL     1      23.938   5.770  48.699  1.00  0.00     0.094 A 
HETATM    7  C3  UNL     1      22.990   4.858  48.430  1.00  0.00     0.035 A 
HETATM    8  C4  UNL     1      23.137   3.433  48.744  1.00  0.00     0.041 A 
BRANCH   4   9
HETATM    9  C1  UNL     1      26.072   6.509  49.537  1.00  0.00     0.243 C 
BRANCH   9  10
HETATM   10  N1  UNL     1      25.790   7.247  50.709  1.00  0.00    -0.415 N 
HETATM   11  H1  UNL     1      25.043   7.920  50.707  1.00  0.00     0.151 HD
HETATM   12  H2  UNL     1      26.428   7.221  51.497  1.00  0.00     0.151 HD
ENDBRANCH   9  10
ENDBRANCH   4   9
BRANCH   8  13
HETATM   13  C5  UNL     1      22.084   2.482  48.430  1.00  0.00     0.176 C 
HETATM   14  O1  UNL     1      21.209   2.738  47.536  1.00  0.00    -0.646 OA
BRANCH  13  15
HETATM   15  O2  UNL     1      22.020   1.273  49.107  1.00  0.00    -0.773 OA
HETATM   16  H7  UNL     1      21.165   0.746  49.065  1.00  0.00     0.167 HD
ENDBRANCH  13  15
ENDBRANCH   8  13
ENDBRANCH   1   2
BRANCH   1  17
HETATM   17  C9  UNL     1      27.105   2.102  51.930  1.00  0.00     0.201 A 
HETATM   18  N3  UNL     1      28.184   2.505  52.506  1.00  0.00    -0.215 NA
HETATM   19  C10 UNL     1      28.238   2.086  53.865  1.00  0.00     0.236 A 
HETATM   20  N4  UNL     1      27.150   1.397  54.134  1.00  0.00    -0.236 NA
HETATM   21  C11 UNL     1      26.359   1.351  52.953  1.00  0.00     0.126 A 
HETATM   22  C12 UNL     1      25.197   0.790  52.700  1.00  0.00     0.124 C 
BRANCH  22  23
HETATM   23  N5  UNL     1      24.336   0.039  53.538  1.00  0.00    -0.363 N 
HETATM   24  H12 UNL     1      24.565  -0.505  54.373  1.00  0.00     0.165 HD
BRANCH  23  25
HETATM   25  C13 UNL     1      22.940  -0.220  53.523  1.00  0.00     0.033 A 
HETATM   26  C14 UNL     1      22.544  -1.111  54.526  1.00  0.00     0.029 A 
HETATM   27  C15 UNL     1      21.195  -1.462  54.618  1.00  0.00     0.004 A 
HETATM   28  C16 UNL     1      20.318  -0.914  53.716  1.00  0.00     0.019 A 
HETATM   29  C17 UNL     1      20.714  -0.039  52.732  1.00  0.00     0.013 A 
HETATM   30 BR1  UNL     1      19.492   0.700  51.496  1.00  0.00    -0.051 Br
HETATM   31  C18 UNL     1      22.043   0.314  52.632  1.00  0.00     0.048 A 
ENDBRANCH  23  25
ENDBRANCH  22  23
ENDBRANCH   1  17
TORSDOF 8
ENDMDL
MODEL 4
REMARK VINA RESULT:      -7.8      2.235      3.851
REMARK  8 active torsions:
REMARK  status: ('A' for Active; 'I' for Inactive)
REMARK    1  A    between atoms: N1_1  and  C1_2 
REMARK    2  A    between atoms: C1_2  and  N2_3 
REMARK    3  A    between atoms: C4_6  and  C5_7 
REMARK    4  A    between atoms: C5_7  and  O2_9 
REMARK    5  A    between atoms: C8_12  and  O3_13 
REMARK    6  A    between atoms: O3_13  and  C9_14 
REMARK    7  A    between atoms: C12_19  and  N5_20 
REMARK    8  A    between atoms: N5_20  and  C13_21 
ROOT
HETATM    1  O3  UNL     1      24.178   1.872  51.214  1.00  0.00    -0.300 OA
ENDROOT
BRANCH   1   2
HETATM    2  C8  UNL     1      24.944   1.189  52.143  1.00  0.00     0.174 C 
HETATM    3  C7  UNL     1      24.538   0.411  53.137  1.00  0.00     0.059 A 
HETATM    4  N2  UNL     1      25.554  -0.158  53.931  1.00  0.00    -0.339 N 
HETATM    5  C6  UNL     1      23.138   0.153  53.395  1.00  0.00     0.050 A 
HETATM    6  C2  UNL     1      25.093  -1.001  55.003  1.00  0.00     0.094 A 
HETATM    7  C3  UNL     1      23.784  -1.215  55.209  1.00  0.00     0.035 A 
HETATM    8  C4  UNL     1      22.734  -0.619  54.377  1.00  0.00     0.041 A 
BRANCH   4   9
HETATM    9  C1  UNL     1      26.990  -0.050  53.864  1.00  0.00     0.243 C 
BRANCH   9  10
HETATM   10  N1  UNL     1      27.538   0.833  54.823  1.00  0.00    -0.415 N 
HETATM   11  H1  UNL     1      28.326   1.409  54.578  1.00  0.00     0.151 HD
HETATM   12  H2  UNL     1      27.250   0.780  55.794  1.00  0.00     0.151 HD
ENDBRANCH   9  10
ENDBRANCH   4   9
BRANCH   8  13
HETATM   13  C5  UNL     1      21.329  -0.876  54.642  1.00  0.00     0.176 C 
HETATM   14  O1  UNL     1      20.867  -2.066  54.657  1.00  0.00    -0.646 OA
BRANCH  13  15
HETATM   15  O2  UNL     1      20.466   0.183  54.881  1.00  0.00    -0.773 OA
HETATM   16  H7  UNL     1      20.660   0.793  55.656  1.00  0.00     0.167 HD
ENDBRANCH  13  15
ENDBRANCH   8  13
ENDBRANCH   1   2
BRANCH   1  17
HETATM   17  C9  UNL     1      23.803   3.191  51.404  1.00  0.00     0.201 A 
HETATM   18  N3  UNL     1      22.979   3.523  52.336  1.00  0.00    -0.215 NA
HETATM   19  C10 UNL     1      22.740   4.926  52.347  1.00  0.00     0.236 A 
HETATM   20  N4  UNL     1      23.445   5.477  51.382  1.00  0.00    -0.236 NA
HETATM   21  C11 UNL     1      24.162   4.444  50.718  1.00  0.00     0.126 A 
HETATM   22  C12 UNL     1      24.993   4.471  49.700  1.00  0.00     0.124 C 
BRANCH  22  23
HETATM   23  N5  UNL     1      25.458   5.560  48.921  1.00  0.00    -0.363 N 
HETATM   24  H12 UNL     1      24.921   6.306  48.475  1.00  0.00     0.165 HD
BRANCH  23  25
HETATM   25  C13 UNL     1      26.748   5.979  48.500  1.00  0.00     0.033 A 
HETATM   26  C14 UNL     1      27.706   4.966  48.606  1.00  0.00     0.029 A 
HETATM   27  C15 UNL     1      29.023   5.247  48.235  1.00  0.00     0.004 A 
HETATM   28  C16 UNL     1      29.317   6.509  47.784  1.00  0.00     0.019 A 
HETATM   29  C17 UNL     1      28.369   7.501  47.683  1.00  0.00     0.013 A 
HETATM   30 BR1  UNL     1      28.794   9.234  47.064  1.00  0.00    -0.051 Br
HETATM   31  C18 UNL     1      27.066   7.234  48.046  1.00  0.00     0.048 A 
ENDBRANCH  23  25
ENDBRANCH  22  23
ENDBRANCH   1  17
TORSDOF 8
ENDMDL
MODEL 5
REMARK VINA RESULT:      -7.8      3.689      8.251
REMARK  8 active torsions:
REMARK  status: ('A' for Active; 'I' for Inactive)
REMARK    1  A    between atoms: N1_1  and  C1_2 
REMARK    2  A    between atoms: C1_2  and  N2_3 
REMARK    3  A    between atoms: C4_6  and  C5_7 
REMARK    4  A    between atoms: C5_7  and  O2_9 
REMARK    5  A    between atoms: C8_12  and  O3_13 
REMARK    6  A    between atoms: O3_13  and  C9_14 
REMARK    7  A    between atoms: C12_19  and  N5_20 
REMARK    8  A    between atoms: N5_20  and  C13_21 
ROOT
HETATM    1  O3  UNL     1      26.578   2.381  50.433  1.00  0.00    -0.300 OA
ENDROOT
BRANCH   1   2
HETATM    2  C8  UNL     1      25.825   3.474  50.039  1.00  0.00     0.174 C 
HETATM    3  C7  UNL     1      26.222   4.561  49.392  1.00  0.00     0.059 A 
HETATM    4  N2  UNL     1      25.224   5.518  49.122  1.00  0.00    -0.339 N 
HETATM    5  C6  UNL     1      27.595   4.758  48.980  1.00  0.00     0.050 A 
HETATM    6  C2  UNL     1      25.675   6.690  48.416  1.00  0.00     0.094 A 
HETATM    7  C3  UNL     1      26.959   6.834  48.053  1.00  0.00     0.035 A 
HETATM    8  C4  UNL     1      27.990   5.831  48.338  1.00  0.00     0.041 A 
BRANCH   4   9
HETATM    9  C1  UNL     1      23.815   5.539  49.426  1.00  0.00     0.243 C 
BRANCH   9  10
HETATM   10  N1  UNL     1      23.326   6.822  49.765  1.00  0.00    -0.415 N 
HETATM   11  H1  UNL     1      23.953   7.608  49.776  1.00  0.00     0.151 HD
HETATM   12  H2  UNL     1      22.393   6.931  50.148  1.00  0.00     0.151 HD
ENDBRANCH   9  10
ENDBRANCH   4   9
BRANCH   8  13
HETATM   13  C5  UNL     1      29.369   6.034  47.927  1.00  0.00     0.176 C 
HETATM   14  O1  UNL     1      30.290   5.224  48.284  1.00  0.00    -0.646 OA
BRANCH  13  15
HETATM   15  O2  UNL     1      29.702   7.123  47.137  1.00  0.00    -0.773 OA
HETATM   16  H7  UNL     1      28.990   7.804  46.936  1.00  0.00     0.167 HD
ENDBRANCH  13  15
ENDBRANCH   8  13
ENDBRANCH   1   2
BRANCH   1  17
HETATM   17  C9  UNL     1      26.876   2.141  51.764  1.00  0.00     0.201 A 
HETATM   18  N3  UNL     1      27.991   2.528  52.279  1.00  0.00    -0.215 NA
HETATM   19  C10 UNL     1      28.081   2.177  53.655  1.00  0.00     0.236 A 
HETATM   20  N4  UNL     1      26.979   1.547  53.998  1.00  0.00    -0.236 NA
HETATM   21  C11 UNL     1      26.141   1.473  52.851  1.00  0.00     0.126 A 
HETATM   22  C12 UNL     1      24.949   0.949  52.671  1.00  0.00     0.124 C 
BRANCH  22  23
HETATM   23  N5  UNL     1      24.093   0.276  53.578  1.00  0.00    -0.363 N 
HETATM   24  H12 UNL     1      24.308  -0.110  54.500  1.00  0.00     0.165 HD
BRANCH  23  25
HETATM   25  C13 UNL     1      22.720  -0.085  53.540  1.00  0.00     0.033 A 
HETATM   26  C14 UNL     1      22.396  -1.076  54.471  1.00  0.00     0.029 A 
HETATM   27  C15 UNL     1      21.077  -1.534  54.532  1.00  0.00     0.004 A 
HETATM   28  C16 UNL     1      20.158  -0.988  53.672  1.00  0.00     0.019 A 
HETATM   29  C17 UNL     1      20.484  -0.013  52.757  1.00  0.00     0.013 A 
HETATM   30 BR1  UNL     1      19.207   0.722  51.577  1.00  0.00    -0.051 Br
HETATM   31  C18 UNL     1      21.783   0.445  52.689  1.00  0.00     0.048 A 
ENDBRANCH  23  25
ENDBRANCH  22  23
ENDBRANCH   1  17
TORSDOF 8
ENDMDL
MODEL 6
REMARK VINA RESULT:      -7.7      2.191      2.827
REMARK  8 active torsions:
REMARK  status: ('A' for Active; 'I' for Inactive)
REMARK    1  A    between atoms: N1_1  and  C1_2 
REMARK    2  A    between atoms: C1_2  and  N2_3 
REMARK    3  A    between atoms: C4_6  and  C5_7 
REMARK    4  A    between atoms: C5_7  and  O2_9 
REMARK    5  A    between atoms: C8_12  and  O3_13 
REMARK    6  A    between atoms: O3_13  and  C9_14 
REMARK    7  A    between atoms: C12_19  and  N5_20 
REMARK    8  A    between atoms: N5_20  and  C13_21 
ROOT
HETATM    1  O3  UNL     1      22.854   1.921  50.763  1.00  0.00    -0.300 OA
ENDROOT
BRANCH   1   2
HETATM    2  C8  UNL     1      22.216   1.123  51.697  1.00  0.00     0.174 C 
HETATM    3  C7  UNL     1      22.747   0.439  52.701  1.00  0.00     0.059 A 
HETATM    4  N2  UNL     1      21.842  -0.292  53.498  1.00  0.00    -0.339 N 
HETATM    5  C6  UNL     1      24.169   0.440  52.971  1.00  0.00     0.050 A 
HETATM    6  C2  UNL     1      22.439  -1.026  54.583  1.00  0.00     0.094 A 
HETATM    7  C3  UNL     1      23.763  -0.998  54.800  1.00  0.00     0.035 A 
HETATM    8  C4  UNL     1      24.696  -0.234  53.965  1.00  0.00     0.041 A 
BRANCH   4   9
HETATM    9  C1  UNL     1      20.410  -0.440  53.424  1.00  0.00     0.243 C 
BRANCH   9  10
HETATM   10  N1  UNL     1      19.913  -1.529  54.175  1.00  0.00    -0.415 N 
HETATM   11  H1  UNL     1      19.131  -2.059  53.828  1.00  0.00     0.151 HD
HETATM   12  H2  UNL     1      20.230  -1.685  55.126  1.00  0.00     0.151 HD
ENDBRANCH   9  10
ENDBRANCH   4   9
BRANCH   8  13
HETATM   13  C5  UNL     1      26.124  -0.238  54.236  1.00  0.00     0.176 C 
HETATM   14  O1  UNL     1      26.872  -1.186  53.819  1.00  0.00    -0.646 OA
BRANCH  13  15
HETATM   15  O2  UNL     1      26.693   0.799  54.960  1.00  0.00    -0.773 OA
HETATM   16  H7  UNL     1      27.381   0.574  55.657  1.00  0.00     0.167 HD
ENDBRANCH  13  15
ENDBRANCH   8  13
ENDBRANCH   1   2
BRANCH   1  17
HETATM   17  C9  UNL     1      23.213   3.229  51.042  1.00  0.00     0.201 A 
HETATM   18  N3  UNL     1      22.422   4.014  51.687  1.00  0.00    -0.215 NA
HETATM   19  C10 UNL     1      22.995   5.305  51.860  1.00  0.00     0.236 A 
HETATM   20  N4  UNL     1      24.185   5.314  51.299  1.00  0.00    -0.236 NA
HETATM   21  C11 UNL     1      24.416   4.024  50.745  1.00  0.00     0.126 A 
HETATM   22  C12 UNL     1      25.439   3.526  50.085  1.00  0.00     0.124 C 
BRANCH  22  23
HETATM   23  N5  UNL     1      26.668   4.121  49.708  1.00  0.00    -0.363 N 
HETATM   24  H12 UNL     1      27.621   3.834  49.942  1.00  0.00     0.165 HD
BRANCH  23  25
HETATM   25  C13 UNL     1      27.002   5.258  48.925  1.00  0.00     0.033 A 
HETATM   26  C14 UNL     1      28.348   5.276  48.546  1.00  0.00     0.029 A 
HETATM   27  C15 UNL     1      28.814   6.348  47.780  1.00  0.00     0.004 A 
HETATM   28  C16 UNL     1      27.927   7.337  47.436  1.00  0.00     0.019 A 
HETATM   29  C17 UNL     1      26.605   7.313  47.814  1.00  0.00     0.013 A 
HETATM   30 BR1  UNL     1      25.400   8.686  47.334  1.00  0.00    -0.051 Br
HETATM   31  C18 UNL     1      26.134   6.260  48.569  1.00  0.00     0.048 A 
ENDBRANCH  23  25
ENDBRANCH  22  23
ENDBRANCH   1  17
TORSDOF 8
ENDMDL
MODEL 7
REMARK VINA RESULT:      -7.5      5.110      8.446
REMARK  8 active torsions:
REMARK  status: ('A' for Active; 'I' for Inactive)
REMARK    1  A    between atoms: N1_1  and  C1_2 
REMARK    2  A    between atoms: C1_2  and  N2_3 
REMARK    3  A    between atoms: C4_6  and  C5_7 
REMARK    4  A    between atoms: C5_7  and  O2_9 
REMARK    5  A    between atoms: C8_12  and  O3_13 
REMARK    6  A    between atoms: O3_13  and  C9_14 
REMARK    7  A    between atoms: C12_19  and  N5_20 
REMARK    8  A    between atoms: N5_20  and  C13_21 
ROOT
HETATM    1  O3  UNL     1      31.089   6.211  46.600  1.00  0.00    -0.300 OA
ENDROOT
BRANCH   1   2
HETATM    2  C8  UNL     1      32.287   5.823  47.175  1.00  0.00     0.174 C 
HETATM    3  C7  UNL     1      32.768   4.598  47.336  1.00  0.00     0.059 A 
HETATM    4  N2  UNL     1      34.028   4.507  47.962  1.00  0.00    -0.339 N 
HETATM    5  C6  UNL     1      32.050   3.421  46.896  1.00  0.00     0.050 A 
HETATM    6  C2  UNL     1      34.533   3.168  48.125  1.00  0.00     0.094 A 
HETATM    7  C3  UNL     1      33.836   2.102  47.703  1.00  0.00     0.035 A 
HETATM    8  C4  UNL     1      32.526   2.209  47.053  1.00  0.00     0.041 A 
BRANCH   4   9
HETATM    9  C1  UNL     1      34.915   5.521  48.473  1.00  0.00     0.243 C 
BRANCH   9  10
HETATM   10  N1  UNL     1      35.639   5.118  49.619  1.00  0.00    -0.415 N 
HETATM   11  H1  UNL     1      35.473   4.211  50.019  1.00  0.00     0.151 HD
HETATM   12  H2  UNL     1      36.204   5.787  50.130  1.00  0.00     0.151 HD
ENDBRANCH   9  10
ENDBRANCH   4   9
BRANCH   8  13
HETATM   13  C5  UNL     1      31.805   1.024  46.616  1.00  0.00     0.176 C 
HETATM   14  O1  UNL     1      32.222  -0.147  46.908  1.00  0.00    -0.646 OA
BRANCH  13  15
HETATM   15  O2  UNL     1      30.645   1.158  45.869  1.00  0.00    -0.773 OA
HETATM   16  H7  UNL     1      30.534   0.585  45.050  1.00  0.00     0.167 HD
ENDBRANCH  13  15
ENDBRANCH   8  13
ENDBRANCH   1   2
BRANCH   1  17
HETATM   17  C9  UNL     1      30.180   7.010  47.274  1.00  0.00     0.201 A 
HETATM   18  N3  UNL     1      30.224   8.294  47.182  1.00  0.00    -0.215 NA
HETATM   19  C10 UNL     1      29.199   8.908  47.954  1.00  0.00     0.236 A 
HETATM   20  N4  UNL     1      28.498   7.964  48.544  1.00  0.00    -0.236 NA
HETATM   21  C11 UNL     1      29.051   6.708  48.170  1.00  0.00     0.126 A 
HETATM   22  C12 UNL     1      28.719   5.477  48.487  1.00  0.00     0.124 C 
BRANCH  22  23
HETATM   23  N5  UNL     1      27.681   4.989  49.319  1.00  0.00    -0.363 N 
HETATM   24  H12 UNL     1      27.743   4.586  50.257  1.00  0.00     0.165 HD
BRANCH  23  25
HETATM   25  C13 UNL     1      26.273   4.885  49.164  1.00  0.00     0.033 A 
HETATM   26  C14 UNL     1      25.779   3.633  49.544  1.00  0.00     0.029 A 
HETATM   27  C15 UNL     1      24.408   3.391  49.431  1.00  0.00     0.004 A 
HETATM   28  C16 UNL     1      23.607   4.396  48.949  1.00  0.00     0.019 A 
HETATM   29  C17 UNL     1      24.100   5.624  48.576  1.00  0.00     0.013 A 
HETATM   30 BR1  UNL     1      22.983   6.993  47.910  1.00  0.00    -0.051 Br
HETATM   31  C18 UNL     1      25.452   5.874  48.684  1.00  0.00     0.048 A 
ENDBRANCH  23  25
ENDBRANCH  22  23
ENDBRANCH   1  17
TORSDOF 8
ENDMDL
MODEL 8
REMARK VINA RESULT:      -7.5      2.329      3.549
REMARK  8 active torsions:
REMARK  status: ('A' for Active; 'I' for Inactive)
REMARK    1  A    between atoms: N1_1  and  C1_2 
REMARK    2  A    between atoms: C1_2  and  N2_3 
REMARK    3  A    between atoms: C4_6  and  C5_7 
REMARK    4  A    between atoms: C5_7  and  O2_9 
REMARK    5  A    between atoms: C8_12  and  O3_13 
REMARK    6  A    between atoms: O3_13  and  C9_14 
REMARK    7  A    between atoms: C12_19  and  N5_20 
REMARK    8  A    between atoms: N5_20  and  C13_21 
ROOT
HETATM    1  O3  UNL     1      25.028   2.439  50.921  1.00  0.00    -0.300 OA
ENDROOT
BRANCH   1   2
HETATM    2  C8  UNL     1      25.886   1.920  51.875  1.00  0.00     0.174 C 
HETATM    3  C7  UNL     1      25.621   1.048  52.838  1.00  0.00     0.059 A 
HETATM    4  N2  UNL     1      26.704   0.699  53.670  1.00  0.00    -0.339 N 
HETATM    5  C6  UNL     1      24.303   0.481  53.027  1.00  0.00     0.050 A 
HETATM    6  C2  UNL     1      26.396  -0.251  54.708  1.00  0.00     0.094 A 
HETATM    7  C3  UNL     1      25.159  -0.753  54.850  1.00  0.00     0.035 A 
HETATM    8  C4  UNL     1      24.040  -0.383  53.978  1.00  0.00     0.041 A 
BRANCH   4   9
HETATM    9  C1  UNL     1      28.082   1.123  53.671  1.00  0.00     0.243 C 
BRANCH   9  10
HETATM   10  N1  UNL     1      28.711   1.004  54.932  1.00  0.00    -0.415 N 
HETATM   11  H1  UNL     1      29.623   1.405  55.074  1.00  0.00     0.151 HD
HETATM   12  H2  UNL     1      28.327   0.389  55.641  1.00  0.00     0.151 HD
ENDBRANCH   9  10
ENDBRANCH   4   9
BRANCH   8  13
HETATM   13  C5  UNL     1      22.716  -0.950  54.174  1.00  0.00     0.176 C 
HETATM   14  O1  UNL     1      22.371  -1.449  55.297  1.00  0.00    -0.646 OA
BRANCH  13  15
HETATM   15  O2  UNL     1      21.804  -0.955  53.129  1.00  0.00    -0.773 OA
HETATM   16  H7  UNL     1      21.930  -0.295  52.381  1.00  0.00     0.167 HD
ENDBRANCH  13  15
ENDBRANCH   8  13
ENDBRANCH   1   2
BRANCH   1  17
HETATM   17  C9  UNL     1      24.488   3.709  51.037  1.00  0.00     0.201 A 
HETATM   18  N3  UNL     1      23.533   3.954  51.865  1.00  0.00    -0.215 NA
HETATM   19  C10 UNL     1      23.137   5.320  51.816  1.00  0.00     0.236 A 
HETATM   20  N4  UNL     1      23.878   5.938  50.922  1.00  0.00    -0.236 NA
HETATM   21  C11 UNL     1      24.777   4.987  50.365  1.00  0.00     0.126 A 
HETATM   22  C12 UNL     1      25.708   5.098  49.444  1.00  0.00     0.124 C 
BRANCH  22  23
HETATM   23  N5  UNL     1      26.131   6.223  48.694  1.00  0.00    -0.363 N 
HETATM   24  H12 UNL     1      25.826   6.531  47.768  1.00  0.00     0.165 HD
BRANCH  23  25
HETATM   25  C13 UNL     1      27.070   7.261  48.936  1.00  0.00     0.033 A 
HETATM   26  C14 UNL     1      26.603   8.208  49.854  1.00  0.00     0.029 A 
HETATM   27  C15 UNL     1      27.424   9.292  50.175  1.00  0.00     0.004 A 
HETATM   28  C16 UNL     1      28.655   9.377  49.573  1.00  0.00     0.019 A 
HETATM   29  C17 UNL     1      29.107   8.442  48.671  1.00  0.00     0.013 A 
HETATM   30 BR1  UNL     1      30.801   8.580  47.849  1.00  0.00    -0.051 Br
HETATM   31  C18 UNL     1      28.304   7.369  48.347  1.00  0.00     0.048 A 
ENDBRANCH  23  25
ENDBRANCH  22  23
ENDBRANCH   1  17
TORSDOF 8
ENDMDL
MODEL 9
REMARK VINA RESULT:      -7.4      3.851      8.092
REMARK  8 active torsions:
REMARK  status: ('A' for Active; 'I' for Inactive)
REMARK    1  A    between atoms: N1_1  and  C1_2 
REMARK    2  A    between atoms: C1_2  and  N2_3 
REMARK    3  A    between atoms: C4_6  and  C5_7 
REMARK    4  A    between atoms: C5_7  and  O2_9 
REMARK    5  A    between atoms: C8_12  and  O3_13 
REMARK    6  A    between atoms: O3_13  and  C9_14 
REMARK    7  A    between atoms: C12_19  and  N5_20 
REMARK    8  A    between atoms: N5_20  and  C13_21 
ROOT
HETATM    1  O3  UNL     1      28.255   5.190  48.322  1.00  0.00    -0.300 OA
ENDROOT
BRANCH   1   2
HETATM    2  C8  UNL     1      29.219   6.182  48.374  1.00  0.00     0.174 C 
HETATM    3  C7  UNL     1      30.530   6.069  48.212  1.00  0.00     0.059 A 
HETATM    4  N2  UNL     1      31.271   7.263  48.322  1.00  0.00    -0.339 N 
HETATM    5  C6  UNL     1      31.170   4.801  47.935  1.00  0.00     0.050 A 
HETATM    6  C2  UNL     1      32.693   7.119  48.140  1.00  0.00     0.094 A 
HETATM    7  C3  UNL     1      33.246   5.924  47.885  1.00  0.00     0.035 A 
HETATM    8  C4  UNL     1      32.466   4.688  47.772  1.00  0.00     0.041 A 
BRANCH   4   9
HETATM    9  C1  UNL     1      30.861   8.620  48.585  1.00  0.00     0.243 C 
BRANCH   9  10
HETATM   10  N1  UNL     1      31.024   9.011  49.933  1.00  0.00    -0.415 N 
HETATM   11  H1  UNL     1      30.709   9.919  50.230  1.00  0.00     0.151 HD
HETATM   12  H2  UNL     1      31.591   8.456  50.564  1.00  0.00     0.151 HD
ENDBRANCH   9  10
ENDBRANCH   4   9
BRANCH   8  13
HETATM   13  C5  UNL     1      33.111   3.414  47.499  1.00  0.00     0.176 C 
HETATM   14  O1  UNL     1      32.682   2.641  46.578  1.00  0.00    -0.646 OA
BRANCH  13  15
HETATM   15  O2  UNL     1      34.212   3.023  48.245  1.00  0.00    -0.773 OA
HETATM   16  H7  UNL     1      34.069   2.746  49.201  1.00  0.00     0.167 HD
ENDBRANCH  13  15
ENDBRANCH   8  13
ENDBRANCH   1   2
BRANCH   1  17
HETATM   17  C9  UNL     1      26.939   5.431  48.680  1.00  0.00     0.201 A 
HETATM   18  N3  UNL     1      26.333   6.505  48.310  1.00  0.00    -0.215 NA
HETATM   19  C10 UNL     1      24.994   6.541  48.789  1.00  0.00     0.236 A 
HETATM   20  N4  UNL     1      24.769   5.446  49.483  1.00  0.00    -0.236 NA
HETATM   21  C11 UNL     1      25.960   4.668  49.471  1.00  0.00     0.126 A 
HETATM   22  C12 UNL     1      26.250   3.505  50.012  1.00  0.00     0.124 C 
BRANCH  22  23
HETATM   23  N5  UNL     1      25.456   2.631  50.795  1.00  0.00    -0.363 N 
HETATM   24  H12 UNL     1      24.438   2.547  50.833  1.00  0.00     0.165 HD
BRANCH  23  25
HETATM   25  C13 UNL     1      25.763   1.625  51.749  1.00  0.00     0.033 A 
HETATM   26  C14 UNL     1      24.621   1.028  52.292  1.00  0.00     0.029 A 
HETATM   27  C15 UNL     1      24.779   0.027  53.254  1.00  0.00     0.004 A 
HETATM   28  C16 UNL     1      26.053  -0.323  53.624  1.00  0.00     0.019 A 
HETATM   29  C17 UNL     1      27.172   0.269  53.087  1.00  0.00     0.013 A 
HETATM   30 BR1  UNL     1      28.918  -0.224  53.614  1.00  0.00    -0.051 Br
HETATM   31  C18 UNL     1      27.028   1.257  52.137  1.00  0.00     0.048 A 
ENDBRANCH  23  25
ENDBRANCH  22  23
ENDBRANCH   1  17
TORSDOF 8
ENDMDL
