MODEL 1
REMARK VINA RESULT:      -6.9      0.000      0.000
REMARK  7 active torsions:
REMARK  status: ('A' for Active; 'I' for Inactive)
REMARK    1  A    between atoms: C3_3  and  S1_9 
REMARK    2  A    between atoms: C4_4  and  N1_5 
REMARK    3  A    between atoms: N1_5  and  C5_6 
REMARK    4  A    between atoms: C5_6  and  C6_7 
REMARK    5  A    between atoms: S1_9  and  N2_12 
REMARK       I    between atoms: N2_12  and  C7_13 
REMARK    6  A    between atoms: C7_13  and  C8_15 
REMARK    7  A    between atoms: C8_15  and  C9_16 
ROOT
HETATM    1  C1  UNL     1      21.713   1.354  52.966  1.00  0.00     0.041 C 
HETATM    2  C2  UNL     1      22.855   1.128  53.027  1.00  0.00     0.019 C 
HETATM    3  C3  UNL     1      24.195   0.916  53.059  1.00  0.00     0.075 C 
HETATM    4  C4  UNL     1      25.024  -0.098  53.581  1.00  0.00     0.138 C 
ENDROOT
BRANCH   3   5
HETATM    5  S1  UNL     1      25.054   2.427  53.058  1.00  0.00     0.262 S 
HETATM    6  O1  UNL     1      24.075   3.593  52.918  1.00  0.00    -0.200 OA
HETATM    7  O2  UNL     1      25.699   2.717  54.441  1.00  0.00    -0.200 OA
BRANCH   5   8
HETATM    8  N2  UNL     1      26.372   2.646  52.063  1.00  0.00    -0.250 N 
HETATM    9  C7  UNL     1      25.711   2.779  50.641  1.00  0.00     0.235 C 
HETATM   10  O3  UNL     1      24.515   2.550  50.487  1.00  0.00    -0.272 OA
HETATM   11  H6  UNL     1      27.303   2.750  51.967  1.00  0.00     0.181 HD
BRANCH   9  12
HETATM   12  C8  UNL     1      26.527   3.139  49.423  1.00  0.00     0.142 C 
BRANCH  12  13
HETATM   13  C9  UNL     1      26.543   4.614  49.276  1.00  0.00    -0.048 A 
HETATM   14  C10 UNL     1      25.679   5.429  49.844  1.00  0.00     0.007 A 
HETATM   15  C11 UNL     1      25.786   6.719  49.732  1.00  0.00     0.002 A 
HETATM   16  C12 UNL     1      26.835   7.358  49.027  1.00  0.00     0.019 A 
HETATM   17  C13 UNL     1      27.815   6.496  48.389  1.00  0.00     0.011 A 
HETATM   18 BR2  UNL     1      29.173   7.281  47.399  1.00  0.00    -0.051 Br
HETATM   19  C14 UNL     1      27.605   5.110  48.553  1.00  0.00     0.026 A 
ENDBRANCH  12  13
ENDBRANCH   9  12
ENDBRANCH   5   8
ENDBRANCH   3   5
BRANCH   4  20
HETATM   20  N1  UNL     1      26.374   0.130  53.280  1.00  0.00    -0.257 NA
BRANCH  20  21
HETATM   21  C5  UNL     1      27.274  -0.184  54.214  1.00  0.00     0.092 C 
BRANCH  21  22
HETATM   22  C6  UNL     1      28.578  -0.120  54.631  1.00  0.00     0.090 C 
HETATM   23 BR1  UNL     1      29.957  -0.782  53.578  1.00  0.00    -0.061 Br
ENDBRANCH  21  22
ENDBRANCH  20  21
ENDBRANCH   4  20
TORSDOF 7
ENDMDL
MODEL 2
REMARK VINA RESULT:      -6.6      3.038      5.998
REMARK  7 active torsions:
REMARK  status: ('A' for Active; 'I' for Inactive)
REMARK    1  A    between atoms: C3_3  and  S1_9 
REMARK    2  A    between atoms: C4_4  and  N1_5 
REMARK    3  A    between atoms: N1_5  and  C5_6 
REMARK    4  A    between atoms: C5_6  and  C6_7 
REMARK    5  A    between atoms: S1_9  and  N2_12 
REMARK       I    between atoms: N2_12  and  C7_13 
REMARK    6  A    between atoms: C7_13  and  C8_15 
REMARK    7  A    between atoms: C8_15  and  C9_16 
ROOT
HETATM    1  C1  UNL     1      27.223  -2.402  52.610  1.00  0.00     0.041 C 
HETATM    2  C2  UNL     1      26.874  -1.301  52.447  1.00  0.00     0.019 C 
HETATM    3  C3  UNL     1      26.416  -0.032  52.297  1.00  0.00     0.075 C 
HETATM    4  C4  UNL     1      26.794   1.067  51.498  1.00  0.00     0.138 C 
ENDROOT
BRANCH   3   5
HETATM    5  S1  UNL     1      25.700   0.540  53.773  1.00  0.00     0.262 S 
HETATM    6  O1  UNL     1      25.656  -0.583  54.810  1.00  0.00    -0.200 OA
HETATM    7  O2  UNL     1      26.605   1.588  54.477  1.00  0.00    -0.200 OA
BRANCH   5   8
HETATM    8  N2  UNL     1      24.254   1.367  53.743  1.00  0.00    -0.250 N 
HETATM    9  C7  UNL     1      23.215   0.231  53.415  1.00  0.00     0.235 C 
HETATM   10  O3  UNL     1      23.600  -0.891  53.098  1.00  0.00    -0.272 OA
HETATM   11  H6  UNL     1      23.783   2.174  53.855  1.00  0.00     0.181 HD
BRANCH   9  12
HETATM   12  C8  UNL     1      21.729   0.493  53.429  1.00  0.00     0.142 C 
BRANCH  12  13
HETATM   13  C9  UNL     1      21.267   0.710  52.036  1.00  0.00    -0.048 A 
HETATM   14  C10 UNL     1      20.096   0.328  51.572  1.00  0.00     0.007 A 
HETATM   15  C11 UNL     1      19.722   0.606  50.359  1.00  0.00     0.002 A 
HETATM   16  C12 UNL     1      20.509   1.355  49.451  1.00  0.00     0.019 A 
HETATM   17  C13 UNL     1      21.808   1.803  49.925  1.00  0.00     0.011 A 
HETATM   18 BR2  UNL     1      22.904   2.731  48.752  1.00  0.00    -0.051 Br
HETATM   19  C14 UNL     1      22.132   1.437  51.249  1.00  0.00     0.026 A 
ENDBRANCH  12  13
ENDBRANCH   9  12
ENDBRANCH   5   8
ENDBRANCH   3   5
BRANCH   4  20
HETATM   20  N1  UNL     1      25.930   2.157  51.676  1.00  0.00    -0.257 NA
BRANCH  20  21
HETATM   21  C5  UNL     1      26.161   3.249  50.945  1.00  0.00     0.092 C 
BRANCH  21  22
HETATM   22  C6  UNL     1      26.488   3.774  49.721  1.00  0.00     0.090 C 
HETATM   23 BR1  UNL     1      25.770   5.388  49.146  1.00  0.00    -0.061 Br
ENDBRANCH  21  22
ENDBRANCH  20  21
ENDBRANCH   4  20
TORSDOF 7
ENDMDL
MODEL 3
REMARK VINA RESULT:      -6.6      2.497      3.855
REMARK  7 active torsions:
REMARK  status: ('A' for Active; 'I' for Inactive)
REMARK    1  A    between atoms: C3_3  and  S1_9 
REMARK    2  A    between atoms: C4_4  and  N1_5 
REMARK    3  A    between atoms: N1_5  and  C5_6 
REMARK    4  A    between atoms: C5_6  and  C6_7 
REMARK    5  A    between atoms: S1_9  and  N2_12 
REMARK       I    between atoms: N2_12  and  C7_13 
REMARK    6  A    between atoms: C7_13  and  C8_15 
REMARK    7  A    between atoms: C8_15  and  C9_16 
ROOT
HETATM    1  C1  UNL     1      29.781  -0.675  53.780  1.00  0.00     0.041 C 
HETATM    2  C2  UNL     1      28.639  -0.443  53.737  1.00  0.00     0.019 C 
HETATM    3  C3  UNL     1      27.323  -0.112  53.698  1.00  0.00     0.075 C 
HETATM    4  C4  UNL     1      26.120  -0.845  53.629  1.00  0.00     0.138 C 
ENDROOT
BRANCH   3   5
HETATM    5  S1  UNL     1      27.105   1.438  52.943  1.00  0.00     0.262 S 
HETATM    6  O1  UNL     1      26.263   2.349  53.837  1.00  0.00    -0.200 OA
HETATM    7  O2  UNL     1      28.442   2.224  52.856  1.00  0.00    -0.200 OA
BRANCH   5   8
HETATM    8  N2  UNL     1      26.597   1.539  51.359  1.00  0.00    -0.250 N 
HETATM    9  C7  UNL     1      25.625   2.776  51.389  1.00  0.00     0.235 C 
HETATM   10  O3  UNL     1      25.299   3.286  52.456  1.00  0.00    -0.272 OA
HETATM   11  H6  UNL     1      26.643   1.221  50.474  1.00  0.00     0.181 HD
BRANCH   9  12
HETATM   12  C8  UNL     1      25.027   3.339  50.122  1.00  0.00     0.142 C 
BRANCH  12  13
HETATM   13  C9  UNL     1      25.881   4.454  49.644  1.00  0.00    -0.048 A 
HETATM   14  C10 UNL     1      27.004   4.298  48.976  1.00  0.00     0.007 A 
HETATM   15  C11 UNL     1      27.675   5.316  48.525  1.00  0.00     0.002 A 
HETATM   16  C12 UNL     1      27.254   6.659  48.681  1.00  0.00     0.019 A 
HETATM   17  C13 UNL     1      26.015   6.877  49.408  1.00  0.00     0.011 A 
HETATM   18 BR2  UNL     1      25.454   8.621  49.696  1.00  0.00    -0.051 Br
HETATM   19  C14 UNL     1      25.368   5.711  49.872  1.00  0.00     0.026 A 
ENDBRANCH  12  13
ENDBRANCH   9  12
ENDBRANCH   5   8
ENDBRANCH   3   5
BRANCH   4  20
HETATM   20  N1  UNL     1      24.999  -0.005  53.685  1.00  0.00    -0.257 NA
BRANCH  20  21
HETATM   21  C5  UNL     1      23.808  -0.553  53.436  1.00  0.00     0.092 C 
BRANCH  21  22
HETATM   22  C6  UNL     1      22.600  -0.971  53.934  1.00  0.00     0.090 C 
HETATM   23 BR1  UNL     1      21.170   0.204  54.093  1.00  0.00    -0.061 Br
ENDBRANCH  21  22
ENDBRANCH  20  21
ENDBRANCH   4  20
TORSDOF 7
ENDMDL
MODEL 4
REMARK VINA RESULT:      -6.5      4.179      6.094
REMARK  7 active torsions:
REMARK  status: ('A' for Active; 'I' for Inactive)
REMARK    1  A    between atoms: C3_3  and  S1_9 
REMARK    2  A    between atoms: C4_4  and  N1_5 
REMARK    3  A    between atoms: N1_5  and  C5_6 
REMARK    4  A    between atoms: C5_6  and  C6_7 
REMARK    5  A    between atoms: S1_9  and  N2_12 
REMARK       I    between atoms: N2_12  and  C7_13 
REMARK    6  A    between atoms: C7_13  and  C8_15 
REMARK    7  A    between atoms: C8_15  and  C9_16 
ROOT
HETATM    1  C1  UNL     1      22.724   2.590  48.131  1.00  0.00     0.041 C 
HETATM    2  C2  UNL     1      22.225   2.416  49.170  1.00  0.00     0.019 C 
HETATM    3  C3  UNL     1      21.701   2.213  50.406  1.00  0.00     0.075 C 
HETATM    4  C4  UNL     1      20.407   1.951  50.902  1.00  0.00     0.138 C 
ENDROOT
BRANCH   3   5
HETATM    5  S1  UNL     1      22.623   3.064  51.608  1.00  0.00     0.262 S 
HETATM    6  O1  UNL     1      23.863   3.697  50.975  1.00  0.00    -0.200 OA
HETATM    7  O2  UNL     1      21.862   4.313  52.133  1.00  0.00    -0.200 OA
BRANCH   5   8
HETATM    8  N2  UNL     1      23.014   2.326  53.050  1.00  0.00    -0.250 N 
HETATM    9  C7  UNL     1      24.111   1.285  52.616  1.00  0.00     0.235 C 
HETATM   10  O3  UNL     1      24.343   1.083  51.428  1.00  0.00    -0.272 OA
HETATM   11  H6  UNL     1      22.901   2.265  53.982  1.00  0.00     0.181 HD
BRANCH   9  12
HETATM   12  C8  UNL     1      24.872   0.472  53.635  1.00  0.00     0.142 C 
BRANCH  12  13
HETATM   13  C9  UNL     1      26.310   0.827  53.554  1.00  0.00    -0.048 A 
HETATM   14  C10 UNL     1      26.775   2.059  53.572  1.00  0.00     0.007 A 
HETATM   15  C11 UNL     1      28.051   2.304  53.566  1.00  0.00     0.002 A 
HETATM   16  C12 UNL     1      29.041   1.291  53.567  1.00  0.00     0.019 A 
HETATM   17  C13 UNL     1      28.572  -0.084  53.554  1.00  0.00     0.011 A 
HETATM   18 BR2  UNL     1      29.828  -1.447  53.490  1.00  0.00    -0.051 Br
HETATM   19  C14 UNL     1      27.170  -0.248  53.545  1.00  0.00     0.026 A 
ENDBRANCH  12  13
ENDBRANCH   9  12
ENDBRANCH   5   8
ENDBRANCH   3   5
BRANCH   4  20
HETATM   20  N1  UNL     1      20.415   1.750  52.289  1.00  0.00    -0.257 NA
BRANCH  20  21
HETATM   21  C5  UNL     1      19.926   0.595  52.745  1.00  0.00     0.092 C 
BRANCH  21  22
HETATM   22  C6  UNL     1      20.164  -0.578  53.414  1.00  0.00     0.090 C 
HETATM   23 BR1  UNL     1      21.507  -0.698  54.692  1.00  0.00    -0.061 Br
ENDBRANCH  21  22
ENDBRANCH  20  21
ENDBRANCH   4  20
TORSDOF 7
ENDMDL
MODEL 5
REMARK VINA RESULT:      -6.4      1.933      2.399
REMARK  7 active torsions:
REMARK  status: ('A' for Active; 'I' for Inactive)
REMARK    1  A    between atoms: C3_3  and  S1_9 
REMARK    2  A    between atoms: C4_4  and  N1_5 
REMARK    3  A    between atoms: N1_5  and  C5_6 
REMARK    4  A    between atoms: C5_6  and  C6_7 
REMARK    5  A    between atoms: S1_9  and  N2_12 
REMARK       I    between atoms: N2_12  and  C7_13 
REMARK    6  A    between atoms: C7_13  and  C8_15 
REMARK    7  A    between atoms: C8_15  and  C9_16 
ROOT
HETATM    1  C1  UNL     1      21.108   1.350  48.967  1.00  0.00     0.041 C 
HETATM    2  C2  UNL     1      21.767   1.424  49.925  1.00  0.00     0.019 C 
HETATM    3  C3  UNL     1      22.572   1.553  51.011  1.00  0.00     0.075 C 
HETATM    4  C4  UNL     1      22.668   0.895  52.255  1.00  0.00     0.138 C 
ENDROOT
BRANCH   3   5
HETATM    5  S1  UNL     1      23.116   3.195  51.177  1.00  0.00     0.262 S 
HETATM    6  O1  UNL     1      22.537   4.061  50.058  1.00  0.00    -0.200 OA
HETATM    7  O2  UNL     1      22.520   3.869  52.443  1.00  0.00    -0.200 OA
BRANCH   5   8
HETATM    8  N2  UNL     1      24.735   3.528  51.397  1.00  0.00    -0.250 N 
HETATM    9  C7  UNL     1      25.320   3.363  49.946  1.00  0.00     0.235 C 
HETATM   10  O3  UNL     1      24.626   2.903  49.044  1.00  0.00    -0.272 OA
HETATM   11  H6  UNL     1      25.435   3.787  51.970  1.00  0.00     0.181 HD
BRANCH   9  12
HETATM   12  C8  UNL     1      26.753   3.714  49.630  1.00  0.00     0.142 C 
BRANCH  12  13
HETATM   13  C9  UNL     1      26.784   5.027  48.941  1.00  0.00    -0.048 A 
HETATM   14  C10 UNL     1      25.750   5.833  48.826  1.00  0.00     0.007 A 
HETATM   15  C11 UNL     1      25.857   7.002  48.269  1.00  0.00     0.002 A 
HETATM   16  C12 UNL     1      27.076   7.520  47.768  1.00  0.00     0.019 A 
HETATM   17  C13 UNL     1      28.246   6.665  47.880  1.00  0.00     0.011 A 
HETATM   18 BR2  UNL     1      29.853   7.271  47.180  1.00  0.00    -0.051 Br
HETATM   19  C14 UNL     1      28.026   5.409  48.484  1.00  0.00     0.026 A 
ENDBRANCH  12  13
ENDBRANCH   9  12
ENDBRANCH   5   8
ENDBRANCH   3   5
BRANCH   4  20
HETATM   20  N1  UNL     1      23.744   1.378  53.013  1.00  0.00    -0.257 NA
BRANCH  20  21
HETATM   21  C5  UNL     1      24.618   0.483  53.478  1.00  0.00     0.092 C 
BRANCH  21  22
HETATM   22  C6  UNL     1      25.931   0.152  53.692  1.00  0.00     0.090 C 
HETATM   23 BR1  UNL     1      26.802  -1.071  52.598  1.00  0.00    -0.061 Br
ENDBRANCH  21  22
ENDBRANCH  20  21
ENDBRANCH   4  20
TORSDOF 7
ENDMDL
MODEL 6
REMARK VINA RESULT:      -6.3      4.490      6.943
REMARK  7 active torsions:
REMARK  status: ('A' for Active; 'I' for Inactive)
REMARK    1  A    between atoms: C3_3  and  S1_9 
REMARK    2  A    between atoms: C4_4  and  N1_5 
REMARK    3  A    between atoms: N1_5  and  C5_6 
REMARK    4  A    between atoms: C5_6  and  C6_7 
REMARK    5  A    between atoms: S1_9  and  N2_12 
REMARK       I    between atoms: N2_12  and  C7_13 
REMARK    6  A    between atoms: C7_13  and  C8_15 
REMARK    7  A    between atoms: C8_15  and  C9_16 
ROOT
HETATM    1  C1  UNL     1      21.761   1.664  48.663  1.00  0.00     0.041 C 
HETATM    2  C2  UNL     1      21.257   1.318  49.656  1.00  0.00     0.019 C 
HETATM    3  C3  UNL     1      20.727   0.923  50.841  1.00  0.00     0.075 C 
HETATM    4  C4  UNL     1      19.481   0.397  51.242  1.00  0.00     0.138 C 
ENDROOT
BRANCH   3   5
HETATM    5  S1  UNL     1      21.431   1.817  52.155  1.00  0.00     0.262 S 
HETATM    6  O1  UNL     1      22.450   2.826  51.623  1.00  0.00    -0.200 OA
HETATM    7  O2  UNL     1      20.389   2.747  52.835  1.00  0.00    -0.200 OA
BRANCH   5   8
HETATM    8  N2  UNL     1      22.035   1.021  53.488  1.00  0.00    -0.250 N 
HETATM    9  C7  UNL     1      23.420   0.483  52.969  1.00  0.00     0.235 C 
HETATM   10  O3  UNL     1      23.713   0.566  51.780  1.00  0.00    -0.272 OA
HETATM   11  H6  UNL     1      21.943   0.774  54.392  1.00  0.00     0.181 HD
BRANCH   9  12
HETATM   12  C8  UNL     1      24.401  -0.192  53.896  1.00  0.00     0.142 C 
BRANCH  12  13
HETATM   13  C9  UNL     1      25.734   0.435  53.721  1.00  0.00    -0.048 A 
HETATM   14  C10 UNL     1      25.947   1.734  53.681  1.00  0.00     0.007 A 
HETATM   15  C11 UNL     1      27.147   2.223  53.592  1.00  0.00     0.002 A 
HETATM   16  C12 UNL     1      28.317   1.425  53.560  1.00  0.00     0.019 A 
HETATM   17  C13 UNL     1      28.128  -0.015  53.609  1.00  0.00     0.011 A 
HETATM   18 BR2  UNL     1      29.623  -1.107  53.504  1.00  0.00    -0.051 Br
HETATM   19  C14 UNL     1      26.788  -0.451  53.687  1.00  0.00     0.026 A 
ENDBRANCH  12  13
ENDBRANCH   9  12
ENDBRANCH   5   8
ENDBRANCH   3   5
BRANCH   4  20
HETATM   20  N1  UNL     1      19.467   0.084  52.608  1.00  0.00    -0.257 NA
BRANCH  20  21
HETATM   21  C5  UNL     1      18.728  -0.959  52.991  1.00  0.00     0.092 C 
BRANCH  21  22
HETATM   22  C6  UNL     1      17.491  -1.432  53.349  1.00  0.00     0.090 C 
HETATM   23 BR1  UNL     1      15.977  -0.999  52.365  1.00  0.00    -0.061 Br
ENDBRANCH  21  22
ENDBRANCH  20  21
ENDBRANCH   4  20
TORSDOF 7
ENDMDL
MODEL 7
REMARK VINA RESULT:      -6.2      2.421      3.194
REMARK  7 active torsions:
REMARK  status: ('A' for Active; 'I' for Inactive)
REMARK    1  A    between atoms: C3_3  and  S1_9 
REMARK    2  A    between atoms: C4_4  and  N1_5 
REMARK    3  A    between atoms: N1_5  and  C5_6 
REMARK    4  A    between atoms: C5_6  and  C6_7 
REMARK    5  A    between atoms: S1_9  and  N2_12 
REMARK       I    between atoms: N2_12  and  C7_13 
REMARK    6  A    between atoms: C7_13  and  C8_15 
REMARK    7  A    between atoms: C8_15  and  C9_16 
ROOT
HETATM    1  C1  UNL     1      21.112   1.239  49.115  1.00  0.00     0.041 C 
HETATM    2  C2  UNL     1      21.990   1.699  49.729  1.00  0.00     0.019 C 
HETATM    3  C3  UNL     1      22.998   2.292  50.418  1.00  0.00     0.075 C 
HETATM    4  C4  UNL     1      24.056   1.821  51.223  1.00  0.00     0.138 C 
ENDROOT
BRANCH   3   5
HETATM    5  S1  UNL     1      22.528   3.880  50.945  1.00  0.00     0.262 S 
HETATM    6  O1  UNL     1      21.202   4.282  50.297  1.00  0.00    -0.200 OA
HETATM    7  O2  UNL     1      22.162   3.895  52.454  1.00  0.00    -0.200 OA
BRANCH   5   8
HETATM    8  N2  UNL     1      23.614   5.142  50.889  1.00  0.00    -0.250 N 
HETATM    9  C7  UNL     1      23.767   5.395  49.343  1.00  0.00     0.235 C 
HETATM   10  O3  UNL     1      23.274   4.616  48.533  1.00  0.00    -0.272 OA
HETATM   11  H6  UNL     1      24.143   5.773  51.345  1.00  0.00     0.181 HD
BRANCH   9  12
HETATM   12  C8  UNL     1      24.560   6.564  48.811  1.00  0.00     0.142 C 
BRANCH  12  13
HETATM   13  C9  UNL     1      25.980   6.159  48.677  1.00  0.00    -0.048 A 
HETATM   14  C10 UNL     1      26.452   4.976  49.012  1.00  0.00     0.007 A 
HETATM   15  C11 UNL     1      27.695   4.658  48.808  1.00  0.00     0.002 A 
HETATM   16  C12 UNL     1      28.633   5.523  48.194  1.00  0.00     0.019 A 
HETATM   17  C13 UNL     1      28.152   6.837  47.801  1.00  0.00     0.011 A 
HETATM   18 BR2  UNL     1      29.357   8.031  47.051  1.00  0.00    -0.051 Br
HETATM   19  C14 UNL     1      26.793   7.096  48.079  1.00  0.00     0.026 A 
ENDBRANCH  12  13
ENDBRANCH   9  12
ENDBRANCH   5   8
ENDBRANCH   3   5
BRANCH   4  20
HETATM   20  N1  UNL     1      24.880   2.869  51.658  1.00  0.00    -0.257 NA
BRANCH  20  21
HETATM   21  C5  UNL     1      26.185   2.614  51.779  1.00  0.00     0.092 C 
BRANCH  21  22
HETATM   22  C6  UNL     1      27.160   1.758  52.222  1.00  0.00     0.090 C 
HETATM   23 BR1  UNL     1      28.358   2.271  53.545  1.00  0.00    -0.061 Br
ENDBRANCH  21  22
ENDBRANCH  20  21
ENDBRANCH   4  20
TORSDOF 7
ENDMDL
MODEL 8
REMARK VINA RESULT:      -6.1      3.837      5.979
REMARK  7 active torsions:
REMARK  status: ('A' for Active; 'I' for Inactive)
REMARK    1  A    between atoms: C3_3  and  S1_9 
REMARK    2  A    between atoms: C4_4  and  N1_5 
REMARK    3  A    between atoms: N1_5  and  C5_6 
REMARK    4  A    between atoms: C5_6  and  C6_7 
REMARK    5  A    between atoms: S1_9  and  N2_12 
REMARK       I    between atoms: N2_12  and  C7_13 
REMARK    6  A    between atoms: C7_13  and  C8_15 
REMARK    7  A    between atoms: C8_15  and  C9_16 
ROOT
HETATM    1  C1  UNL     1      21.733   2.526  47.740  1.00  0.00     0.041 C 
HETATM    2  C2  UNL     1      21.705   2.351  48.893  1.00  0.00     0.019 C 
HETATM    3  C3  UNL     1      21.726   2.181  50.239  1.00  0.00     0.075 C 
HETATM    4  C4  UNL     1      20.958   1.431  51.154  1.00  0.00     0.138 C 
ENDROOT
BRANCH   3   5
HETATM    5  S1  UNL     1      22.344   3.602  51.026  1.00  0.00     0.262 S 
HETATM    6  O1  UNL     1      22.883   4.589  49.990  1.00  0.00    -0.200 OA
HETATM    7  O2  UNL     1      21.207   4.427  51.689  1.00  0.00    -0.200 OA
BRANCH   5   8
HETATM    8  N2  UNL     1      23.398   3.464  52.309  1.00  0.00    -0.250 N 
HETATM    9  C7  UNL     1      24.704   2.914  51.623  1.00  0.00     0.235 C 
HETATM   10  O3  UNL     1      24.685   2.552  50.450  1.00  0.00    -0.272 OA
HETATM   11  H6  UNL     1      23.575   3.586  53.225  1.00  0.00     0.181 HD
BRANCH   9  12
HETATM   12  C8  UNL     1      25.995   2.767  52.390  1.00  0.00     0.142 C 
BRANCH  12  13
HETATM   13  C9  UNL     1      26.178   1.340  52.751  1.00  0.00    -0.048 A 
HETATM   14  C10 UNL     1      25.198   0.467  52.856  1.00  0.00     0.007 A 
HETATM   15  C11 UNL     1      25.429  -0.786  53.111  1.00  0.00     0.002 A 
HETATM   16  C12 UNL     1      26.729  -1.325  53.268  1.00  0.00     0.019 A 
HETATM   17  C13 UNL     1      27.841  -0.396  53.154  1.00  0.00     0.011 A 
HETATM   18 BR2  UNL     1      29.561  -1.040  53.416  1.00  0.00    -0.051 Br
HETATM   19  C14 UNL     1      27.489   0.945  52.893  1.00  0.00     0.026 A 
ENDBRANCH  12  13
ENDBRANCH   9  12
ENDBRANCH   5   8
ENDBRANCH   3   5
BRANCH   4  20
HETATM   20  N1  UNL     1      21.447   1.553  52.462  1.00  0.00    -0.257 NA
BRANCH  20  21
HETATM   21  C5  UNL     1      20.873   0.803  53.405  1.00  0.00     0.092 C 
BRANCH  21  22
HETATM   22  C6  UNL     1      21.022   0.094  54.570  1.00  0.00     0.090 C 
HETATM   23 BR1  UNL     1      21.972  -1.501  54.606  1.00  0.00    -0.061 Br
ENDBRANCH  21  22
ENDBRANCH  20  21
ENDBRANCH   4  20
TORSDOF 7
ENDMDL
MODEL 9
REMARK VINA RESULT:      -6.1      3.975      5.419
REMARK  7 active torsions:
REMARK  status: ('A' for Active; 'I' for Inactive)
REMARK    1  A    between atoms: C3_3  and  S1_9 
REMARK    2  A    between atoms: C4_4  and  N1_5 
REMARK    3  A    between atoms: N1_5  and  C5_6 
REMARK    4  A    between atoms: C5_6  and  C6_7 
REMARK    5  A    between atoms: S1_9  and  N2_12 
REMARK       I    between atoms: N2_12  and  C7_13 
REMARK    6  A    between atoms: C7_13  and  C8_15 
REMARK    7  A    between atoms: C8_15  and  C9_16 
ROOT
HETATM    1  C1  UNL     1      29.396  -0.190  54.256  1.00  0.00     0.041 C 
HETATM    2  C2  UNL     1      28.283  -0.052  53.939  1.00  0.00     0.019 C 
HETATM    3  C3  UNL     1      26.996   0.172  53.571  1.00  0.00     0.075 C 
HETATM    4  C4  UNL     1      25.860  -0.646  53.393  1.00  0.00     0.138 C 
ENDROOT
BRANCH   3   5
HETATM    5  S1  UNL     1      26.892   1.549  52.517  1.00  0.00     0.262 S 
HETATM    6  O1  UNL     1      28.190   2.356  52.569  1.00  0.00    -0.200 OA
HETATM    7  O2  UNL     1      26.842   1.123  51.024  1.00  0.00    -0.200 OA
BRANCH   5   8
HETATM    8  N2  UNL     1      25.570   2.562  52.581  1.00  0.00    -0.250 N 
HETATM    9  C7  UNL     1      25.510   3.142  51.119  1.00  0.00     0.235 C 
HETATM   10  O3  UNL     1      26.423   2.929  50.328  1.00  0.00    -0.272 OA
HETATM   11  H6  UNL     1      24.847   2.917  53.069  1.00  0.00     0.181 HD
BRANCH   9  12
HETATM   12  C8  UNL     1      24.365   4.013  50.664  1.00  0.00     0.142 C 
BRANCH  12  13
HETATM   13  C9  UNL     1      23.390   3.175  49.924  1.00  0.00    -0.048 A 
HETATM   14  C10 UNL     1      23.346   3.064  48.613  1.00  0.00     0.007 A 
HETATM   15  C11 UNL     1      22.510   2.260  48.027  1.00  0.00     0.002 A 
HETATM   16  C12 UNL     1      21.607   1.425  48.728  1.00  0.00     0.019 A 
HETATM   17  C13 UNL     1      21.627   1.510  50.178  1.00  0.00     0.011 A 
HETATM   18 BR2  UNL     1      20.418   0.484  51.141  1.00  0.00    -0.051 Br
HETATM   19  C14 UNL     1      22.556   2.423  50.722  1.00  0.00     0.026 A 
ENDBRANCH  12  13
ENDBRANCH   9  12
ENDBRANCH   5   8
ENDBRANCH   3   5
BRANCH   4  20
HETATM   20  N1  UNL     1      24.726   0.108  53.063  1.00  0.00    -0.257 NA
BRANCH  20  21
HETATM   21  C5  UNL     1      23.557  -0.288  53.571  1.00  0.00     0.092 C 
BRANCH  21  22
HETATM   22  C6  UNL     1      22.897  -0.970  54.561  1.00  0.00     0.090 C 
HETATM   23 BR1  UNL     1      21.126  -1.489  54.353  1.00  0.00    -0.061 Br
ENDBRANCH  21  22
ENDBRANCH  20  21
ENDBRANCH   4  20
TORSDOF 7
ENDMDL
