MODEL 1
REMARK VINA RESULT:      -7.8      0.000      0.000
REMARK  6 active torsions:
REMARK  status: ('A' for Active; 'I' for Inactive)
REMARK    1  A    between atoms: C2_3  and  C3_4 
REMARK    2  A    between atoms: C2_3  and  C9_12 
REMARK    3  A    between atoms: C12_16  and  N4_17 
REMARK    4  A    between atoms: N4_17  and  C13_18 
REMARK    5  A    between atoms: C13_18  and  C14_19 
REMARK    6  A    between atoms: C14_19  and  C15_20 
ROOT
HETATM    1  N1  UNL     1      17.284  -0.567  52.418  1.00  0.00    -0.196 NA
HETATM    2  C1  UNL     1      18.357  -0.192  52.133  1.00  0.00     0.077 C 
HETATM    3  C2  UNL     1      19.657   0.269  51.761  1.00  0.00     0.203 C 
ENDROOT
BRANCH   3   4
HETATM    4  C3  UNL     1      19.641   1.808  51.790  1.00  0.00     0.089 C 
HETATM    5  N2  UNL     1      19.460   3.012  52.426  1.00  0.00    -0.248 NA
HETATM    6  C4  UNL     1      20.530   3.891  51.818  1.00  0.00     0.056 C 
HETATM    7  C5  UNL     1      21.658   4.571  51.514  1.00  0.00     0.002 C 
HETATM    8  C8  UNL     1      19.599   4.261  50.709  1.00  0.00     0.134 C 
HETATM    9  C6  UNL     1      22.324   4.262  50.361  1.00  0.00     0.021 C 
HETATM   10  C7  UNL     1      21.907   2.861  49.863  1.00  0.00     0.042 C 
HETATM   11  S1  UNL     1      20.218   2.552  50.136  1.00  0.00    -0.141 SA
ENDBRANCH   3   4
BRANCH   3  12
HETATM   12  C9  UNL     1      20.767  -0.147  52.671  1.00  0.00     0.079 A 
HETATM   13  C10 UNL     1      20.484  -0.850  53.813  1.00  0.00     0.049 A 
HETATM   14  C11 UNL     1      21.583  -1.123  54.607  1.00  0.00     0.138 A 
HETATM   15  N3  UNL     1      22.854  -0.760  54.344  1.00  0.00    -0.075 NA
HETATM   16  C12 UNL     1      23.061  -0.063  53.191  1.00  0.00     0.722 A 
HETATM   17  N6  UNL     1      22.043   0.236  52.370  1.00  0.00    -0.066 NA
BRANCH  16  18
HETATM   18  N4  UNL     1      24.424   0.299  53.026  1.00  0.00    -0.222 N 
HETATM   19  H8  UNL     1      24.975  -0.363  53.651  1.00  0.00     0.177 HD
BRANCH  18  20
HETATM   20  C13 UNL     1      25.103   1.321  52.224  1.00  0.00     0.142 C 
BRANCH  20  21
HETATM   21  C14 UNL     1      26.445   0.760  51.747  1.00  0.00     0.060 C 
BRANCH  21  22
HETATM   22  C15 UNL     1      27.479   0.879  52.780  1.00  0.00    -0.039 A 
HETATM   23  C16 UNL     1      28.126  -0.107  53.471  1.00  0.00     0.010 A 
HETATM   24  C17 UNL     1      29.070   0.230  54.414  1.00  0.00     0.020 A 
HETATM   25  C18 UNL     1      29.386   1.549  54.683  1.00  0.00     0.116 A 
HETATM   26  N5  UNL     1      28.734   2.519  53.987  1.00  0.00    -0.273 NA
HETATM   27  C19 UNL     1      27.810   2.204  53.065  1.00  0.00     0.123 A 
ENDBRANCH  21  22
ENDBRANCH  20  21
ENDBRANCH  18  20
ENDBRANCH  16  18
ENDBRANCH   3  12
TORSDOF 6
ENDMDL
MODEL 2
REMARK VINA RESULT:      -7.7      3.363      6.020
REMARK  6 active torsions:
REMARK  status: ('A' for Active; 'I' for Inactive)
REMARK    1  A    between atoms: C2_3  and  C3_4 
REMARK    2  A    between atoms: C2_3  and  C9_12 
REMARK    3  A    between atoms: C12_16  and  N4_17 
REMARK    4  A    between atoms: N4_17  and  C13_18 
REMARK    5  A    between atoms: C13_18  and  C14_19 
REMARK    6  A    between atoms: C14_19  and  C15_20 
ROOT
HETATM    1  N1  UNL     1      22.271  -2.004  55.273  1.00  0.00    -0.196 NA
HETATM    2  C1  UNL     1      22.777  -1.091  54.741  1.00  0.00     0.077 C 
HETATM    3  C2  UNL     1      23.405   0.030  54.115  1.00  0.00     0.203 C 
ENDROOT
BRANCH   3   4
HETATM    4  C3  UNL     1      24.863  -0.353  53.808  1.00  0.00     0.089 C 
HETATM    5  N2  UNL     1      25.815  -1.122  53.183  1.00  0.00    -0.248 NA
HETATM    6  C4  UNL     1      26.913  -0.130  52.871  1.00  0.00     0.056 C 
HETATM    7  C5  UNL     1      27.738   0.789  52.322  1.00  0.00     0.002 C 
HETATM    8  C8  UNL     1      27.513  -0.366  54.219  1.00  0.00     0.134 C 
HETATM    9  C6  UNL     1      27.828   2.024  52.901  1.00  0.00     0.021 C 
HETATM   10  C7  UNL     1      26.601   2.280  53.805  1.00  0.00     0.042 C 
HETATM   11  S1  UNL     1      26.095   0.839  54.635  1.00  0.00    -0.141 SA
ENDBRANCH   3   4
BRANCH   3  12
HETATM   12  C9  UNL     1      22.807   0.449  52.811  1.00  0.00     0.079 A 
HETATM   13  C10 UNL     1      21.706  -0.204  52.324  1.00  0.00     0.049 A 
HETATM   14  C11 UNL     1      21.283   0.229  51.080  1.00  0.00     0.138 A 
HETATM   15  N3  UNL     1      21.856   1.206  50.351  1.00  0.00    -0.075 NA
HETATM   16  C12 UNL     1      22.948   1.813  50.897  1.00  0.00     0.722 A 
HETATM   17  N6  UNL     1      23.414   1.446  52.100  1.00  0.00    -0.066 NA
BRANCH  16  18
HETATM   18  N4  UNL     1      23.494   2.801  50.036  1.00  0.00    -0.222 N 
HETATM   19  H8  UNL     1      22.695   3.104  49.402  1.00  0.00     0.177 HD
BRANCH  18  20
HETATM   20  C13 UNL     1      24.829   3.392  49.903  1.00  0.00     0.142 C 
BRANCH  20  21
HETATM   21  C14 UNL     1      24.684   4.809  49.342  1.00  0.00     0.060 C 
BRANCH  21  22
HETATM   22  C15 UNL     1      25.977   5.357  48.918  1.00  0.00    -0.039 A 
HETATM   23  C16 UNL     1      26.276   6.614  48.469  1.00  0.00     0.010 A 
HETATM   24  C17 UNL     1      27.569   6.919  48.114  1.00  0.00     0.020 A 
HETATM   25  C18 UNL     1      28.584   5.984  48.200  1.00  0.00     0.116 A 
HETATM   26  N5  UNL     1      28.271   4.738  48.649  1.00  0.00    -0.273 NA
HETATM   27  C19 UNL     1      27.013   4.426  48.998  1.00  0.00     0.123 A 
ENDBRANCH  21  22
ENDBRANCH  20  21
ENDBRANCH  18  20
ENDBRANCH  16  18
ENDBRANCH   3  12
TORSDOF 6
ENDMDL
MODEL 3
REMARK VINA RESULT:      -7.7      3.380      5.232
REMARK  6 active torsions:
REMARK  status: ('A' for Active; 'I' for Inactive)
REMARK    1  A    between atoms: C2_3  and  C3_4 
REMARK    2  A    between atoms: C2_3  and  C9_12 
REMARK    3  A    between atoms: C12_16  and  N4_17 
REMARK    4  A    between atoms: N4_17  and  C13_18 
REMARK    5  A    between atoms: C13_18  and  C14_19 
REMARK    6  A    between atoms: C14_19  and  C15_20 
ROOT
HETATM    1  N1  UNL     1      22.298  -1.326  55.459  1.00  0.00    -0.196 NA
HETATM    2  C1  UNL     1      22.717  -1.037  54.404  1.00  0.00     0.077 C 
HETATM    3  C2  UNL     1      23.215  -0.704  53.106  1.00  0.00     0.203 C 
ENDROOT
BRANCH   3   4
HETATM    4  C3  UNL     1      22.167   0.182  52.410  1.00  0.00     0.089 C 
HETATM    5  N2  UNL     1      21.706   0.913  51.341  1.00  0.00    -0.248 NA
HETATM    6  C4  UNL     1      20.217   0.652  51.358  1.00  0.00     0.056 C 
HETATM    7  C5  UNL     1      18.962   0.182  51.183  1.00  0.00     0.002 C 
HETATM    8  C8  UNL     1      20.025   1.792  52.304  1.00  0.00     0.134 C 
HETATM    9  C6  UNL     1      18.299  -0.344  52.257  1.00  0.00     0.021 C 
HETATM   10  C7  UNL     1      19.302  -0.727  53.367  1.00  0.00     0.042 C 
HETATM   11  S1  UNL     1      20.611   0.411  53.481  1.00  0.00    -0.141 SA
ENDBRANCH   3   4
BRANCH   3  12
HETATM   12  C9  UNL     1      24.489   0.077  53.092  1.00  0.00     0.079 A 
HETATM   13  C10 UNL     1      25.545  -0.329  53.864  1.00  0.00     0.049 A 
HETATM   14  C11 UNL     1      26.646   0.508  53.819  1.00  0.00     0.138 A 
HETATM   15  N3  UNL     1      26.743   1.642  53.099  1.00  0.00    -0.075 NA
HETATM   16  C12 UNL     1      25.653   1.985  52.353  1.00  0.00     0.722 A 
HETATM   17  N6  UNL     1      24.551   1.220  52.347  1.00  0.00    -0.066 NA
BRANCH  16  18
HETATM   18  N4  UNL     1      25.845   3.210  51.662  1.00  0.00    -0.222 N 
HETATM   19  H8  UNL     1      26.348   3.851  52.347  1.00  0.00     0.177 HD
BRANCH  18  20
HETATM   20  C13 UNL     1      25.497   3.668  50.314  1.00  0.00     0.142 C 
BRANCH  20  21
HETATM   21  C14 UNL     1      26.738   3.561  49.423  1.00  0.00     0.060 C 
BRANCH  21  22
HETATM   22  C15 UNL     1      27.161   4.874  48.924  1.00  0.00    -0.039 A 
HETATM   23  C16 UNL     1      28.350   5.239  48.358  1.00  0.00     0.010 A 
HETATM   24  C17 UNL     1      28.542   6.542  47.961  1.00  0.00     0.020 A 
HETATM   25  C18 UNL     1      27.558   7.500  48.118  1.00  0.00     0.116 A 
HETATM   26  N5  UNL     1      26.379   7.121  48.682  1.00  0.00    -0.273 NA
HETATM   27  C19 UNL     1      26.179   5.853  49.076  1.00  0.00     0.123 A 
ENDBRANCH  21  22
ENDBRANCH  20  21
ENDBRANCH  18  20
ENDBRANCH  16  18
ENDBRANCH   3  12
TORSDOF 6
ENDMDL
MODEL 4
REMARK VINA RESULT:      -7.6      2.522      8.019
REMARK  6 active torsions:
REMARK  status: ('A' for Active; 'I' for Inactive)
REMARK    1  A    between atoms: C2_3  and  C3_4 
REMARK    2  A    between atoms: C2_3  and  C9_12 
REMARK    3  A    between atoms: C12_16  and  N4_17 
REMARK    4  A    between atoms: N4_17  and  C13_18 
REMARK    5  A    between atoms: C13_18  and  C14_19 
REMARK    6  A    between atoms: C14_19  and  C15_20 
ROOT
HETATM    1  N1  UNL     1      22.526   2.797  51.255  1.00  0.00    -0.196 NA
HETATM    2  C1  UNL     1      23.113   1.889  51.706  1.00  0.00     0.077 C 
HETATM    3  C2  UNL     1      23.844   0.782  52.237  1.00  0.00     0.203 C 
ENDROOT
BRANCH   3   4
HETATM    4  C3  UNL     1      25.122   1.329  52.897  1.00  0.00     0.089 C 
HETATM    5  N2  UNL     1      25.780   2.066  53.852  1.00  0.00    -0.248 NA
HETATM    6  C4  UNL     1      27.016   1.243  54.136  1.00  0.00     0.056 C 
HETATM    7  C5  UNL     1      27.940   0.377  54.610  1.00  0.00     0.002 C 
HETATM    8  C8  UNL     1      27.733   1.928  53.018  1.00  0.00     0.134 C 
HETATM    9  C6  UNL     1      28.384  -0.625  53.793  1.00  0.00     0.021 C 
HETATM   10  C7  UNL     1      27.386  -0.853  52.637  1.00  0.00     0.042 C 
HETATM   11  S1  UNL     1      26.693   0.638  52.074  1.00  0.00    -0.141 SA
ENDBRANCH   3   4
BRANCH   3  12
HETATM   12  C9  UNL     1      23.137  -0.001  53.296  1.00  0.00     0.079 A 
HETATM   13  C10 UNL     1      23.861  -0.656  54.257  1.00  0.00     0.049 A 
HETATM   14  C11 UNL     1      23.102  -1.399  55.143  1.00  0.00     0.138 A 
HETATM   15  N3  UNL     1      21.760  -1.515  55.124  1.00  0.00    -0.075 NA
HETATM   16  C12 UNL     1      21.104  -0.835  54.140  1.00  0.00     0.722 A 
HETATM   17  N6  UNL     1      21.775  -0.093  53.246  1.00  0.00    -0.066 NA
BRANCH  16  18
HETATM   18  N4  UNL     1      19.702  -1.051  54.188  1.00  0.00    -0.222 N 
HETATM   19  H8  UNL     1      19.328  -0.352  54.899  1.00  0.00     0.177 HD
BRANCH  18  20
HETATM   20  C13 UNL     1      18.802  -1.977  53.494  1.00  0.00     0.142 C 
BRANCH  20  21
HETATM   21  C14 UNL     1      17.415  -1.337  53.401  1.00  0.00     0.060 C 
BRANCH  21  22
HETATM   22  C15 UNL     1      17.109  -0.904  52.034  1.00  0.00    -0.039 A 
HETATM   23  C16 UNL     1      17.865  -0.153  51.177  1.00  0.00     0.010 A 
HETATM   24  C17 UNL     1      17.379   0.147  49.926  1.00  0.00     0.020 A 
HETATM   25  C18 UNL     1      16.138  -0.294  49.506  1.00  0.00     0.116 A 
HETATM   26  N5  UNL     1      15.397  -1.041  50.369  1.00  0.00    -0.273 NA
HETATM   27  C19 UNL     1      15.859  -1.340  51.594  1.00  0.00     0.123 A 
ENDBRANCH  21  22
ENDBRANCH  20  21
ENDBRANCH  18  20
ENDBRANCH  16  18
ENDBRANCH   3  12
TORSDOF 6
ENDMDL
MODEL 5
REMARK VINA RESULT:      -7.5      3.137      4.415
REMARK  6 active torsions:
REMARK  status: ('A' for Active; 'I' for Inactive)
REMARK    1  A    between atoms: C2_3  and  C3_4 
REMARK    2  A    between atoms: C2_3  and  C9_12 
REMARK    3  A    between atoms: C12_16  and  N4_17 
REMARK    4  A    between atoms: N4_17  and  C13_18 
REMARK    5  A    between atoms: C13_18  and  C14_19 
REMARK    6  A    between atoms: C14_19  and  C15_20 
ROOT
HETATM    1  N1  UNL     1      21.255  -1.690  54.902  1.00  0.00    -0.196 NA
HETATM    2  C1  UNL     1      21.820  -1.204  53.998  1.00  0.00     0.077 C 
HETATM    3  C2  UNL     1      22.491  -0.620  52.879  1.00  0.00     0.203 C 
ENDROOT
BRANCH   3   4
HETATM    4  C3  UNL     1      21.792   0.710  52.547  1.00  0.00     0.089 C 
HETATM    5  N2  UNL     1      21.538   2.042  52.770  1.00  0.00    -0.248 NA
HETATM    6  C4  UNL     1      21.390   2.606  51.375  1.00  0.00     0.056 C 
HETATM    7  C5  UNL     1      21.566   3.160  50.154  1.00  0.00     0.002 C 
HETATM    8  C8  UNL     1      19.936   2.259  51.386  1.00  0.00     0.134 C 
HETATM    9  C6  UNL     1      21.367   2.387  49.044  1.00  0.00     0.021 C 
HETATM   10  C7  UNL     1      21.437   0.890  49.417  1.00  0.00     0.042 C 
HETATM   11  S1  UNL     1      20.729   0.575  50.973  1.00  0.00    -0.141 SA
ENDBRANCH   3   4
BRANCH   3  12
HETATM   12  C9  UNL     1      23.930  -0.282  53.103  1.00  0.00     0.079 A 
HETATM   13  C10 UNL     1      24.541  -0.645  54.274  1.00  0.00     0.049 A 
HETATM   14  C11 UNL     1      25.852  -0.222  54.395  1.00  0.00     0.138 A 
HETATM   15  N3  UNL     1      26.537   0.489  53.478  1.00  0.00    -0.075 NA
HETATM   16  C12 UNL     1      25.866   0.815  52.336  1.00  0.00     0.722 A 
HETATM   17  N6  UNL     1      24.593   0.438  52.149  1.00  0.00    -0.066 NA
BRANCH  16  18
HETATM   18  N4  UNL     1      26.663   1.591  51.454  1.00  0.00    -0.222 N 
HETATM   19  H8  UNL     1      27.371   0.915  51.036  1.00  0.00     0.177 HD
BRANCH  18  20
HETATM   20  C13 UNL     1      26.660   3.008  51.079  1.00  0.00     0.142 C 
BRANCH  20  21
HETATM   21  C14 UNL     1      26.414   3.117  49.572  1.00  0.00     0.060 C 
BRANCH  21  22
HETATM   22  C15 UNL     1      26.741   4.454  49.066  1.00  0.00    -0.039 A 
HETATM   23  C16 UNL     1      27.934   4.933  48.601  1.00  0.00     0.010 A 
HETATM   24  C17 UNL     1      28.023   6.238  48.175  1.00  0.00     0.020 A 
HETATM   25  C18 UNL     1      26.932   7.085  48.202  1.00  0.00     0.116 A 
HETATM   26  N5  UNL     1      25.751   6.594  48.667  1.00  0.00    -0.273 NA
HETATM   27  C19 UNL     1      25.650   5.323  49.087  1.00  0.00     0.123 A 
ENDBRANCH  21  22
ENDBRANCH  20  21
ENDBRANCH  18  20
ENDBRANCH  16  18
ENDBRANCH   3  12
TORSDOF 6
ENDMDL
MODEL 6
REMARK VINA RESULT:      -7.5      4.685      7.150
REMARK  6 active torsions:
REMARK  status: ('A' for Active; 'I' for Inactive)
REMARK    1  A    between atoms: C2_3  and  C3_4 
REMARK    2  A    between atoms: C2_3  and  C9_12 
REMARK    3  A    between atoms: C12_16  and  N4_17 
REMARK    4  A    between atoms: N4_17  and  C13_18 
REMARK    5  A    between atoms: C13_18  and  C14_19 
REMARK    6  A    between atoms: C14_19  and  C15_20 
ROOT
HETATM    1  N1  UNL     1      23.186  -0.501  53.034  1.00  0.00    -0.196 NA
HETATM    2  C1  UNL     1      23.611   0.589  52.991  1.00  0.00     0.077 C 
HETATM    3  C2  UNL     1      24.125   1.923  52.963  1.00  0.00     0.203 C 
ENDROOT
BRANCH   3   4
HETATM    4  C3  UNL     1      25.593   1.874  53.421  1.00  0.00     0.089 C 
HETATM    5  N2  UNL     1      26.595   2.123  54.329  1.00  0.00    -0.248 NA
HETATM    6  C4  UNL     1      27.494   0.915  54.193  1.00  0.00     0.056 C 
HETATM    7  C5  UNL     1      28.117  -0.281  54.298  1.00  0.00     0.002 C 
HETATM    8  C8  UNL     1      28.239   1.590  53.087  1.00  0.00     0.134 C 
HETATM    9  C6  UNL     1      28.064  -1.147  53.242  1.00  0.00     0.021 C 
HETATM   10  C7  UNL     1      26.895  -0.773  52.303  1.00  0.00     0.042 C 
HETATM   11  S1  UNL     1      26.693   0.948  52.173  1.00  0.00    -0.141 SA
ENDBRANCH   3   4
BRANCH   3  12
HETATM   12  C9  UNL     1      24.136   2.575  51.618  1.00  0.00     0.079 A 
HETATM   13  C10 UNL     1      23.231   2.188  50.665  1.00  0.00     0.049 A 
HETATM   14  C11 UNL     1      23.380   2.815  49.441  1.00  0.00     0.138 A 
HETATM   15  N3  UNL     1      24.312   3.739  49.139  1.00  0.00    -0.075 NA
HETATM   16  C12 UNL     1      25.180   4.076  50.136  1.00  0.00     0.722 A 
HETATM   17  N6  UNL     1      25.095   3.510  51.349  1.00  0.00    -0.066 NA
BRANCH  16  18
HETATM   18  N4  UNL     1      26.141   5.028  49.705  1.00  0.00    -0.222 N 
HETATM   19  H8  UNL     1      25.961   5.902  50.286  1.00  0.00     0.177 HD
BRANCH  18  20
HETATM   20  C13 UNL     1      27.210   4.996  48.702  1.00  0.00     0.142 C 
BRANCH  20  21
HETATM   21  C14 UNL     1      27.468   6.423  48.213  1.00  0.00     0.060 C 
BRANCH  21  22
HETATM   22  C15 UNL     1      28.860   6.606  47.791  1.00  0.00    -0.039 A 
HETATM   23  C16 UNL     1      29.448   7.692  47.203  1.00  0.00     0.010 A 
HETATM   24  C17 UNL     1      30.784   7.650  46.879  1.00  0.00     0.020 A 
HETATM   25  C18 UNL     1      31.557   6.533  47.135  1.00  0.00     0.116 A 
HETATM   26  N5  UNL     1      30.958   5.460  47.722  1.00  0.00    -0.273 NA
HETATM   27  C19 UNL     1      29.654   5.487  48.041  1.00  0.00     0.123 A 
ENDBRANCH  21  22
ENDBRANCH  20  21
ENDBRANCH  18  20
ENDBRANCH  16  18
ENDBRANCH   3  12
TORSDOF 6
ENDMDL
MODEL 7
REMARK VINA RESULT:      -7.5      2.234      7.137
REMARK  6 active torsions:
REMARK  status: ('A' for Active; 'I' for Inactive)
REMARK    1  A    between atoms: C2_3  and  C3_4 
REMARK    2  A    between atoms: C2_3  and  C9_12 
REMARK    3  A    between atoms: C12_16  and  N4_17 
REMARK    4  A    between atoms: N4_17  and  C13_18 
REMARK    5  A    between atoms: C13_18  and  C14_19 
REMARK    6  A    between atoms: C14_19  and  C15_20 
ROOT
HETATM    1  N1  UNL     1      23.177   2.952  51.556  1.00  0.00    -0.196 NA
HETATM    2  C1  UNL     1      23.701   1.995  51.983  1.00  0.00     0.077 C 
HETATM    3  C2  UNL     1      24.356   0.828  52.484  1.00  0.00     0.203 C 
ENDROOT
BRANCH   3   4
HETATM    4  C3  UNL     1      25.616   1.280  53.242  1.00  0.00     0.089 C 
HETATM    5  N2  UNL     1      26.249   1.881  54.303  1.00  0.00    -0.248 NA
HETATM    6  C4  UNL     1      27.480   1.026  54.503  1.00  0.00     0.056 C 
HETATM    7  C5  UNL     1      28.395   0.103  54.878  1.00  0.00     0.002 C 
HETATM    8  C8  UNL     1      28.222   1.856  53.505  1.00  0.00     0.134 C 
HETATM    9  C6  UNL     1      28.861  -0.780  53.944  1.00  0.00     0.021 C 
HETATM   10  C7  UNL     1      27.891  -0.849  52.744  1.00  0.00     0.042 C 
HETATM   11  S1  UNL     1      27.208   0.706  52.371  1.00  0.00    -0.141 SA
ENDBRANCH   3   4
BRANCH   3  12
HETATM   12  C9  UNL     1      23.560   0.017  53.455  1.00  0.00     0.079 A 
HETATM   13  C10 UNL     1      24.195  -0.636  54.478  1.00  0.00     0.049 A 
HETATM   14  C11 UNL     1      23.364  -1.406  55.273  1.00  0.00     0.138 A 
HETATM   15  N3  UNL     1      22.034  -1.548  55.114  1.00  0.00    -0.075 NA
HETATM   16  C12 UNL     1      21.469  -0.868  54.075  1.00  0.00     0.722 A 
HETATM   17  N6  UNL     1      22.212  -0.101  53.264  1.00  0.00    -0.066 NA
BRANCH  16  18
HETATM   18  N4  UNL     1      20.074  -1.112  53.976  1.00  0.00    -0.222 N 
HETATM   19  H8  UNL     1      19.924  -2.089  54.372  1.00  0.00     0.177 HD
BRANCH  18  20
HETATM   20  C13 UNL     1      18.948  -0.320  53.472  1.00  0.00     0.142 C 
BRANCH  20  21
HETATM   21  C14 UNL     1      18.803  -0.574  51.970  1.00  0.00     0.060 C 
BRANCH  21  22
HETATM   22  C15 UNL     1      19.282   0.565  51.180  1.00  0.00    -0.039 A 
HETATM   23  C16 UNL     1      20.279   0.608  50.245  1.00  0.00     0.010 A 
HETATM   24  C17 UNL     1      20.573   1.797  49.620  1.00  0.00     0.020 A 
HETATM   25  C18 UNL     1      19.884   2.960  49.911  1.00  0.00     0.116 A 
HETATM   26  N5  UNL     1      18.895   2.901  50.844  1.00  0.00    -0.273 NA
HETATM   27  C19 UNL     1      18.598   1.747  51.463  1.00  0.00     0.123 A 
ENDBRANCH  21  22
ENDBRANCH  20  21
ENDBRANCH  18  20
ENDBRANCH  16  18
ENDBRANCH   3  12
TORSDOF 6
ENDMDL
MODEL 8
REMARK VINA RESULT:      -7.4      3.360      5.552
REMARK  6 active torsions:
REMARK  status: ('A' for Active; 'I' for Inactive)
REMARK    1  A    between atoms: C2_3  and  C3_4 
REMARK    2  A    between atoms: C2_3  and  C9_12 
REMARK    3  A    between atoms: C12_16  and  N4_17 
REMARK    4  A    between atoms: N4_17  and  C13_18 
REMARK    5  A    between atoms: C13_18  and  C14_19 
REMARK    6  A    between atoms: C14_19  and  C15_20 
ROOT
HETATM    1  N1  UNL     1      23.215   7.427  47.628  1.00  0.00    -0.196 NA
HETATM    2  C1  UNL     1      23.268   6.481  48.317  1.00  0.00     0.077 C 
HETATM    3  C2  UNL     1      23.311   5.332  49.166  1.00  0.00     0.203 C 
ENDROOT
BRANCH   3   4
HETATM    4  C3  UNL     1      22.516   4.206  48.480  1.00  0.00     0.089 C 
HETATM    5  N2  UNL     1      22.306   3.311  47.459  1.00  0.00    -0.248 NA
HETATM    6  C4  UNL     1      21.759   2.094  48.171  1.00  0.00     0.056 C 
HETATM    7  C5  UNL     1      21.573   0.924  48.822  1.00  0.00     0.002 C 
HETATM    8  C8  UNL     1      20.376   2.647  48.060  1.00  0.00     0.134 C 
HETATM    9  C6  UNL     1      21.087   0.950  50.100  1.00  0.00     0.021 C 
HETATM   10  C7  UNL     1      21.293   2.351  50.719  1.00  0.00     0.042 C 
HETATM   11  S1  UNL     1      21.058   3.617  49.553  1.00  0.00    -0.141 SA
ENDBRANCH   3   4
BRANCH   3  12
HETATM   12  C9  UNL     1      24.675   4.777  49.420  1.00  0.00     0.079 A 
HETATM   13  C10 UNL     1      25.771   5.380  48.863  1.00  0.00     0.049 A 
HETATM   14  C11 UNL     1      26.971   4.739  49.115  1.00  0.00     0.138 A 
HETATM   15  N3  UNL     1      27.125   3.614  49.839  1.00  0.00    -0.075 NA
HETATM   16  C12 UNL     1      25.990   3.068  50.363  1.00  0.00     0.722 A 
HETATM   17  N6  UNL     1      24.792   3.635  50.162  1.00  0.00    -0.066 NA
BRANCH  16  18
HETATM   18  N4  UNL     1      26.257   1.870  51.077  1.00  0.00    -0.222 N 
HETATM   19  H8  UNL     1      26.645   1.187  50.359  1.00  0.00     0.177 HD
BRANCH  18  20
HETATM   20  C13 UNL     1      26.097   1.479  52.481  1.00  0.00     0.142 C 
BRANCH  20  21
HETATM   21  C14 UNL     1      25.914  -0.040  52.550  1.00  0.00     0.060 C 
BRANCH  21  22
HETATM   22  C15 UNL     1      27.172  -0.722  52.869  1.00  0.00    -0.039 A 
HETATM   23  C16 UNL     1      28.343  -0.197  53.341  1.00  0.00     0.010 A 
HETATM   24  C17 UNL     1      29.417  -1.026  53.569  1.00  0.00     0.020 A 
HETATM   25  C18 UNL     1      29.345  -2.387  53.335  1.00  0.00     0.116 A 
HETATM   26  N5  UNL     1      28.173  -2.895  52.865  1.00  0.00    -0.273 NA
HETATM   27  C19 UNL     1      27.118  -2.096  52.637  1.00  0.00     0.123 A 
ENDBRANCH  21  22
ENDBRANCH  20  21
ENDBRANCH  18  20
ENDBRANCH  16  18
ENDBRANCH   3  12
TORSDOF 6
ENDMDL
MODEL 9
REMARK VINA RESULT:      -7.3      1.773      2.848
REMARK  6 active torsions:
REMARK  status: ('A' for Active; 'I' for Inactive)
REMARK    1  A    between atoms: C2_3  and  C3_4 
REMARK    2  A    between atoms: C2_3  and  C9_12 
REMARK    3  A    between atoms: C12_16  and  N4_17 
REMARK    4  A    between atoms: N4_17  and  C13_18 
REMARK    5  A    between atoms: C13_18  and  C14_19 
REMARK    6  A    between atoms: C14_19  and  C15_20 
ROOT
HETATM    1  N1  UNL     1      17.840   2.222  49.090  1.00  0.00    -0.196 NA
HETATM    2  C1  UNL     1      18.782   1.871  49.692  1.00  0.00     0.077 C 
HETATM    3  C2  UNL     1      19.946   1.449  50.406  1.00  0.00     0.203 C 
ENDROOT
BRANCH   3   4
HETATM    4  C3  UNL     1      20.584   2.692  51.051  1.00  0.00     0.089 C 
HETATM    5  N2  UNL     1      20.664   3.649  52.033  1.00  0.00    -0.248 NA
HETATM    6  C4  UNL     1      22.153   3.863  52.189  1.00  0.00     0.056 C 
HETATM    7  C5  UNL     1      23.457   3.829  52.545  1.00  0.00     0.002 C 
HETATM    8  C8  UNL     1      22.122   4.887  51.102  1.00  0.00     0.134 C 
HETATM    9  C6  UNL     1      24.380   3.414  51.627  1.00  0.00     0.021 C 
HETATM   10  C7  UNL     1      23.690   2.610  50.502  1.00  0.00     0.042 C 
HETATM   11  S1  UNL     1      22.131   3.265  50.100  1.00  0.00    -0.141 SA
ENDBRANCH   3   4
BRANCH   3  12
HETATM   12  C9  UNL     1      19.696   0.488  51.523  1.00  0.00     0.079 A 
HETATM   13  C10 UNL     1      18.457  -0.076  51.672  1.00  0.00     0.049 A 
HETATM   14  C11 UNL     1      18.327  -0.896  52.779  1.00  0.00     0.138 A 
HETATM   15  N3  UNL     1      19.295  -1.165  53.677  1.00  0.00    -0.075 NA
HETATM   16  C12 UNL     1      20.503  -0.569  53.465  1.00  0.00     0.722 A 
HETATM   17  N6  UNL     1      20.703   0.238  52.413  1.00  0.00    -0.066 NA
BRANCH  16  18
HETATM   18  N4  UNL     1      21.439  -0.889  54.484  1.00  0.00    -0.222 N 
HETATM   19  H8  UNL     1      20.860  -1.090  55.354  1.00  0.00     0.177 HD
BRANCH  18  20
HETATM   20  C13 UNL     1      22.902  -0.972  54.514  1.00  0.00     0.142 C 
BRANCH  20  21
HETATM   21  C14 UNL     1      23.466  -0.141  53.359  1.00  0.00     0.060 C 
BRANCH  21  22
HETATM   22  C15 UNL     1      24.932  -0.129  53.366  1.00  0.00    -0.039 A 
HETATM   23  C16 UNL     1      25.798   0.120  52.337  1.00  0.00     0.010 A 
HETATM   24  C17 UNL     1      27.154   0.073  52.564  1.00  0.00     0.020 A 
HETATM   25  C18 UNL     1      27.671  -0.221  53.812  1.00  0.00     0.116 A 
HETATM   26  N5  UNL     1      26.797  -0.467  54.825  1.00  0.00    -0.273 NA
HETATM   27  C19 UNL     1      25.471  -0.425  54.618  1.00  0.00     0.123 A 
ENDBRANCH  21  22
ENDBRANCH  20  21
ENDBRANCH  18  20
ENDBRANCH  16  18
ENDBRANCH   3  12
TORSDOF 6
ENDMDL
