MODEL 1
REMARK VINA RESULT:      -7.8      0.000      0.000
REMARK  6 active torsions:
REMARK  status: ('A' for Active; 'I' for Inactive)
REMARK    1  A    between atoms: O1_2  and  C2_3 
REMARK    2  A    between atoms: C5_6  and  O2_7 
REMARK    3  A    between atoms: O2_7  and  C6_8 
REMARK    4  A    between atoms: C6_8  and  N1_9 
REMARK    5  A    between atoms: C7_10  and  C8_11 
REMARK    6  A    between atoms: N2_15  and  C12_16 
ROOT
HETATM    1  C8  UNL     1      25.292   2.761  51.972  1.00  0.00    -0.016 A 
HETATM    2  C9  UNL     1      26.156   2.349  50.972  1.00  0.00     0.013 A 
HETATM    3  C10 UNL     1      26.224   3.301  49.969  1.00  0.00     0.034 A 
HETATM    4  C11 UNL     1      25.401   4.357  50.296  1.00  0.00     0.083 A 
HETATM    5  N2  UNL     1      25.081   5.521  49.715  1.00  0.00    -0.255 N 
HETATM    6  N3  UNL     1      24.230   6.335  50.317  1.00  0.00    -0.164 NA
HETATM    7  C17 UNL     1      23.672   6.010  51.517  1.00  0.00     0.255 A 
HETATM    8  N4  UNL     1      23.939   4.861  52.166  1.00  0.00    -0.237 NA
HETATM    9  C18 UNL     1      24.807   4.005  51.581  1.00  0.00     0.093 A 
ENDROOT
BRANCH   1  10
HETATM   10  C7  UNL     1      24.899   2.086  53.236  1.00  0.00     0.084 A 
HETATM   11  C5  UNL     1      26.079   1.368  53.761  1.00  0.00     0.057 A 
HETATM   12  C4  UNL     1      26.377   0.131  54.110  1.00  0.00     0.035 A 
HETATM   13  C3  UNL     1      25.275  -0.803  53.948  1.00  0.00     0.035 A 
HETATM   14  C2  UNL     1      24.191  -0.216  53.481  1.00  0.00     0.046 A 
HETATM   15  C19 UNL     1      23.771   1.139  53.069  1.00  0.00     0.080 A 
BRANCH  11  16
HETATM   16  O2  UNL     1      27.106   2.312  53.896  1.00  0.00    -0.326 OA
BRANCH  16  17
HETATM   17  C6  UNL     1      28.425   2.102  53.493  1.00  0.00     0.441 C 
BRANCH  17  18
HETATM   18  N1  UNL     1      29.342   2.177  54.617  1.00  0.00     0.101 N 
HETATM   19  H8  UNL     1      30.328   1.972  54.320  1.00  0.00     0.315 HD
HETATM   20  H9  UNL     1      29.250   3.146  54.994  1.00  0.00     0.315 HD
ENDBRANCH  17  18
ENDBRANCH  16  17
ENDBRANCH  11  16
BRANCH  14  21
HETATM   21  O1  UNL     1      23.109  -1.083  53.312  1.00  0.00    -0.360 OA
HETATM   22  C1  UNL     1      22.107  -1.159  54.316  1.00  0.00     0.209 C 
ENDBRANCH  14  21
ENDBRANCH   1  10
BRANCH   5  23
HETATM   23  C12 UNL     1      25.659   5.890  48.442  1.00  0.00     0.157 A 
HETATM   24  C13 UNL     1      25.093   7.153  47.917  1.00  0.00     0.005 A 
HETATM   25  C14 UNL     1      26.056   8.043  47.725  1.00  0.00     0.017 A 
HETATM   26  C15 UNL     1      27.338   7.443  48.110  1.00  0.00     0.009 A 
HETATM   27 BR1  UNL     1      29.134   8.069  48.124  1.00  0.00    -0.051 Br
HETATM   28  C16 UNL     1      27.098   6.191  48.525  1.00  0.00     0.023 A 
ENDBRANCH   5  23
TORSDOF 6
ENDMDL
MODEL 2
REMARK VINA RESULT:      -7.7      3.830      6.951
REMARK  6 active torsions:
REMARK  status: ('A' for Active; 'I' for Inactive)
REMARK    1  A    between atoms: O1_2  and  C2_3 
REMARK    2  A    between atoms: C5_6  and  O2_7 
REMARK    3  A    between atoms: O2_7  and  C6_8 
REMARK    4  A    between atoms: C6_8  and  N1_9 
REMARK    5  A    between atoms: C7_10  and  C8_11 
REMARK    6  A    between atoms: N2_15  and  C12_16 
ROOT
HETATM    1  C8  UNL     1      23.294   4.586  50.643  1.00  0.00    -0.016 A 
HETATM    2  C9  UNL     1      22.676   4.020  51.744  1.00  0.00     0.013 A 
HETATM    3  C10 UNL     1      23.531   3.133  52.377  1.00  0.00     0.034 A 
HETATM    4  C11 UNL     1      24.728   3.103  51.697  1.00  0.00     0.083 A 
HETATM    5  N2  UNL     1      25.886   2.446  51.850  1.00  0.00    -0.255 N 
HETATM    6  N3  UNL     1      26.870   2.654  50.991  1.00  0.00    -0.164 NA
HETATM    7  C17 UNL     1      26.727   3.525  49.952  1.00  0.00     0.255 A 
HETATM    8  N4  UNL     1      25.598   4.224  49.727  1.00  0.00    -0.237 NA
HETATM    9  C18 UNL     1      24.570   4.037  50.586  1.00  0.00     0.093 A 
ENDROOT
BRANCH   1  10
HETATM   10  C7  UNL     1      22.783   5.580  49.665  1.00  0.00     0.084 A 
HETATM   11  C5  UNL     1      22.502   6.837  50.388  1.00  0.00     0.057 A 
HETATM   12  C4  UNL     1      21.470   7.641  50.560  1.00  0.00     0.035 A 
HETATM   13  C3  UNL     1      20.270   7.204  49.864  1.00  0.00     0.035 A 
HETATM   14  C2  UNL     1      20.461   6.083  49.198  1.00  0.00     0.046 A 
HETATM   15  C19 UNL     1      21.563   5.130  48.953  1.00  0.00     0.080 A 
BRANCH  11  16
HETATM   16  O2  UNL     1      23.688   7.211  51.037  1.00  0.00    -0.326 OA
BRANCH  16  17
HETATM   17  C6  UNL     1      24.722   7.926  50.434  1.00  0.00     0.441 C 
BRANCH  17  18
HETATM   18  N1  UNL     1      26.017   7.341  50.735  1.00  0.00     0.101 N 
HETATM   19  H8  UNL     1      26.771   8.071  50.758  1.00  0.00     0.315 HD
HETATM   20  H9  UNL     1      25.910   6.874  51.662  1.00  0.00     0.315 HD
ENDBRANCH  17  18
ENDBRANCH  16  17
ENDBRANCH  11  16
BRANCH  14  21
HETATM   21  O1  UNL     1      19.329   5.632  48.517  1.00  0.00    -0.360 OA
HETATM   22  C1  UNL     1      19.345   4.354  47.898  1.00  0.00     0.209 C 
ENDBRANCH  14  21
ENDBRANCH   1  10
BRANCH   5  23
HETATM   23  C12 UNL     1      26.065   1.517  52.943  1.00  0.00     0.157 A 
HETATM   24  C13 UNL     1      25.637   0.146  52.587  1.00  0.00     0.005 A 
HETATM   25  C14 UNL     1      26.644  -0.703  52.734  1.00  0.00     0.017 A 
HETATM   26  C15 UNL     1      27.822   0.038  53.198  1.00  0.00     0.009 A 
HETATM   27 BR1  UNL     1      29.607  -0.461  53.627  1.00  0.00    -0.051 Br
HETATM   28  C16 UNL     1      27.477   1.328  53.317  1.00  0.00     0.023 A 
ENDBRANCH   5  23
TORSDOF 6
ENDMDL
MODEL 3
REMARK VINA RESULT:      -7.7      3.206      4.461
REMARK  6 active torsions:
REMARK  status: ('A' for Active; 'I' for Inactive)
REMARK    1  A    between atoms: O1_2  and  C2_3 
REMARK    2  A    between atoms: C5_6  and  O2_7 
REMARK    3  A    between atoms: O2_7  and  C6_8 
REMARK    4  A    between atoms: C6_8  and  N1_9 
REMARK    5  A    between atoms: C7_10  and  C8_11 
REMARK    6  A    between atoms: N2_15  and  C12_16 
ROOT
HETATM    1  C8  UNL     1      24.053   2.421  52.163  1.00  0.00    -0.016 A 
HETATM    2  C9  UNL     1      24.082   3.318  53.217  1.00  0.00     0.013 A 
HETATM    3  C10 UNL     1      23.777   4.594  52.775  1.00  0.00     0.034 A 
HETATM    4  C11 UNL     1      23.544   4.554  51.417  1.00  0.00     0.083 A 
HETATM    5  N2  UNL     1      23.218   5.462  50.487  1.00  0.00    -0.255 N 
HETATM    6  N3  UNL     1      23.062   5.078  49.231  1.00  0.00    -0.164 NA
HETATM    7  C17 UNL     1      23.228   3.775  48.867  1.00  0.00     0.255 A 
HETATM    8  N4  UNL     1      23.555   2.802  49.738  1.00  0.00    -0.237 NA
HETATM    9  C18 UNL     1      23.721   3.158  51.032  1.00  0.00     0.093 A 
ENDROOT
BRANCH   1  10
HETATM   10  C7  UNL     1      24.308   0.957  52.145  1.00  0.00     0.084 A 
HETATM   11  C5  UNL     1      23.260   0.296  52.949  1.00  0.00     0.057 A 
HETATM   12  C4  UNL     1      23.211  -0.518  53.987  1.00  0.00     0.035 A 
HETATM   13  C3  UNL     1      24.521  -0.882  54.504  1.00  0.00     0.035 A 
HETATM   14  C2  UNL     1      25.499  -0.320  53.823  1.00  0.00     0.046 A 
HETATM   15  C19 UNL     1      25.646   0.588  52.667  1.00  0.00     0.080 A 
BRANCH  11  16
HETATM   16  O2  UNL     1      22.025   0.681  52.410  1.00  0.00    -0.326 OA
BRANCH  16  17
HETATM   17  C6  UNL     1      21.335  -0.039  51.433  1.00  0.00     0.441 C 
BRANCH  17  18
HETATM   18  N1  UNL     1      21.230   0.715  50.196  1.00  0.00     0.101 N 
HETATM   19  H8  UNL     1      22.173   0.869  49.761  1.00  0.00     0.315 HD
HETATM   20  H9  UNL     1      20.609   0.154  49.573  1.00  0.00     0.315 HD
ENDBRANCH  17  18
ENDBRANCH  16  17
ENDBRANCH  11  16
BRANCH  14  21
HETATM   21  O1  UNL     1      26.773  -0.647  54.290  1.00  0.00    -0.360 OA
HETATM   22  C1  UNL     1      27.677   0.388  54.648  1.00  0.00     0.209 C 
ENDBRANCH  14  21
ENDBRANCH   1  10
BRANCH   5  23
HETATM   23  C12 UNL     1      23.037   6.850  50.847  1.00  0.00     0.157 A 
HETATM   24  C13 UNL     1      23.727   7.765  49.912  1.00  0.00     0.005 A 
HETATM   25  C14 UNL     1      22.859   8.606  49.367  1.00  0.00     0.017 A 
HETATM   26  C15 UNL     1      21.523   8.315  49.897  1.00  0.00     0.009 A 
HETATM   27 BR1  UNL     1      19.799   9.066  49.608  1.00  0.00    -0.051 Br
HETATM   28  C16 UNL     1      21.635   7.293  50.756  1.00  0.00     0.023 A 
ENDBRANCH   5  23
TORSDOF 6
ENDMDL
MODEL 4
REMARK VINA RESULT:      -7.7      4.579      7.566
REMARK  6 active torsions:
REMARK  status: ('A' for Active; 'I' for Inactive)
REMARK    1  A    between atoms: O1_2  and  C2_3 
REMARK    2  A    between atoms: C5_6  and  O2_7 
REMARK    3  A    between atoms: O2_7  and  C6_8 
REMARK    4  A    between atoms: C6_8  and  N1_9 
REMARK    5  A    between atoms: C7_10  and  C8_11 
REMARK    6  A    between atoms: N2_15  and  C12_16 
ROOT
HETATM    1  C8  UNL     1      23.276   1.604  52.547  1.00  0.00    -0.016 A 
HETATM    2  C9  UNL     1      23.297   0.221  52.509  1.00  0.00     0.013 A 
HETATM    3  C10 UNL     1      22.025  -0.276  52.280  1.00  0.00     0.034 A 
HETATM    4  C11 UNL     1      21.146   0.779  52.166  1.00  0.00     0.083 A 
HETATM    5  N2  UNL     1      19.829   0.892  51.949  1.00  0.00    -0.255 N 
HETATM    6  N3  UNL     1      19.280   2.094  51.894  1.00  0.00    -0.164 NA
HETATM    7  C17 UNL     1      20.032   3.220  52.054  1.00  0.00     0.255 A 
HETATM    8  N4  UNL     1      21.359   3.194  52.275  1.00  0.00    -0.237 NA
HETATM    9  C18 UNL     1      21.955   1.981  52.338  1.00  0.00     0.093 A 
ENDROOT
BRANCH   1  10
HETATM   10  C7  UNL     1      24.383   2.572  52.762  1.00  0.00     0.084 A 
HETATM   11  C5  UNL     1      25.187   2.637  51.524  1.00  0.00     0.057 A 
HETATM   12  C4  UNL     1      26.450   2.465  51.185  1.00  0.00     0.035 A 
HETATM   13  C3  UNL     1      27.312   2.119  52.304  1.00  0.00     0.035 A 
HETATM   14  C2  UNL     1      26.647   2.047  53.440  1.00  0.00     0.046 A 
HETATM   15  C19 UNL     1      25.257   2.220  53.907  1.00  0.00     0.080 A 
BRANCH  11  16
HETATM   16  O2  UNL     1      24.310   2.972  50.483  1.00  0.00    -0.326 OA
BRANCH  16  17
HETATM   17  C6  UNL     1      24.228   4.237  49.900  1.00  0.00     0.441 C 
BRANCH  17  18
HETATM   18  N1  UNL     1      23.070   4.969  50.382  1.00  0.00     0.101 N 
HETATM   19  H8  UNL     1      23.352   5.760  51.013  1.00  0.00     0.315 HD
HETATM   20  H9  UNL     1      22.578   5.317  49.530  1.00  0.00     0.315 HD
ENDBRANCH  17  18
ENDBRANCH  16  17
ENDBRANCH  11  16
BRANCH  14  21
HETATM   21  O1  UNL     1      27.443   1.717  54.538  1.00  0.00    -0.360 OA
HETATM   22  C1  UNL     1      28.243   0.544  54.498  1.00  0.00     0.209 C 
ENDBRANCH  14  21
ENDBRANCH   1  10
BRANCH   5  23
HETATM   23  C12 UNL     1      19.009  -0.286  51.776  1.00  0.00     0.157 A 
HETATM   24  C13 UNL     1      18.582  -0.865  53.068  1.00  0.00     0.005 A 
HETATM   25  C14 UNL     1      17.259  -0.913  53.137  1.00  0.00     0.017 A 
HETATM   26  C15 UNL     1      16.702  -0.367  51.894  1.00  0.00     0.009 A 
HETATM   27 BR1  UNL     1      14.932  -0.103  51.248  1.00  0.00    -0.051 Br
HETATM   28  C16 UNL     1      17.726  -0.006  51.109  1.00  0.00     0.023 A 
ENDBRANCH   5  23
TORSDOF 6
ENDMDL
MODEL 5
REMARK VINA RESULT:      -7.5      4.236      6.886
REMARK  6 active torsions:
REMARK  status: ('A' for Active; 'I' for Inactive)
REMARK    1  A    between atoms: O1_2  and  C2_3 
REMARK    2  A    between atoms: C5_6  and  O2_7 
REMARK    3  A    between atoms: O2_7  and  C6_8 
REMARK    4  A    between atoms: C6_8  and  N1_9 
REMARK    5  A    between atoms: C7_10  and  C8_11 
REMARK    6  A    between atoms: N2_15  and  C12_16 
ROOT
HETATM    1  C8  UNL     1      21.869   1.641  51.353  1.00  0.00    -0.016 A 
HETATM    2  C9  UNL     1      21.655   0.621  52.264  1.00  0.00     0.013 A 
HETATM    3  C10 UNL     1      22.855   0.203  52.813  1.00  0.00     0.034 A 
HETATM    4  C11 UNL     1      23.880   0.944  52.267  1.00  0.00     0.083 A 
HETATM    5  N2  UNL     1      25.211   0.973  52.420  1.00  0.00    -0.255 N 
HETATM    6  N3  UNL     1      25.927   1.837  51.720  1.00  0.00    -0.164 NA
HETATM    7  C17 UNL     1      25.334   2.698  50.845  1.00  0.00     0.255 A 
HETATM    8  N4  UNL     1      24.006   2.733  50.633  1.00  0.00    -0.237 NA
HETATM    9  C18 UNL     1      23.241   1.864  51.332  1.00  0.00     0.093 A 
ENDROOT
BRANCH   1  10
HETATM   10  C7  UNL     1      20.900   2.400  50.520  1.00  0.00     0.084 A 
HETATM   11  C5  UNL     1      20.179   3.344  51.398  1.00  0.00     0.057 A 
HETATM   12  C4  UNL     1      18.923   3.606  51.706  1.00  0.00     0.035 A 
HETATM   13  C3  UNL     1      17.964   2.758  51.016  1.00  0.00     0.035 A 
HETATM   14  C2  UNL     1      18.553   1.892  50.215  1.00  0.00     0.046 A 
HETATM   15  C19 UNL     1      19.928   1.533  49.813  1.00  0.00     0.080 A 
BRANCH  11  16
HETATM   16  O2  UNL     1      21.147   4.133  52.035  1.00  0.00    -0.326 OA
BRANCH  16  17
HETATM   17  C6  UNL     1      21.644   5.332  51.525  1.00  0.00     0.441 C 
BRANCH  17  18
HETATM   18  N1  UNL     1      22.989   5.595  52.007  1.00  0.00     0.101 N 
HETATM   19  H8  UNL     1      23.701   5.029  51.483  1.00  0.00     0.315 HD
HETATM   20  H9  UNL     1      23.144   6.619  51.876  1.00  0.00     0.315 HD
ENDBRANCH  17  18
ENDBRANCH  16  17
ENDBRANCH  11  16
BRANCH  14  21
HETATM   21  O1  UNL     1      17.663   1.059  49.534  1.00  0.00    -0.360 OA
HETATM   22  C1  UNL     1      17.221  -0.144  50.144  1.00  0.00     0.209 C 
ENDBRANCH  14  21
ENDBRANCH   1  10
BRANCH   5  23
HETATM   23  C12 UNL     1      25.864   0.071  53.342  1.00  0.00     0.157 A 
HETATM   24  C13 UNL     1      25.993  -1.296  52.790  1.00  0.00     0.005 A 
HETATM   25  C14 UNL     1      27.267  -1.660  52.755  1.00  0.00     0.017 A 
HETATM   26  C15 UNL     1      28.086  -0.562  53.281  1.00  0.00     0.009 A 
HETATM   27 BR1  UNL     1      29.954  -0.324  53.548  1.00  0.00    -0.051 Br
HETATM   28  C16 UNL     1      27.263   0.439  53.620  1.00  0.00     0.023 A 
ENDBRANCH   5  23
TORSDOF 6
ENDMDL
MODEL 6
REMARK VINA RESULT:      -7.4      4.055      8.307
REMARK  6 active torsions:
REMARK  status: ('A' for Active; 'I' for Inactive)
REMARK    1  A    between atoms: O1_2  and  C2_3 
REMARK    2  A    between atoms: C5_6  and  O2_7 
REMARK    3  A    between atoms: O2_7  and  C6_8 
REMARK    4  A    between atoms: C6_8  and  N1_9 
REMARK    5  A    between atoms: C7_10  and  C8_11 
REMARK    6  A    between atoms: N2_15  and  C12_16 
ROOT
HETATM    1  C8  UNL     1      26.772   6.458  48.978  1.00  0.00    -0.016 A 
HETATM    2  C9  UNL     1      27.410   5.290  48.599  1.00  0.00     0.013 A 
HETATM    3  C10 UNL     1      26.810   4.195  49.198  1.00  0.00     0.034 A 
HETATM    4  C11 UNL     1      25.766   4.631  49.985  1.00  0.00     0.083 A 
HETATM    5  N2  UNL     1      24.863   4.033  50.773  1.00  0.00    -0.255 N 
HETATM    6  N3  UNL     1      23.965   4.768  51.408  1.00  0.00    -0.164 NA
HETATM    7  C17 UNL     1      23.944   6.125  51.275  1.00  0.00     0.255 A 
HETATM    8  N4  UNL     1      24.815   6.803  50.504  1.00  0.00    -0.237 NA
HETATM    9  C18 UNL     1      25.747   6.083  49.839  1.00  0.00     0.093 A 
ENDROOT
BRANCH   1  10
HETATM   10  C7  UNL     1      27.052   7.868  48.599  1.00  0.00     0.084 A 
HETATM   11  C5  UNL     1      26.746   8.028  47.162  1.00  0.00     0.057 A 
HETATM   12  C4  UNL     1      27.385   8.433  46.081  1.00  0.00     0.035 A 
HETATM   13  C3  UNL     1      28.758   8.838  46.332  1.00  0.00     0.035 A 
HETATM   14  C2  UNL     1      29.089   8.716  47.602  1.00  0.00     0.046 A 
HETATM   15  C19 UNL     1      28.452   8.280  48.861  1.00  0.00     0.080 A 
BRANCH  11  16
HETATM   16  O2  UNL     1      25.416   7.626  46.978  1.00  0.00    -0.326 OA
BRANCH  16  17
HETATM   17  C6  UNL     1      24.329   8.499  46.941  1.00  0.00     0.441 C 
BRANCH  17  18
HETATM   18  N1  UNL     1      23.479   8.336  48.108  1.00  0.00     0.101 N 
HETATM   19  H8  UNL     1      22.503   8.059  47.834  1.00  0.00     0.315 HD
HETATM   20  H9  UNL     1      23.935   7.602  48.692  1.00  0.00     0.315 HD
ENDBRANCH  17  18
ENDBRANCH  16  17
ENDBRANCH  11  16
BRANCH  14  21
HETATM   21  O1  UNL     1      30.403   9.096  47.882  1.00  0.00    -0.360 OA
HETATM   22  C1  UNL     1      31.017   8.663  49.087  1.00  0.00     0.209 C 
ENDBRANCH  14  21
ENDBRANCH   1  10
BRANCH   5  23
HETATM   23  C12 UNL     1      24.863   2.596  50.931  1.00  0.00     0.157 A 
HETATM   24  C13 UNL     1      25.658   2.162  52.102  1.00  0.00     0.005 A 
HETATM   25  C14 UNL     1      24.901   1.469  52.941  1.00  0.00     0.017 A 
HETATM   26  C15 UNL     1      23.542   1.388  52.394  1.00  0.00     0.009 A 
HETATM   27 BR1  UNL     1      21.927   0.583  52.994  1.00  0.00    -0.051 Br
HETATM   28  C16 UNL     1      23.529   2.045  51.226  1.00  0.00     0.023 A 
ENDBRANCH   5  23
TORSDOF 6
ENDMDL
MODEL 7
REMARK VINA RESULT:      -7.3      4.582      7.316
REMARK  6 active torsions:
REMARK  status: ('A' for Active; 'I' for Inactive)
REMARK    1  A    between atoms: O1_2  and  C2_3 
REMARK    2  A    between atoms: C5_6  and  O2_7 
REMARK    3  A    between atoms: O2_7  and  C6_8 
REMARK    4  A    between atoms: C6_8  and  N1_9 
REMARK    5  A    between atoms: C7_10  and  C8_11 
REMARK    6  A    between atoms: N2_15  and  C12_16 
ROOT
HETATM    1  C8  UNL     1      23.641   2.562  52.627  1.00  0.00    -0.016 A 
HETATM    2  C9  UNL     1      22.638   3.481  52.377  1.00  0.00     0.013 A 
HETATM    3  C10 UNL     1      21.398   2.864  52.406  1.00  0.00     0.034 A 
HETATM    4  C11 UNL     1      21.571   1.524  52.675  1.00  0.00     0.083 A 
HETATM    5  N2  UNL     1      20.750   0.474  52.817  1.00  0.00    -0.255 N 
HETATM    6  N3  UNL     1      21.259  -0.717  53.083  1.00  0.00    -0.164 NA
HETATM    7  C17 UNL     1      22.603  -0.897  53.214  1.00  0.00     0.255 A 
HETATM    8  N4  UNL     1      23.496   0.103  53.087  1.00  0.00    -0.237 NA
HETATM    9  C18 UNL     1      23.012   1.337  52.816  1.00  0.00     0.093 A 
ENDROOT
BRANCH   1  10
HETATM   10  C7  UNL     1      25.114   2.748  52.697  1.00  0.00     0.084 A 
HETATM   11  C5  UNL     1      25.725   2.033  51.558  1.00  0.00     0.057 A 
HETATM   12  C4  UNL     1      26.639   1.097  51.386  1.00  0.00     0.035 A 
HETATM   13  C3  UNL     1      27.224   0.618  52.629  1.00  0.00     0.035 A 
HETATM   14  C2  UNL     1      26.716   1.224  53.683  1.00  0.00     0.046 A 
HETATM   15  C19 UNL     1      25.707   2.265  53.967  1.00  0.00     0.080 A 
BRANCH  11  16
HETATM   16  O2  UNL     1      25.127   2.532  50.392  1.00  0.00    -0.326 OA
BRANCH  16  17
HETATM   17  C6  UNL     1      25.524   3.701  49.744  1.00  0.00     0.441 C 
BRANCH  17  18
HETATM   18  N1  UNL     1      26.828   4.146  50.204  1.00  0.00     0.101 N 
HETATM   19  H8  UNL     1      27.119   3.637  51.076  1.00  0.00     0.315 HD
HETATM   20  H9  UNL     1      27.487   3.961  49.417  1.00  0.00     0.315 HD
ENDBRANCH  17  18
ENDBRANCH  16  17
ENDBRANCH  11  16
BRANCH  14  21
HETATM   21  O1  UNL     1      27.253   0.790  54.896  1.00  0.00    -0.360 OA
HETATM   22  C1  UNL     1      28.519   0.146  54.912  1.00  0.00     0.209 C 
ENDBRANCH  14  21
ENDBRANCH   1  10
BRANCH   5  23
HETATM   23  C12 UNL     1      19.320   0.637  52.682  1.00  0.00     0.157 A 
HETATM   24  C13 UNL     1      18.888   0.635  51.267  1.00  0.00     0.005 A 
HETATM   25  C14 UNL     1      18.008  -0.334  51.057  1.00  0.00     0.017 A 
HETATM   26  C15 UNL     1      17.787  -1.053  52.316  1.00  0.00     0.009 A 
HETATM   27 BR1  UNL     1      16.696  -2.529  52.816  1.00  0.00    -0.051 Br
HETATM   28  C16 UNL     1      18.553  -0.482  53.255  1.00  0.00     0.023 A 
ENDBRANCH   5  23
TORSDOF 6
ENDMDL
MODEL 8
REMARK VINA RESULT:      -7.2      3.811      7.340
REMARK  6 active torsions:
REMARK  status: ('A' for Active; 'I' for Inactive)
REMARK    1  A    between atoms: O1_2  and  C2_3 
REMARK    2  A    between atoms: C5_6  and  O2_7 
REMARK    3  A    between atoms: O2_7  and  C6_8 
REMARK    4  A    between atoms: C6_8  and  N1_9 
REMARK    5  A    between atoms: C7_10  and  C8_11 
REMARK    6  A    between atoms: N2_15  and  C12_16 
ROOT
HETATM    1  C8  UNL     1      22.868   3.388  51.338  1.00  0.00    -0.016 A 
HETATM    2  C9  UNL     1      22.344   2.542  52.301  1.00  0.00     0.013 A 
HETATM    3  C10 UNL     1      23.336   1.731  52.824  1.00  0.00     0.034 A 
HETATM    4  C11 UNL     1      24.532   2.032  52.208  1.00  0.00     0.083 A 
HETATM    5  N2  UNL     1      25.788   1.578  52.311  1.00  0.00    -0.255 N 
HETATM    6  N3  UNL     1      26.733   2.102  51.547  1.00  0.00    -0.164 NA
HETATM    7  C17 UNL     1      26.450   3.095  50.658  1.00  0.00     0.255 A 
HETATM    8  N4  UNL     1      25.216   3.606  50.492  1.00  0.00    -0.237 NA
HETATM    9  C18 UNL     1      24.224   3.095  51.257  1.00  0.00     0.093 A 
ENDROOT
BRANCH   1  10
HETATM   10  C7  UNL     1      22.200   4.424  50.509  1.00  0.00     0.084 A 
HETATM   11  C5  UNL     1      22.310   4.023  49.091  1.00  0.00     0.057 A 
HETATM   12  C4  UNL     1      22.776   4.549  47.974  1.00  0.00     0.035 A 
HETATM   13  C3  UNL     1      23.339   5.878  48.147  1.00  0.00     0.035 A 
HETATM   14  C2  UNL     1      23.268   6.291  49.396  1.00  0.00     0.046 A 
HETATM   15  C19 UNL     1      22.772   5.780  50.691  1.00  0.00     0.080 A 
BRANCH  11  16
HETATM   16  O2  UNL     1      21.754   2.741  48.984  1.00  0.00    -0.326 OA
BRANCH  16  17
HETATM   17  C6  UNL     1      20.424   2.485  48.647  1.00  0.00     0.441 C 
BRANCH  17  18
HETATM   18  N1  UNL     1      19.959   1.241  49.234  1.00  0.00     0.101 N 
HETATM   19  H8  UNL     1      19.941   1.297  50.283  1.00  0.00     0.315 HD
HETATM   20  H9  UNL     1      19.005   1.081  48.844  1.00  0.00     0.315 HD
ENDBRANCH  17  18
ENDBRANCH  16  17
ENDBRANCH  11  16
BRANCH  14  21
HETATM   21  O1  UNL     1      23.800   7.565  49.601  1.00  0.00    -0.360 OA
HETATM   22  C1  UNL     1      25.068   7.705  50.224  1.00  0.00     0.209 C 
ENDBRANCH  14  21
ENDBRANCH   1  10
BRANCH   5  23
HETATM   23  C12 UNL     1      26.115   0.526  53.247  1.00  0.00     0.157 A 
HETATM   24  C13 UNL     1      25.896  -0.821  52.674  1.00  0.00     0.005 A 
HETATM   25  C14 UNL     1      27.021  -1.521  52.700  1.00  0.00     0.017 A 
HETATM   26  C15 UNL     1      28.078  -0.693  53.292  1.00  0.00     0.009 A 
HETATM   27 BR1  UNL     1      29.921  -0.980  53.664  1.00  0.00    -0.051 Br
HETATM   28  C16 UNL     1      27.543   0.494  53.607  1.00  0.00     0.023 A 
ENDBRANCH   5  23
TORSDOF 6
ENDMDL
MODEL 9
REMARK VINA RESULT:      -6.8      5.721     10.083
REMARK  6 active torsions:
REMARK  status: ('A' for Active; 'I' for Inactive)
REMARK    1  A    between atoms: O1_2  and  C2_3 
REMARK    2  A    between atoms: C5_6  and  O2_7 
REMARK    3  A    between atoms: O2_7  and  C6_8 
REMARK    4  A    between atoms: C6_8  and  N1_9 
REMARK    5  A    between atoms: C7_10  and  C8_11 
REMARK    6  A    between atoms: N2_15  and  C12_16 
ROOT
HETATM    1  C8  UNL     1      30.275   8.912  47.957  1.00  0.00    -0.016 A 
HETATM    2  C9  UNL     1      30.235   7.869  47.048  1.00  0.00     0.013 A 
HETATM    3  C10 UNL     1      29.089   7.113  47.230  1.00  0.00     0.034 A 
HETATM    4  C11 UNL     1      28.358   7.649  48.267  1.00  0.00     0.083 A 
HETATM    5  N2  UNL     1      27.200   7.342  48.865  1.00  0.00    -0.255 N 
HETATM    6  N3  UNL     1      26.766   8.090  49.867  1.00  0.00    -0.164 NA
HETATM    7  C17 UNL     1      27.478   9.168  50.301  1.00  0.00     0.255 A 
HETATM    8  N4  UNL     1      28.650   9.544  49.756  1.00  0.00    -0.237 NA
HETATM    9  C18 UNL     1      29.124   8.803  48.729  1.00  0.00     0.093 A 
ENDROOT
BRANCH   1  10
HETATM   10  C7  UNL     1      31.294   9.976  48.147  1.00  0.00     0.084 A 
HETATM   11  C5  UNL     1      31.064  11.023  47.130  1.00  0.00     0.057 A 
HETATM   12  C4  UNL     1      31.763  11.613  46.179  1.00  0.00     0.035 A 
HETATM   13  C3  UNL     1      33.130  11.129  46.075  1.00  0.00     0.035 A 
HETATM   14  C2  UNL     1      33.395  10.191  46.962  1.00  0.00     0.046 A 
HETATM   15  C19 UNL     1      32.688   9.480  48.047  1.00  0.00     0.080 A 
BRANCH  11  16
HETATM   16  O2  UNL     1      29.737  11.451  47.275  1.00  0.00    -0.326 OA
BRANCH  16  17
HETATM   17  C6  UNL     1      29.362  12.675  47.829  1.00  0.00     0.441 C 
BRANCH  17  18
HETATM   18  N1  UNL     1      29.051  12.544  49.242  1.00  0.00     0.101 N 
HETATM   19  H8  UNL     1      29.914  12.345  49.806  1.00  0.00     0.315 HD
HETATM   20  H9  UNL     1      28.611  13.448  49.522  1.00  0.00     0.315 HD
ENDBRANCH  17  18
ENDBRANCH  16  17
ENDBRANCH  11  16
BRANCH  14  21
HETATM   21  O1  UNL     1      34.700   9.702  46.893  1.00  0.00    -0.360 OA
HETATM   22  C1  UNL     1      35.079   8.595  47.699  1.00  0.00     0.209 C 
ENDBRANCH  14  21
ENDBRANCH   1  10
BRANCH   5  23
HETATM   23  C12 UNL     1      26.425   6.204  48.424  1.00  0.00     0.157 A 
HETATM   24  C13 UNL     1      27.036   4.919  48.830  1.00  0.00     0.005 A 
HETATM   25  C14 UNL     1      26.188   4.218  49.569  1.00  0.00     0.017 A 
HETATM   26  C15 UNL     1      24.944   4.984  49.713  1.00  0.00     0.009 A 
HETATM   27 BR1  UNL     1      23.295   4.661  50.605  1.00  0.00    -0.051 Br
HETATM   28  C16 UNL     1      25.091   6.136  49.045  1.00  0.00     0.023 A 
ENDBRANCH   5  23
TORSDOF 6
ENDMDL
