MODEL 1
REMARK VINA RESULT:      -7.9      0.000      0.000
REMARK  8 active torsions:
REMARK  status: ('A' for Active; 'I' for Inactive)
REMARK    1  A    between atoms: O1_2  and  C2_3 
REMARK    2  A    between atoms: C2_3  and  O2_20 
REMARK    3  A    between atoms: C3_4  and  C4_5 
REMARK    4  A    between atoms: C13_16  and  C14_18 
REMARK    5  A    between atoms: O2_20  and  C15_21 
REMARK    6  A    between atoms: C15_21  and  C16_22 
REMARK    7  A    between atoms: C16_22  and  C17_23 
REMARK    8  A    between atoms: C17_23  and  N4_24 
ROOT
HETATM    1  C4  UNL     1      24.040   2.930  52.899  1.00  0.00     0.072 A 
HETATM    2  N1  UNL     1      23.826   4.203  52.549  1.00  0.00    -0.241 NA
HETATM    3  C5  UNL     1      22.660   4.602  52.013  1.00  0.00     0.235 A 
HETATM    4  N2  UNL     1      21.578   3.837  51.755  1.00  0.00    -0.224 NA
HETATM    5  C6  UNL     1      21.762   2.644  52.078  1.00  0.00     0.134 A 
HETATM    6  C7  UNL     1      23.067   2.086  52.701  1.00  0.00     0.017 A 
HETATM    7  C8  UNL     1      23.630   0.730  53.223  1.00  0.00     0.046 C 
HETATM    8  C9  UNL     1      23.115  -0.646  53.348  1.00  0.00     0.018 C 
HETATM    9  C10 UNL     1      21.611  -1.133  53.417  1.00  0.00     0.008 A 
HETATM   10  C11 UNL     1      20.233  -0.692  53.752  1.00  0.00     0.066 A 
HETATM   11  C12 UNL     1      20.021   0.572  52.849  1.00  0.00     0.102 A 
HETATM   12  C13 UNL     1      21.062  -0.034  52.769  1.00  0.00     0.114 A 
HETATM   13  F1  UNL     1      21.684  -0.521  51.377  1.00  0.00    -0.242 F 
HETATM   14  C14 UNL     1      21.580  -0.153  54.313  1.00  0.00     0.064 A 
HETATM   15  N3  UNL     1      20.620   1.607  51.860  1.00  0.00    -0.359 N 
HETATM   16  H13 UNL     1      20.379   1.760  50.905  1.00  0.00     0.162 HD
ENDROOT
BRANCH   1  17
HETATM   17  C3  UNL     1      25.283   2.500  53.448  1.00  0.00     0.096 C 
HETATM   18  C2  UNL     1      26.247   2.511  52.541  1.00  0.00     0.182 C 
BRANCH  18  19
HETATM   19  O1  UNL     1      25.717   2.944  51.334  1.00  0.00    -0.336 OA
HETATM   20  C1  UNL     1      26.525   3.397  50.264  1.00  0.00     0.212 C 
ENDBRANCH  18  19
BRANCH  18  21
HETATM   21  O2  UNL     1      27.563   2.305  52.163  1.00  0.00    -0.331 OA
BRANCH  21  22
HETATM   22  C15 UNL     1      28.564   2.420  53.172  1.00  0.00     0.179 C 
BRANCH  22  23
HETATM   23  C16 UNL     1      29.135   1.065  53.495  1.00  0.00     0.057 C 
BRANCH  23  24
HETATM   24  C17 UNL     1      28.316   0.462  54.644  1.00  0.00     0.277 C 
BRANCH  24  25
HETATM   25  N4  UNL     1      28.032  -0.905  54.257  1.00  0.00     0.113 N 
HETATM   26  C18 UNL     1      26.988  -1.014  53.255  1.00  0.00     0.301 C 
HETATM   27  C19 UNL     1      27.370  -2.354  52.626  1.00  0.00     0.200 C 
HETATM   28  O3  UNL     1      28.754  -2.414  52.698  1.00  0.00    -0.361 OA
HETATM   29  C20 UNL     1      29.190  -1.427  53.572  1.00  0.00     0.440 C 
ENDBRANCH  24  25
ENDBRANCH  23  24
ENDBRANCH  22  23
ENDBRANCH  21  22
ENDBRANCH  18  21
ENDBRANCH   1  17
TORSDOF 8
ENDMDL
MODEL 2
REMARK VINA RESULT:      -7.8      1.463      2.240
REMARK  8 active torsions:
REMARK  status: ('A' for Active; 'I' for Inactive)
REMARK    1  A    between atoms: O1_2  and  C2_3 
REMARK    2  A    between atoms: C2_3  and  O2_20 
REMARK    3  A    between atoms: C3_4  and  C4_5 
REMARK    4  A    between atoms: C13_16  and  C14_18 
REMARK    5  A    between atoms: O2_20  and  C15_21 
REMARK    6  A    between atoms: C15_21  and  C16_22 
REMARK    7  A    between atoms: C16_22  and  C17_23 
REMARK    8  A    between atoms: C17_23  and  N4_24 
ROOT
HETATM    1  C4  UNL     1      22.386   3.389  52.249  1.00  0.00     0.072 A 
HETATM    2  N1  UNL     1      21.560   4.372  51.875  1.00  0.00    -0.241 NA
HETATM    3  C5  UNL     1      20.255   4.148  51.642  1.00  0.00     0.235 A 
HETATM    4  N2  UNL     1      19.602   2.971  51.738  1.00  0.00    -0.224 NA
HETATM    5  C6  UNL     1      20.361   2.043  52.087  1.00  0.00     0.134 A 
HETATM    6  C7  UNL     1      21.875   2.199  52.380  1.00  0.00     0.017 A 
HETATM    7  C8  UNL     1      23.078   1.318  52.831  1.00  0.00     0.046 C 
HETATM    8  C9  UNL     1      23.270  -0.100  53.191  1.00  0.00     0.018 C 
HETATM    9  C10 UNL     1      22.192  -1.143  53.693  1.00  0.00     0.008 A 
HETATM   10  C11 UNL     1      20.865  -1.259  54.349  1.00  0.00     0.066 A 
HETATM   11  C12 UNL     1      19.929  -0.385  53.445  1.00  0.00     0.102 A 
HETATM   12  C13 UNL     1      21.090  -0.509  53.135  1.00  0.00     0.114 A 
HETATM   13  F1  UNL     1      21.560  -0.941  51.668  1.00  0.00    -0.242 F 
HETATM   14  C14 UNL     1      21.914  -0.118  54.490  1.00  0.00     0.064 A 
HETATM   15  N3  UNL     1      19.785   0.605  52.258  1.00  0.00    -0.359 N 
HETATM   16  H13 UNL     1      19.308   0.467  51.394  1.00  0.00     0.162 HD
ENDROOT
BRANCH   1  17
HETATM   17  C3  UNL     1      23.775   3.621  52.477  1.00  0.00     0.096 C 
HETATM   18  C2  UNL     1      24.444   3.731  51.341  1.00  0.00     0.182 C 
BRANCH  18  19
HETATM   19  O1  UNL     1      23.556   3.581  50.285  1.00  0.00    -0.336 OA
HETATM   20  C1  UNL     1      23.704   4.274  49.060  1.00  0.00     0.212 C 
ENDBRANCH  18  19
BRANCH  18  21
HETATM   21  O2  UNL     1      25.620   3.928  50.637  1.00  0.00    -0.331 OA
BRANCH  21  22
HETATM   22  C15 UNL     1      26.499   2.813  50.497  1.00  0.00     0.179 C 
BRANCH  22  23
HETATM   23  C16 UNL     1      26.880   2.278  51.852  1.00  0.00     0.057 C 
BRANCH  23  24
HETATM   24  C17 UNL     1      26.647   0.763  51.853  1.00  0.00     0.277 C 
BRANCH  24  25
HETATM   25  N4  UNL     1      27.599   0.213  52.796  1.00  0.00     0.113 N 
HETATM   26  C18 UNL     1      28.438   1.219  53.420  1.00  0.00     0.301 C 
HETATM   27  C19 UNL     1      28.801   0.491  54.713  1.00  0.00     0.200 C 
HETATM   28  O3  UNL     1      27.690  -0.279  55.027  1.00  0.00    -0.361 OA
HETATM   29  C20 UNL     1      26.863  -0.328  53.912  1.00  0.00     0.440 C 
ENDBRANCH  24  25
ENDBRANCH  23  24
ENDBRANCH  22  23
ENDBRANCH  21  22
ENDBRANCH  18  21
ENDBRANCH   1  17
TORSDOF 8
ENDMDL
MODEL 3
REMARK VINA RESULT:      -7.7      2.712      6.177
REMARK  8 active torsions:
REMARK  status: ('A' for Active; 'I' for Inactive)
REMARK    1  A    between atoms: O1_2  and  C2_3 
REMARK    2  A    between atoms: C2_3  and  O2_20 
REMARK    3  A    between atoms: C3_4  and  C4_5 
REMARK    4  A    between atoms: C13_16  and  C14_18 
REMARK    5  A    between atoms: O2_20  and  C15_21 
REMARK    6  A    between atoms: C15_21  and  C16_22 
REMARK    7  A    between atoms: C16_22  and  C17_23 
REMARK    8  A    between atoms: C17_23  and  N4_24 
ROOT
HETATM    1  C4  UNL     1      23.044   1.692  52.701  1.00  0.00     0.072 A 
HETATM    2  N1  UNL     1      21.997   1.015  53.183  1.00  0.00    -0.241 NA
HETATM    3  C5  UNL     1      22.140  -0.193  53.755  1.00  0.00     0.235 A 
HETATM    4  N2  UNL     1      23.289  -0.882  53.928  1.00  0.00    -0.224 NA
HETATM    5  C6  UNL     1      24.276  -0.261  53.482  1.00  0.00     0.134 A 
HETATM    6  C7  UNL     1      24.216   1.134  52.808  1.00  0.00     0.017 A 
HETATM    7  C8  UNL     1      25.190   2.173  52.177  1.00  0.00     0.046 C 
HETATM    8  C9  UNL     1      26.647   2.258  51.963  1.00  0.00     0.018 C 
HETATM    9  C10 UNL     1      27.802   1.499  52.733  1.00  0.00     0.008 A 
HETATM   10  C11 UNL     1      28.129   0.814  54.010  1.00  0.00     0.066 A 
HETATM   11  C12 UNL     1      27.014  -0.281  54.137  1.00  0.00     0.102 A 
HETATM   12  C13 UNL     1      27.026   0.428  53.159  1.00  0.00     0.114 A 
HETATM   13  F1  UNL     1      26.960  -0.143  51.666  1.00  0.00    -0.242 F 
HETATM   14  C14 UNL     1      27.090   1.945  53.762  1.00  0.00     0.064 A 
HETATM   15  N3  UNL     1      25.695  -0.895  53.596  1.00  0.00    -0.359 N 
HETATM   16  H13 UNL     1      25.550  -1.802  53.210  1.00  0.00     0.162 HD
ENDROOT
BRANCH   1  17
HETATM   17  C3  UNL     1      22.892   2.964  52.075  1.00  0.00     0.096 C 
HETATM   18  C2  UNL     1      22.453   2.847  50.831  1.00  0.00     0.182 C 
BRANCH  18  19
HETATM   19  O1  UNL     1      22.284   1.500  50.544  1.00  0.00    -0.336 OA
HETATM   20  C1  UNL     1      21.401   1.039  49.539  1.00  0.00     0.212 C 
ENDBRANCH  18  19
BRANCH  18  21
HETATM   21  O2  UNL     1      22.060   3.399  49.624  1.00  0.00    -0.331 OA
BRANCH  21  22
HETATM   22  C15 UNL     1      22.857   4.456  49.092  1.00  0.00     0.179 C 
BRANCH  22  23
HETATM   23  C16 UNL     1      24.313   4.075  49.122  1.00  0.00     0.057 C 
BRANCH  23  24
HETATM   24  C17 UNL     1      25.114   5.282  49.625  1.00  0.00     0.277 C 
BRANCH  24  25
HETATM   25  N4  UNL     1      26.204   5.456  48.687  1.00  0.00     0.113 N 
HETATM   26  C18 UNL     1      26.939   6.692  48.883  1.00  0.00     0.301 C 
HETATM   27  C19 UNL     1      28.284   6.294  48.275  1.00  0.00     0.200 C 
HETATM   28  O3  UNL     1      28.428   4.942  48.551  1.00  0.00    -0.361 OA
HETATM   29  C20 UNL     1      27.197   4.446  48.960  1.00  0.00     0.440 C 
ENDBRANCH  24  25
ENDBRANCH  23  24
ENDBRANCH  22  23
ENDBRANCH  21  22
ENDBRANCH  18  21
ENDBRANCH   1  17
TORSDOF 8
ENDMDL
MODEL 4
REMARK VINA RESULT:      -7.5      2.961      5.996
REMARK  8 active torsions:
REMARK  status: ('A' for Active; 'I' for Inactive)
REMARK    1  A    between atoms: O1_2  and  C2_3 
REMARK    2  A    between atoms: C2_3  and  O2_20 
REMARK    3  A    between atoms: C3_4  and  C4_5 
REMARK    4  A    between atoms: C13_16  and  C14_18 
REMARK    5  A    between atoms: O2_20  and  C15_21 
REMARK    6  A    between atoms: C15_21  and  C16_22 
REMARK    7  A    between atoms: C16_22  and  C17_23 
REMARK    8  A    between atoms: C17_23  and  N4_24 
ROOT
HETATM    1  C4  UNL     1      23.196   1.584  51.615  1.00  0.00     0.072 A 
HETATM    2  N1  UNL     1      21.908   1.511  51.967  1.00  0.00    -0.241 NA
HETATM    3  C5  UNL     1      21.499   0.753  52.999  1.00  0.00     0.235 A 
HETATM    4  N2  UNL     1      22.270  -0.011  53.803  1.00  0.00    -0.224 NA
HETATM    5  C6  UNL     1      23.476   0.048  53.487  1.00  0.00     0.134 A 
HETATM    6  C7  UNL     1      24.046   0.890  52.316  1.00  0.00     0.017 A 
HETATM    7  C8  UNL     1      25.425   1.210  51.666  1.00  0.00     0.046 C 
HETATM    8  C9  UNL     1      26.825   0.824  51.920  1.00  0.00     0.018 C 
HETATM    9  C10 UNL     1      27.473   0.296  53.264  1.00  0.00     0.008 A 
HETATM   10  C11 UNL     1      27.304   0.281  54.739  1.00  0.00     0.066 A 
HETATM   11  C12 UNL     1      25.862  -0.301  54.939  1.00  0.00     0.102 A 
HETATM   12  C13 UNL     1      26.299  -0.199  53.818  1.00  0.00     0.114 A 
HETATM   13  F1  UNL     1      26.286  -1.400  52.762  1.00  0.00    -0.242 F 
HETATM   14  C14 UNL     1      26.809   1.351  53.723  1.00  0.00     0.064 A 
HETATM   15  N3  UNL     1      24.523  -0.765  54.306  1.00  0.00    -0.359 N 
HETATM   16  H13 UNL     1      24.125  -1.678  54.305  1.00  0.00     0.162 HD
ENDROOT
BRANCH   1  17
HETATM   17  C3  UNL     1      23.628   2.371  50.507  1.00  0.00     0.096 C 
HETATM   18  C2  UNL     1      23.560   3.666  50.771  1.00  0.00     0.182 C 
BRANCH  18  19
HETATM   19  O1  UNL     1      23.080   3.832  52.062  1.00  0.00    -0.336 OA
HETATM   20  C1  UNL     1      23.321   5.002  52.821  1.00  0.00     0.212 C 
ENDBRANCH  18  19
BRANCH  18  21
HETATM   21  O2  UNL     1      23.728   4.991  50.407  1.00  0.00    -0.331 OA
BRANCH  21  22
HETATM   22  C15 UNL     1      24.320   5.256  49.137  1.00  0.00     0.179 C 
BRANCH  22  23
HETATM   23  C16 UNL     1      25.819   5.319  49.265  1.00  0.00     0.057 C 
BRANCH  23  24
HETATM   24  C17 UNL     1      26.293   6.663  48.698  1.00  0.00     0.277 C 
BRANCH  24  25
HETATM   25  N4  UNL     1      27.552   6.395  48.035  1.00  0.00     0.113 N 
HETATM   26  C18 UNL     1      28.613   7.305  48.424  1.00  0.00     0.301 C 
HETATM   27  C19 UNL     1      29.830   6.430  48.124  1.00  0.00     0.200 C 
HETATM   28  O3  UNL     1      29.424   5.130  48.389  1.00  0.00    -0.361 OA
HETATM   29  C20 UNL     1      28.039   5.117  48.496  1.00  0.00     0.440 C 
ENDBRANCH  24  25
ENDBRANCH  23  24
ENDBRANCH  22  23
ENDBRANCH  21  22
ENDBRANCH  18  21
ENDBRANCH   1  17
TORSDOF 8
ENDMDL
MODEL 5
REMARK VINA RESULT:      -7.5      2.851      5.988
REMARK  8 active torsions:
REMARK  status: ('A' for Active; 'I' for Inactive)
REMARK    1  A    between atoms: O1_2  and  C2_3 
REMARK    2  A    between atoms: C2_3  and  O2_20 
REMARK    3  A    between atoms: C3_4  and  C4_5 
REMARK    4  A    between atoms: C13_16  and  C14_18 
REMARK    5  A    between atoms: O2_20  and  C15_21 
REMARK    6  A    between atoms: C15_21  and  C16_22 
REMARK    7  A    between atoms: C16_22  and  C17_23 
REMARK    8  A    between atoms: C17_23  and  N4_24 
ROOT
HETATM    1  C4  UNL     1      24.200   2.482  50.413  1.00  0.00     0.072 A 
HETATM    2  N1  UNL     1      24.629   3.329  49.471  1.00  0.00    -0.241 NA
HETATM    3  C5  UNL     1      25.880   3.821  49.479  1.00  0.00     0.235 A 
HETATM    4  N2  UNL     1      26.851   3.559  50.380  1.00  0.00    -0.224 NA
HETATM    5  C6  UNL     1      26.465   2.768  51.266  1.00  0.00     0.134 A 
HETATM    6  C7  UNL     1      25.047   2.148  51.344  1.00  0.00     0.017 A 
HETATM    7  C8  UNL     1      24.248   1.160  52.246  1.00  0.00     0.046 C 
HETATM    8  C9  UNL     1      24.539   0.365  53.453  1.00  0.00     0.018 C 
HETATM    9  C10 UNL     1      25.942  -0.120  53.999  1.00  0.00     0.008 A 
HETATM   10  C11 UNL     1      27.341  -0.409  53.592  1.00  0.00     0.066 A 
HETATM   11  C12 UNL     1      27.810   0.923  52.912  1.00  0.00     0.102 A 
HETATM   12  C13 UNL     1      26.699   0.868  53.381  1.00  0.00     0.114 A 
HETATM   13  F1  UNL     1      26.121   1.967  54.390  1.00  0.00    -0.242 F 
HETATM   14  C14 UNL     1      26.050  -0.481  52.726  1.00  0.00     0.064 A 
HETATM   15  N3  UNL     1      27.452   2.341  52.394  1.00  0.00    -0.359 N 
HETATM   16  H13 UNL     1      27.787   3.221  52.722  1.00  0.00     0.162 HD
ENDROOT
BRANCH   1  17
HETATM   17  C3  UNL     1      22.867   1.976  50.417  1.00  0.00     0.096 C 
HETATM   18  C2  UNL     1      21.992   2.907  50.765  1.00  0.00     0.182 C 
BRANCH  18  19
HETATM   19  O1  UNL     1      22.677   4.089  51.015  1.00  0.00    -0.336 OA
HETATM   20  C1  UNL     1      22.119   5.149  51.768  1.00  0.00     0.212 C 
ENDBRANCH  18  19
BRANCH  18  21
HETATM   21  O2  UNL     1      20.697   3.325  51.016  1.00  0.00    -0.331 OA
BRANCH  21  22
HETATM   22  C15 UNL     1      19.719   2.320  51.277  1.00  0.00     0.179 C 
BRANCH  22  23
HETATM   23  C16 UNL     1      20.059   1.582  52.545  1.00  0.00     0.057 C 
BRANCH  23  24
HETATM   24  C17 UNL     1      19.741   0.096  52.334  1.00  0.00     0.277 C 
BRANCH  24  25
HETATM   25  N4  UNL     1      20.144  -0.575  53.553  1.00  0.00     0.113 N 
HETATM   26  C18 UNL     1      21.249  -1.496  53.364  1.00  0.00     0.301 C 
HETATM   27  C19 UNL     1      21.823  -1.508  54.781  1.00  0.00     0.200 C 
HETATM   28  O3  UNL     1      21.605  -0.231  55.278  1.00  0.00    -0.361 OA
HETATM   29  C20 UNL     1      20.698   0.413  54.447  1.00  0.00     0.440 C 
ENDBRANCH  24  25
ENDBRANCH  23  24
ENDBRANCH  22  23
ENDBRANCH  21  22
ENDBRANCH  18  21
ENDBRANCH   1  17
TORSDOF 8
ENDMDL
MODEL 6
REMARK VINA RESULT:      -7.3      3.289      6.568
REMARK  8 active torsions:
REMARK  status: ('A' for Active; 'I' for Inactive)
REMARK    1  A    between atoms: O1_2  and  C2_3 
REMARK    2  A    between atoms: C2_3  and  O2_20 
REMARK    3  A    between atoms: C3_4  and  C4_5 
REMARK    4  A    between atoms: C13_16  and  C14_18 
REMARK    5  A    between atoms: O2_20  and  C15_21 
REMARK    6  A    between atoms: C15_21  and  C16_22 
REMARK    7  A    between atoms: C16_22  and  C17_23 
REMARK    8  A    between atoms: C17_23  and  N4_24 
ROOT
HETATM    1  C4  UNL     1      23.244   1.604  51.618  1.00  0.00     0.072 A 
HETATM    2  N1  UNL     1      21.956   1.566  51.977  1.00  0.00    -0.241 NA
HETATM    3  C5  UNL     1      21.536   0.838  53.026  1.00  0.00     0.235 A 
HETATM    4  N2  UNL     1      22.293   0.072  53.841  1.00  0.00    -0.224 NA
HETATM    5  C6  UNL     1      23.499   0.098  53.518  1.00  0.00     0.134 A 
HETATM    6  C7  UNL     1      24.082   0.904  52.329  1.00  0.00     0.017 A 
HETATM    7  C8  UNL     1      25.464   1.180  51.666  1.00  0.00     0.046 C 
HETATM    8  C9  UNL     1      26.857   0.768  51.922  1.00  0.00     0.018 C 
HETATM    9  C10 UNL     1      27.499   0.251  53.273  1.00  0.00     0.008 A 
HETATM   10  C11 UNL     1      27.337   0.268  54.749  1.00  0.00     0.066 A 
HETATM   11  C12 UNL     1      25.883  -0.277  54.966  1.00  0.00     0.102 A 
HETATM   12  C13 UNL     1      26.317  -0.206  53.842  1.00  0.00     0.114 A 
HETATM   13  F1  UNL     1      26.272  -1.427  52.809  1.00  0.00    -0.242 F 
HETATM   14  C14 UNL     1      26.861   1.329  53.715  1.00  0.00     0.064 A 
HETATM   15  N3  UNL     1      24.531  -0.723  54.348  1.00  0.00    -0.359 N 
HETATM   16  H13 UNL     1      24.112  -1.627  54.367  1.00  0.00     0.162 HD
ENDROOT
BRANCH   1  17
HETATM   17  C3  UNL     1      23.689   2.359  50.494  1.00  0.00     0.096 C 
HETATM   18  C2  UNL     1      23.677   3.659  50.742  1.00  0.00     0.182 C 
BRANCH  18  19
HETATM   19  O1  UNL     1      23.226   3.859  52.040  1.00  0.00    -0.336 OA
HETATM   20  C1  UNL     1      23.306   5.114  52.689  1.00  0.00     0.212 C 
ENDBRANCH  18  19
BRANCH  18  21
HETATM   21  O2  UNL     1      23.891   4.972  50.359  1.00  0.00    -0.331 OA
BRANCH  21  22
HETATM   22  C15 UNL     1      24.343   5.204  49.026  1.00  0.00     0.179 C 
BRANCH  22  23
HETATM   23  C16 UNL     1      25.815   5.520  49.023  1.00  0.00     0.057 C 
BRANCH  23  24
HETATM   24  C17 UNL     1      26.001   6.933  48.457  1.00  0.00     0.277 C 
BRANCH  24  25
HETATM   25  N4  UNL     1      26.943   7.594  49.337  1.00  0.00     0.113 N 
HETATM   26  C18 UNL     1      27.952   8.359  48.629  1.00  0.00     0.301 C 
HETATM   27  C19 UNL     1      28.315   9.376  49.711  1.00  0.00     0.200 C 
HETATM   28  O3  UNL     1      27.140   9.602  50.413  1.00  0.00    -0.361 OA
HETATM   29  C20 UNL     1      26.230   8.609  50.075  1.00  0.00     0.440 C 
ENDBRANCH  24  25
ENDBRANCH  23  24
ENDBRANCH  22  23
ENDBRANCH  21  22
ENDBRANCH  18  21
ENDBRANCH   1  17
TORSDOF 8
ENDMDL
MODEL 7
REMARK VINA RESULT:      -7.2      2.958      6.453
REMARK  8 active torsions:
REMARK  status: ('A' for Active; 'I' for Inactive)
REMARK    1  A    between atoms: O1_2  and  C2_3 
REMARK    2  A    between atoms: C2_3  and  O2_20 
REMARK    3  A    between atoms: C3_4  and  C4_5 
REMARK    4  A    between atoms: C13_16  and  C14_18 
REMARK    5  A    between atoms: O2_20  and  C15_21 
REMARK    6  A    between atoms: C15_21  and  C16_22 
REMARK    7  A    between atoms: C16_22  and  C17_23 
REMARK    8  A    between atoms: C17_23  and  N4_24 
ROOT
HETATM    1  C4  UNL     1      24.138   2.565  50.478  1.00  0.00     0.072 A 
HETATM    2  N1  UNL     1      24.667   3.325  49.513  1.00  0.00    -0.241 NA
HETATM    3  C5  UNL     1      25.974   3.637  49.497  1.00  0.00     0.235 A 
HETATM    4  N2  UNL     1      26.912   3.262  50.393  1.00  0.00    -0.224 NA
HETATM    5  C6  UNL     1      26.433   2.550  51.300  1.00  0.00     0.134 A 
HETATM    6  C7  UNL     1      24.943   2.135  51.407  1.00  0.00     0.017 A 
HETATM    7  C8  UNL     1      24.027   1.287  52.340  1.00  0.00     0.046 C 
HETATM    8  C9  UNL     1      24.221   0.484  53.561  1.00  0.00     0.018 C 
HETATM    9  C10 UNL     1      25.551  -0.179  54.103  1.00  0.00     0.008 A 
HETATM   10  C11 UNL     1      26.890  -0.669  53.687  1.00  0.00     0.066 A 
HETATM   11  C12 UNL     1      27.531   0.571  52.973  1.00  0.00     0.102 A 
HETATM   12  C13 UNL     1      26.429   0.680  53.455  1.00  0.00     0.114 A 
HETATM   13  F1  UNL     1      26.024   1.870  54.445  1.00  0.00    -0.242 F 
HETATM   14  C14 UNL     1      25.591  -0.578  52.837  1.00  0.00     0.064 A 
HETATM   15  N3  UNL     1      27.366   2.014  52.427  1.00  0.00    -0.359 N 
HETATM   16  H13 UNL     1      27.825   2.845  52.731  1.00  0.00     0.162 HD
ENDROOT
BRANCH   1  17
HETATM   17  C3  UNL     1      22.748   2.250  50.508  1.00  0.00     0.096 C 
HETATM   18  C2  UNL     1      22.008   3.325  50.728  1.00  0.00     0.182 C 
BRANCH  18  19
HETATM   19  O1  UNL     1      22.847   4.423  50.860  1.00  0.00    -0.336 OA
HETATM   20  C1  UNL     1      22.483   5.578  51.592  1.00  0.00     0.212 C 
ENDBRANCH  18  19
BRANCH  18  21
HETATM   21  O2  UNL     1      20.781   3.942  50.901  1.00  0.00    -0.331 OA
BRANCH  21  22
HETATM   22  C15 UNL     1      19.617   3.215  50.509  1.00  0.00     0.179 C 
BRANCH  22  23
HETATM   23  C16 UNL     1      19.101   2.398  51.664  1.00  0.00     0.057 C 
BRANCH  23  24
HETATM   24  C17 UNL     1      18.546   1.081  51.108  1.00  0.00     0.277 C 
BRANCH  24  25
HETATM   25  N4  UNL     1      19.273   0.026  51.784  1.00  0.00     0.113 N 
HETATM   26  C18 UNL     1      20.248   0.518  52.739  1.00  0.00     0.301 C 
HETATM   27  C19 UNL     1      20.332  -0.689  53.672  1.00  0.00     0.200 C 
HETATM   28  O3  UNL     1      19.060  -1.243  53.674  1.00  0.00    -0.361 OA
HETATM   29  C20 UNL     1      18.343  -0.697  52.618  1.00  0.00     0.440 C 
ENDBRANCH  24  25
ENDBRANCH  23  24
ENDBRANCH  22  23
ENDBRANCH  21  22
ENDBRANCH  18  21
ENDBRANCH   1  17
TORSDOF 8
ENDMDL
MODEL 8
REMARK VINA RESULT:      -6.7      3.719      7.827
REMARK  8 active torsions:
REMARK  status: ('A' for Active; 'I' for Inactive)
REMARK    1  A    between atoms: O1_2  and  C2_3 
REMARK    2  A    between atoms: C2_3  and  O2_20 
REMARK    3  A    between atoms: C3_4  and  C4_5 
REMARK    4  A    between atoms: C13_16  and  C14_18 
REMARK    5  A    between atoms: O2_20  and  C15_21 
REMARK    6  A    between atoms: C15_21  and  C16_22 
REMARK    7  A    between atoms: C16_22  and  C17_23 
REMARK    8  A    between atoms: C17_23  and  N4_24 
ROOT
HETATM    1  C4  UNL     1      24.101   2.310  50.801  1.00  0.00     0.072 A 
HETATM    2  N1  UNL     1      24.467   3.186  49.859  1.00  0.00    -0.241 NA
HETATM    3  C5  UNL     1      25.735   3.617  49.750  1.00  0.00     0.235 A 
HETATM    4  N2  UNL     1      26.785   3.262  50.521  1.00  0.00    -0.224 NA
HETATM    5  C6  UNL     1      26.459   2.443  51.405  1.00  0.00     0.134 A 
HETATM    6  C7  UNL     1      25.027   1.887  51.613  1.00  0.00     0.017 A 
HETATM    7  C8  UNL     1      24.282   0.890  52.550  1.00  0.00     0.046 C 
HETATM    8  C9  UNL     1      24.663   0.018  53.677  1.00  0.00     0.018 C 
HETATM    9  C10 UNL     1      26.091  -0.560  54.037  1.00  0.00     0.008 A 
HETATM   10  C11 UNL     1      27.419  -0.892  53.460  1.00  0.00     0.066 A 
HETATM   11  C12 UNL     1      27.879   0.451  52.797  1.00  0.00     0.102 A 
HETATM   12  C13 UNL     1      26.825   0.423  53.386  1.00  0.00     0.114 A 
HETATM   13  F1  UNL     1      26.421   1.492  54.505  1.00  0.00    -0.242 F 
HETATM   14  C14 UNL     1      26.038  -0.857  52.743  1.00  0.00     0.064 A 
HETATM   15  N3  UNL     1      27.540   1.911  52.393  1.00  0.00    -0.359 N 
HETATM   16  H13 UNL     1      27.956   2.755  52.723  1.00  0.00     0.162 HD
ENDROOT
BRANCH   1  17
HETATM   17  C3  UNL     1      22.752   1.867  50.932  1.00  0.00     0.096 C 
HETATM   18  C2  UNL     1      21.985   2.795  51.482  1.00  0.00     0.182 C 
BRANCH  18  19
HETATM   19  O1  UNL     1      22.763   3.912  51.754  1.00  0.00    -0.336 OA
HETATM   20  C1  UNL     1      22.208   5.197  51.958  1.00  0.00     0.212 C 
ENDBRANCH  18  19
BRANCH  18  21
HETATM   21  O2  UNL     1      20.758   3.242  51.941  1.00  0.00    -0.331 OA
BRANCH  21  22
HETATM   22  C15 UNL     1      19.802   2.258  52.330  1.00  0.00     0.179 C 
BRANCH  22  23
HETATM   23  C16 UNL     1      18.644   2.249  51.367  1.00  0.00     0.057 C 
BRANCH  23  24
HETATM   24  C17 UNL     1      17.948   3.613  51.442  1.00  0.00     0.277 C 
BRANCH  24  25
HETATM   25  N4  UNL     1      16.618   3.355  51.954  1.00  0.00     0.113 N 
HETATM   26  C18 UNL     1      15.597   4.194  51.354  1.00  0.00     0.301 C 
HETATM   27  C19 UNL     1      14.372   3.304  51.563  1.00  0.00     0.200 C 
HETATM   28  O3  UNL     1      14.841   2.002  51.463  1.00  0.00    -0.361 OA
HETATM   29  C20 UNL     1      16.228   2.029  51.540  1.00  0.00     0.440 C 
ENDBRANCH  24  25
ENDBRANCH  23  24
ENDBRANCH  22  23
ENDBRANCH  21  22
ENDBRANCH  18  21
ENDBRANCH   1  17
TORSDOF 8
ENDMDL
MODEL 9
REMARK VINA RESULT:      -6.6      3.139      6.985
REMARK  8 active torsions:
REMARK  status: ('A' for Active; 'I' for Inactive)
REMARK    1  A    between atoms: O1_2  and  C2_3 
REMARK    2  A    between atoms: C2_3  and  O2_20 
REMARK    3  A    between atoms: C3_4  and  C4_5 
REMARK    4  A    between atoms: C13_16  and  C14_18 
REMARK    5  A    between atoms: O2_20  and  C15_21 
REMARK    6  A    between atoms: C15_21  and  C16_22 
REMARK    7  A    between atoms: C16_22  and  C17_23 
REMARK    8  A    between atoms: C17_23  and  N4_24 
ROOT
HETATM    1  C4  UNL     1      24.019   2.242  50.968  1.00  0.00     0.072 A 
HETATM    2  N1  UNL     1      24.338   3.134  50.024  1.00  0.00    -0.241 NA
HETATM    3  C5  UNL     1      25.597   3.580  49.870  1.00  0.00     0.235 A 
HETATM    4  N2  UNL     1      26.680   3.225  50.594  1.00  0.00    -0.224 NA
HETATM    5  C6  UNL     1      26.398   2.391  51.479  1.00  0.00     0.134 A 
HETATM    6  C7  UNL     1      24.981   1.817  51.736  1.00  0.00     0.017 A 
HETATM    7  C8  UNL     1      24.284   0.800  52.689  1.00  0.00     0.046 C 
HETATM    8  C9  UNL     1      24.718  -0.083  53.787  1.00  0.00     0.018 C 
HETATM    9  C10 UNL     1      26.164  -0.651  54.081  1.00  0.00     0.008 A 
HETATM   10  C11 UNL     1      27.471  -0.962  53.448  1.00  0.00     0.066 A 
HETATM   11  C12 UNL     1      27.892   0.395  52.785  1.00  0.00     0.102 A 
HETATM   12  C13 UNL     1      26.862   0.348  53.415  1.00  0.00     0.114 A 
HETATM   13  F1  UNL     1      26.493   1.398  54.565  1.00  0.00    -0.242 F 
HETATM   14  C14 UNL     1      26.063  -0.931  52.787  1.00  0.00     0.064 A 
HETATM   15  N3  UNL     1      27.523   1.857  52.415  1.00  0.00    -0.359 N 
HETATM   16  H13 UNL     1      27.943   2.700  52.740  1.00  0.00     0.162 HD
ENDROOT
BRANCH   1  17
HETATM   17  C3  UNL     1      22.681   1.784  51.146  1.00  0.00     0.096 C 
HETATM   18  C2  UNL     1      21.927   2.696  51.740  1.00  0.00     0.182 C 
BRANCH  18  19
HETATM   19  O1  UNL     1      22.705   3.817  51.997  1.00  0.00    -0.336 OA
HETATM   20  C1  UNL     1      22.174   5.128  52.007  1.00  0.00     0.212 C 
ENDBRANCH  18  19
BRANCH  18  21
HETATM   21  O2  UNL     1      20.716   3.124  52.255  1.00  0.00    -0.331 OA
BRANCH  21  22
HETATM   22  C15 UNL     1      19.527   2.639  51.634  1.00  0.00     0.179 C 
BRANCH  22  23
HETATM   23  C16 UNL     1      18.916   3.712  50.771  1.00  0.00     0.057 C 
BRANCH  23  24
HETATM   24  C17 UNL     1      18.960   3.238  49.314  1.00  0.00     0.277 C 
BRANCH  24  25
HETATM   25  N4  UNL     1      20.302   3.514  48.845  1.00  0.00     0.113 N 
HETATM   26  C18 UNL     1      20.838   2.474  47.987  1.00  0.00     0.301 C 
HETATM   27  C19 UNL     1      21.857   3.290  47.192  1.00  0.00     0.200 C 
HETATM   28  O3  UNL     1      21.301   4.556  47.071  1.00  0.00    -0.361 OA
HETATM   29  C20 UNL     1      20.243   4.657  47.965  1.00  0.00     0.440 C 
ENDBRANCH  24  25
ENDBRANCH  23  24
ENDBRANCH  22  23
ENDBRANCH  21  22
ENDBRANCH  18  21
ENDBRANCH   1  17
TORSDOF 8
ENDMDL
