MODEL 1
REMARK VINA RESULT:      -8.3      0.000      0.000
REMARK  8 active torsions:
REMARK  status: ('A' for Active; 'I' for Inactive)
REMARK    1  A    between atoms: O1_2  and  C2_3 
REMARK    2  A    between atoms: C6_9  and  N3_10 
REMARK    3  A    between atoms: N3_10  and  C7_11 
REMARK    4  A    between atoms: C15_21  and  O2_22 
REMARK    5  A    between atoms: O2_22  and  C16_23 
REMARK    6  A    between atoms: C16_23  and  C17_24 
REMARK    7  A    between atoms: C17_24  and  C18_25 
REMARK    8  A    between atoms: C18_25  and  N4_26 
ROOT
HETATM    1  C2  UNL     1      26.326   7.256  49.565  1.00  0.00     0.100 C 
HETATM    2  C3  UNL     1      25.313   7.480  50.376  1.00  0.00     0.042 C 
HETATM    3  C4  UNL     1      24.467   6.313  50.623  1.00  0.00     0.145 C 
HETATM    4  N1  UNL     1      23.692   6.248  51.796  1.00  0.00    -0.372 N 
HETATM    5  C5  UNL     1      23.388   4.951  52.351  1.00  0.00     0.205 C 
HETATM    6  N2  UNL     1      23.904   3.862  51.881  1.00  0.00    -0.226 NA
HETATM    7  C6  UNL     1      24.803   3.900  50.759  1.00  0.00     0.138 C 
HETATM    8  C13 UNL     1      25.092   5.076  50.161  1.00  0.00     0.017 C 
HETATM    9  C14 UNL     1      26.168   4.913  49.202  1.00  0.00     0.053 C 
HETATM   10  C15 UNL     1      26.826   6.054  48.910  1.00  0.00     0.102 C 
HETATM   11  H6  UNL     1      23.377   7.154  52.202  1.00  0.00     0.161 HD
ENDROOT
BRANCH   7  12
HETATM   12  N3  UNL     1      25.326   2.628  50.369  1.00  0.00    -0.340 N 
HETATM   13  H8  UNL     1      25.345   2.190  49.402  1.00  0.00     0.167 HD
BRANCH  12  14
HETATM   14  C7  UNL     1      25.856   1.992  51.551  1.00  0.00     0.035 A 
HETATM   15  C8  UNL     1      25.173   0.925  52.097  1.00  0.00     0.032 A 
HETATM   16  C9  UNL     1      25.598   0.249  53.223  1.00  0.00     0.046 A 
HETATM   17  C10 UNL     1      26.777   0.676  53.830  1.00  0.00     0.138 A 
HETATM   18  F1  UNL     1      27.292   0.105  54.924  1.00  0.00    -0.204 F 
HETATM   19  C11 UNL     1      27.489   1.752  53.300  1.00  0.00     0.074 A 
HETATM   20 CL1  UNL     1      28.981   2.358  53.996  1.00  0.00    -0.081 Cl
HETATM   21  C12 UNL     1      27.022   2.389  52.177  1.00  0.00     0.056 A 
ENDBRANCH  12  14
ENDBRANCH   7  12
BRANCH  10  22
HETATM   22  O2  UNL     1      27.901   6.070  48.046  1.00  0.00    -0.348 OA
BRANCH  22  23
HETATM   23  C16 UNL     1      29.040   5.260  48.202  1.00  0.00     0.177 C 
BRANCH  23  24
HETATM   24  C17 UNL     1      30.245   6.207  48.299  1.00  0.00     0.046 C 
BRANCH  24  25
HETATM   25  C18 UNL     1      31.372   5.686  47.423  1.00  0.00     0.119 C 
BRANCH  25  26
HETATM   26  N4  UNL     1      32.358   5.077  48.205  1.00  0.00    -0.408 N 
HETATM   27  C19 UNL     1      32.742   3.784  47.848  1.00  0.00     0.143 C 
HETATM   28  C20 UNL     1      34.196   3.563  47.558  1.00  0.00     0.187 C 
HETATM   29  O3  UNL     1      35.022   4.321  48.386  1.00  0.00    -0.388 OA
HETATM   30  C21 UNL     1      34.673   5.675  48.288  1.00  0.00     0.187 C 
HETATM   31  C22 UNL     1      33.302   5.822  48.910  1.00  0.00     0.143 C 
ENDBRANCH  25  26
ENDBRANCH  24  25
ENDBRANCH  23  24
ENDBRANCH  22  23
ENDBRANCH  10  22
BRANCH   1  32
HETATM   32  O1  UNL     1      27.105   8.386  49.306  1.00  0.00    -0.353 OA
HETATM   33  C1  UNL     1      27.507   9.307  50.281  1.00  0.00     0.210 C 
ENDBRANCH   1  32
TORSDOF 8
ENDMDL
MODEL 2
REMARK VINA RESULT:      -8.2      5.556      8.360
REMARK  8 active torsions:
REMARK  status: ('A' for Active; 'I' for Inactive)
REMARK    1  A    between atoms: O1_2  and  C2_3 
REMARK    2  A    between atoms: C6_9  and  N3_10 
REMARK    3  A    between atoms: N3_10  and  C7_11 
REMARK    4  A    between atoms: C15_21  and  O2_22 
REMARK    5  A    between atoms: O2_22  and  C16_23 
REMARK    6  A    between atoms: C16_23  and  C17_24 
REMARK    7  A    between atoms: C17_24  and  C18_25 
REMARK    8  A    between atoms: C18_25  and  N4_26 
ROOT
HETATM    1  C2  UNL     1      20.673  -0.031  52.962  1.00  0.00     0.100 C 
HETATM    2  C3  UNL     1      20.999  -0.778  53.997  1.00  0.00     0.042 C 
HETATM    3  C4  UNL     1      22.423  -1.093  54.090  1.00  0.00     0.145 C 
HETATM    4  N1  UNL     1      22.984  -1.428  55.336  1.00  0.00    -0.372 N 
HETATM    5  C5  UNL     1      24.376  -1.123  55.570  1.00  0.00     0.205 C 
HETATM    6  N2  UNL     1      25.084  -0.446  54.726  1.00  0.00    -0.226 NA
HETATM    7  C6  UNL     1      24.509   0.023  53.495  1.00  0.00     0.138 C 
HETATM    8  C13 UNL     1      23.227  -0.269  53.191  1.00  0.00     0.017 C 
HETATM    9  C14 UNL     1      22.795   0.472  52.020  1.00  0.00     0.053 C 
HETATM   10  C15 UNL     1      21.457   0.613  51.917  1.00  0.00     0.102 C 
HETATM   11  H6  UNL     1      22.354  -1.883  56.029  1.00  0.00     0.161 HD
ENDROOT
BRANCH   7  12
HETATM   12  N3  UNL     1      25.395   0.788  52.674  1.00  0.00    -0.340 N 
HETATM   13  H8  UNL     1      25.155   1.538  51.962  1.00  0.00     0.167 HD
BRANCH  12  14
HETATM   14  C7  UNL     1      26.743   0.368  52.975  1.00  0.00     0.035 A 
HETATM   15  C8  UNL     1      27.665   1.316  53.367  1.00  0.00     0.032 A 
HETATM   16  C9  UNL     1      28.977   1.016  53.678  1.00  0.00     0.046 A 
HETATM   17  C10 UNL     1      29.376  -0.316  53.587  1.00  0.00     0.138 A 
HETATM   18  F1  UNL     1      30.616  -0.733  53.861  1.00  0.00    -0.204 F 
HETATM   19  C11 UNL     1      28.465  -1.296  53.194  1.00  0.00     0.074 A 
HETATM   20 CL1  UNL     1      28.879  -2.995  53.051  1.00  0.00    -0.081 Cl
HETATM   21  C12 UNL     1      27.173  -0.942  52.896  1.00  0.00     0.056 A 
ENDBRANCH  12  14
ENDBRANCH   7  12
BRANCH  10  22
HETATM   22  O2  UNL     1      20.880   1.323  50.885  1.00  0.00    -0.348 OA
BRANCH  22  23
HETATM   23  C16 UNL     1      21.085   1.027  49.524  1.00  0.00     0.177 C 
BRANCH  23  24
HETATM   24  C17 UNL     1      21.419   2.356  48.831  1.00  0.00     0.046 C 
BRANCH  24  25
HETATM   25  C18 UNL     1      22.877   2.706  49.080  1.00  0.00     0.119 C 
BRANCH  25  26
HETATM   26  N4  UNL     1      22.977   3.877  49.837  1.00  0.00    -0.408 N 
HETATM   27  C19 UNL     1      21.804   4.604  50.040  1.00  0.00     0.143 C 
HETATM   28  C20 UNL     1      21.405   4.866  51.461  1.00  0.00     0.187 C 
HETATM   29  O3  UNL     1      22.504   5.093  52.286  1.00  0.00    -0.388 OA
HETATM   30  C21 UNL     1      23.398   4.017  52.187  1.00  0.00     0.187 C 
HETATM   31  C22 UNL     1      23.979   4.053  50.790  1.00  0.00     0.143 C 
ENDBRANCH  25  26
ENDBRANCH  24  25
ENDBRANCH  23  24
ENDBRANCH  22  23
ENDBRANCH  10  22
BRANCH   1  32
HETATM   32  O1  UNL     1      19.304   0.232  52.863  1.00  0.00    -0.353 OA
HETATM   33  C1  UNL     1      18.382  -0.610  52.231  1.00  0.00     0.210 C 
ENDBRANCH   1  32
TORSDOF 8
ENDMDL
MODEL 3
REMARK VINA RESULT:      -8.1      4.815      7.969
REMARK  8 active torsions:
REMARK  status: ('A' for Active; 'I' for Inactive)
REMARK    1  A    between atoms: O1_2  and  C2_3 
REMARK    2  A    between atoms: C6_9  and  N3_10 
REMARK    3  A    between atoms: N3_10  and  C7_11 
REMARK    4  A    between atoms: C15_21  and  O2_22 
REMARK    5  A    between atoms: O2_22  and  C16_23 
REMARK    6  A    between atoms: C16_23  and  C17_24 
REMARK    7  A    between atoms: C17_24  and  C18_25 
REMARK    8  A    between atoms: C18_25  and  N4_26 
ROOT
HETATM    1  C2  UNL     1      20.290  -0.209  52.831  1.00  0.00     0.100 C 
HETATM    2  C3  UNL     1      20.622  -0.930  53.881  1.00  0.00     0.042 C 
HETATM    3  C4  UNL     1      22.047  -1.241  53.975  1.00  0.00     0.145 C 
HETATM    4  N1  UNL     1      22.614  -1.545  55.227  1.00  0.00    -0.372 N 
HETATM    5  C5  UNL     1      24.007  -1.233  55.447  1.00  0.00     0.205 C 
HETATM    6  N2  UNL     1      24.710  -0.574  54.584  1.00  0.00    -0.226 NA
HETATM    7  C6  UNL     1      24.129  -0.136  53.344  1.00  0.00     0.138 C 
HETATM    8  C13 UNL     1      22.845  -0.437  53.053  1.00  0.00     0.017 C 
HETATM    9  C14 UNL     1      22.407   0.276  51.868  1.00  0.00     0.053 C 
HETATM   10  C15 UNL     1      21.068   0.412  51.767  1.00  0.00     0.102 C 
HETATM   11  H6  UNL     1      21.988  -1.985  55.932  1.00  0.00     0.161 HD
ENDROOT
BRANCH   7  12
HETATM   12  N3  UNL     1      25.010   0.612  52.502  1.00  0.00    -0.340 N 
HETATM   13  H8  UNL     1      24.763   1.304  51.736  1.00  0.00     0.167 HD
BRANCH  12  14
HETATM   14  C7  UNL     1      26.362   0.267  52.869  1.00  0.00     0.035 A 
HETATM   15  C8  UNL     1      26.822  -1.007  52.603  1.00  0.00     0.032 A 
HETATM   16  C9  UNL     1      28.098  -1.433  52.913  1.00  0.00     0.046 A 
HETATM   17  C10 UNL     1      28.955  -0.522  53.525  1.00  0.00     0.138 A 
HETATM   18  F1  UNL     1      30.212  -0.813  53.874  1.00  0.00    -0.204 F 
HETATM   19  C11 UNL     1      28.519   0.773  53.806  1.00  0.00     0.074 A 
HETATM   20 CL1  UNL     1      29.527   1.985  54.573  1.00  0.00    -0.081 Cl
HETATM   21  C12 UNL     1      27.240   1.145  53.476  1.00  0.00     0.056 A 
ENDBRANCH  12  14
ENDBRANCH   7  12
BRANCH  10  22
HETATM   22  O2  UNL     1      20.486   1.097  50.722  1.00  0.00    -0.348 OA
BRANCH  22  23
HETATM   23  C16 UNL     1      20.970   1.064  49.401  1.00  0.00     0.177 C 
BRANCH  23  24
HETATM   24  C17 UNL     1      21.431   2.490  49.065  1.00  0.00     0.046 C 
BRANCH  24  25
HETATM   25  C18 UNL     1      22.928   2.490  48.803  1.00  0.00     0.119 C 
BRANCH  25  26
HETATM   26  N4  UNL     1      23.607   3.137  49.839  1.00  0.00    -0.408 N 
HETATM   27  C19 UNL     1      24.925   3.522  49.591  1.00  0.00     0.143 C 
HETATM   28  C20 UNL     1      25.251   4.974  49.766  1.00  0.00     0.187 C 
HETATM   29  O3  UNL     1      24.556   5.550  50.828  1.00  0.00    -0.388 OA
HETATM   30  C21 UNL     1      23.180   5.344  50.657  1.00  0.00     0.187 C 
HETATM   31  C22 UNL     1      22.933   3.860  50.822  1.00  0.00     0.143 C 
ENDBRANCH  25  26
ENDBRANCH  24  25
ENDBRANCH  23  24
ENDBRANCH  22  23
ENDBRANCH  10  22
BRANCH   1  32
HETATM   32  O1  UNL     1      18.920   0.050  52.732  1.00  0.00    -0.353 OA
HETATM   33  C1  UNL     1      17.932  -0.939  52.682  1.00  0.00     0.210 C 
ENDBRANCH   1  32
TORSDOF 8
ENDMDL
MODEL 4
REMARK VINA RESULT:      -8.1      2.253      2.867
REMARK  8 active torsions:
REMARK  status: ('A' for Active; 'I' for Inactive)
REMARK    1  A    between atoms: O1_2  and  C2_3 
REMARK    2  A    between atoms: C6_9  and  N3_10 
REMARK    3  A    between atoms: N3_10  and  C7_11 
REMARK    4  A    between atoms: C15_21  and  O2_22 
REMARK    5  A    between atoms: O2_22  and  C16_23 
REMARK    6  A    between atoms: C16_23  and  C17_24 
REMARK    7  A    between atoms: C17_24  and  C18_25 
REMARK    8  A    between atoms: C18_25  and  N4_26 
ROOT
HETATM    1  C2  UNL     1      26.154   7.045  49.716  1.00  0.00     0.100 C 
HETATM    2  C3  UNL     1      25.215   7.283  50.608  1.00  0.00     0.042 C 
HETATM    3  C4  UNL     1      24.373   6.129  50.922  1.00  0.00     0.145 C 
HETATM    4  N1  UNL     1      23.696   6.073  52.154  1.00  0.00    -0.372 N 
HETATM    5  C5  UNL     1      23.417   4.779  52.729  1.00  0.00     0.205 C 
HETATM    6  N2  UNL     1      23.875   3.684  52.216  1.00  0.00    -0.226 NA
HETATM    7  C6  UNL     1      24.679   3.711  51.025  1.00  0.00     0.138 C 
HETATM    8  C13 UNL     1      24.937   4.883  50.408  1.00  0.00     0.017 C 
HETATM    9  C14 UNL     1      25.928   4.707  49.363  1.00  0.00     0.053 C 
HETATM   10  C15 UNL     1      26.579   5.838  49.020  1.00  0.00     0.102 C 
HETATM   11  H6  UNL     1      23.430   6.982  52.586  1.00  0.00     0.161 HD
ENDROOT
BRANCH   7  12
HETATM   12  N3  UNL     1      25.148   2.432  50.591  1.00  0.00    -0.340 N 
HETATM   13  H8  UNL     1      25.029   1.972  49.641  1.00  0.00     0.167 HD
BRANCH  12  14
HETATM   14  C7  UNL     1      25.848   1.824  51.696  1.00  0.00     0.035 A 
HETATM   15  C8  UNL     1      25.343   0.665  52.249  1.00  0.00     0.032 A 
HETATM   16  C9  UNL     1      25.938   0.006  53.307  1.00  0.00     0.046 A 
HETATM   17  C10 UNL     1      27.108   0.551  53.834  1.00  0.00     0.138 A 
HETATM   18  F1  UNL     1      27.777   0.008  54.856  1.00  0.00    -0.204 F 
HETATM   19  C11 UNL     1      27.642   1.721  53.295  1.00  0.00     0.074 A 
HETATM   20 CL1  UNL     1      29.107   2.477  53.893  1.00  0.00    -0.081 Cl
HETATM   21  C12 UNL     1      27.009   2.335  52.243  1.00  0.00     0.056 A 
ENDBRANCH  12  14
ENDBRANCH   7  12
BRANCH  10  22
HETATM   22  O2  UNL     1      27.579   5.840  48.071  1.00  0.00    -0.348 OA
BRANCH  22  23
HETATM   23  C16 UNL     1      28.841   5.250  48.266  1.00  0.00     0.177 C 
BRANCH  23  24
HETATM   24  C17 UNL     1      29.862   6.396  48.306  1.00  0.00     0.046 C 
BRANCH  24  25
HETATM   25  C18 UNL     1      29.541   7.399  47.210  1.00  0.00     0.119 C 
BRANCH  25  26
HETATM   26  N4  UNL     1      30.290   8.568  47.380  1.00  0.00    -0.408 N 
HETATM   27  C19 UNL     1      29.719   9.758  46.930  1.00  0.00     0.143 C 
HETATM   28  C20 UNL     1      29.565  10.859  47.936  1.00  0.00     0.187 C 
HETATM   29  O3  UNL     1      30.626  10.905  48.838  1.00  0.00    -0.388 OA
HETATM   30  C21 UNL     1      30.774   9.655  49.455  1.00  0.00     0.187 C 
HETATM   31  C22 UNL     1      31.244   8.689  48.389  1.00  0.00     0.143 C 
ENDBRANCH  25  26
ENDBRANCH  24  25
ENDBRANCH  23  24
ENDBRANCH  22  23
ENDBRANCH  10  22
BRANCH   1  32
HETATM   32  O1  UNL     1      26.927   8.164  49.397  1.00  0.00    -0.353 OA
HETATM   33  C1  UNL     1      27.218   9.203  50.289  1.00  0.00     0.210 C 
ENDBRANCH   1  32
TORSDOF 8
ENDMDL
MODEL 5
REMARK VINA RESULT:      -8.0      2.665      4.210
REMARK  8 active torsions:
REMARK  status: ('A' for Active; 'I' for Inactive)
REMARK    1  A    between atoms: O1_2  and  C2_3 
REMARK    2  A    between atoms: C6_9  and  N3_10 
REMARK    3  A    between atoms: N3_10  and  C7_11 
REMARK    4  A    between atoms: C15_21  and  O2_22 
REMARK    5  A    between atoms: O2_22  and  C16_23 
REMARK    6  A    between atoms: C16_23  and  C17_24 
REMARK    7  A    between atoms: C17_24  and  C18_25 
REMARK    8  A    between atoms: C18_25  and  N4_26 
ROOT
HETATM    1  C2  UNL     1      23.047   3.359  49.268  1.00  0.00     0.100 C 
HETATM    2  C3  UNL     1      22.334   2.349  49.720  1.00  0.00     0.042 C 
HETATM    3  C4  UNL     1      22.997   1.556  50.754  1.00  0.00     0.145 C 
HETATM    4  N1  UNL     1      22.226   0.799  51.655  1.00  0.00    -0.372 N 
HETATM    5  C5  UNL     1      22.752   0.556  52.978  1.00  0.00     0.205 C 
HETATM    6  N2  UNL     1      23.841   1.111  53.398  1.00  0.00    -0.226 NA
HETATM    7  C6  UNL     1      24.592   1.993  52.547  1.00  0.00     0.138 C 
HETATM    8  C13 UNL     1      24.183   2.225  51.281  1.00  0.00     0.017 C 
HETATM    9  C14 UNL     1      24.957   3.294  50.680  1.00  0.00     0.053 C 
HETATM   10  C15 UNL     1      24.348   3.901  49.639  1.00  0.00     0.102 C 
HETATM   11  H6  UNL     1      21.306   0.452  51.312  1.00  0.00     0.161 HD
ENDROOT
BRANCH   7  12
HETATM   12  N3  UNL     1      25.754   2.563  53.153  1.00  0.00    -0.340 N 
HETATM   13  H8  UNL     1      25.892   3.550  53.520  1.00  0.00     0.167 HD
BRANCH  12  14
HETATM   14  C7  UNL     1      26.772   1.541  53.198  1.00  0.00     0.035 A 
HETATM   15  C8  UNL     1      28.050   1.888  53.585  1.00  0.00     0.032 A 
HETATM   16  C9  UNL     1      29.092   0.985  53.660  1.00  0.00     0.046 A 
HETATM   17  C10 UNL     1      28.825  -0.341  53.326  1.00  0.00     0.138 A 
HETATM   18  F1  UNL     1      29.747  -1.309  53.359  1.00  0.00    -0.204 F 
HETATM   19  C11 UNL     1      27.542  -0.721  52.932  1.00  0.00     0.074 A 
HETATM   20 CL1  UNL     1      27.116  -2.365  52.493  1.00  0.00    -0.081 Cl
HETATM   21  C12 UNL     1      26.543   0.217  52.874  1.00  0.00     0.056 A 
ENDBRANCH  12  14
ENDBRANCH   7  12
BRANCH  10  22
HETATM   22  O2  UNL     1      24.928   4.962  48.978  1.00  0.00    -0.348 OA
BRANCH  22  23
HETATM   23  C16 UNL     1      25.917   5.788  49.544  1.00  0.00     0.177 C 
BRANCH  23  24
HETATM   24  C17 UNL     1      26.876   6.169  48.406  1.00  0.00     0.046 C 
BRANCH  24  25
HETATM   25  C18 UNL     1      28.109   5.283  48.464  1.00  0.00     0.119 C 
BRANCH  25  26
HETATM   26  N4  UNL     1      29.233   5.976  48.006  1.00  0.00    -0.408 N 
HETATM   27  C19 UNL     1      29.221   7.365  48.142  1.00  0.00     0.143 C 
HETATM   28  C20 UNL     1      30.349   7.980  48.913  1.00  0.00     0.187 C 
HETATM   29  O3  UNL     1      31.559   7.322  48.700  1.00  0.00    -0.388 OA
HETATM   30  C21 UNL     1      31.412   5.959  48.993  1.00  0.00     0.187 C 
HETATM   31  C22 UNL     1      30.490   5.378  47.943  1.00  0.00     0.143 C 
ENDBRANCH  25  26
ENDBRANCH  24  25
ENDBRANCH  23  24
ENDBRANCH  22  23
ENDBRANCH  10  22
BRANCH   1  32
HETATM   32  O1  UNL     1      22.418   4.088  48.255  1.00  0.00    -0.353 OA
HETATM   33  C1  UNL     1      22.034   3.552  47.020  1.00  0.00     0.210 C 
ENDBRANCH   1  32
TORSDOF 8
ENDMDL
MODEL 6
REMARK VINA RESULT:      -7.9      7.386      9.846
REMARK  8 active torsions:
REMARK  status: ('A' for Active; 'I' for Inactive)
REMARK    1  A    between atoms: O1_2  and  C2_3 
REMARK    2  A    between atoms: C6_9  and  N3_10 
REMARK    3  A    between atoms: N3_10  and  C7_11 
REMARK    4  A    between atoms: C15_21  and  O2_22 
REMARK    5  A    between atoms: O2_22  and  C16_23 
REMARK    6  A    between atoms: C16_23  and  C17_24 
REMARK    7  A    between atoms: C17_24  and  C18_25 
REMARK    8  A    between atoms: C18_25  and  N4_26 
ROOT
HETATM    1  C2  UNL     1      21.955  -0.640  53.589  1.00  0.00     0.100 C 
HETATM    2  C3  UNL     1      20.931  -1.237  54.163  1.00  0.00     0.042 C 
HETATM    3  C4  UNL     1      19.624  -0.788  53.687  1.00  0.00     0.145 C 
HETATM    4  N1  UNL     1      18.506  -1.633  53.815  1.00  0.00    -0.372 N 
HETATM    5  C5  UNL     1      17.438  -1.514  52.850  1.00  0.00     0.205 C 
HETATM    6  N2  UNL     1      17.531  -0.750  51.811  1.00  0.00    -0.226 NA
HETATM    7  C6  UNL     1      18.712   0.035  51.579  1.00  0.00     0.138 C 
HETATM    8  C13 UNL     1      19.729   0.008  52.467  1.00  0.00     0.017 C 
HETATM    9  C14 UNL     1      20.891   0.697  51.939  1.00  0.00     0.053 C 
HETATM   10  C15 UNL     1      22.057   0.338  52.514  1.00  0.00     0.102 C 
HETATM   11  H6  UNL     1      18.513  -2.306  54.609  1.00  0.00     0.161 HD
ENDROOT
BRANCH   7  12
HETATM   12  N3  UNL     1      18.692   0.804  50.375  1.00  0.00    -0.340 N 
HETATM   13  H8  UNL     1      19.321   0.716  49.524  1.00  0.00     0.167 HD
BRANCH  12  14
HETATM   14  C7  UNL     1      17.630   1.773  50.491  1.00  0.00     0.035 A 
HETATM   15  C8  UNL     1      17.782   2.828  51.368  1.00  0.00     0.032 A 
HETATM   16  C9  UNL     1      16.825   3.807  51.551  1.00  0.00     0.046 A 
HETATM   17  C10 UNL     1      15.651   3.713  50.806  1.00  0.00     0.138 A 
HETATM   18  F1  UNL     1      14.652   4.596  50.893  1.00  0.00    -0.204 F 
HETATM   19  C11 UNL     1      15.470   2.658  49.912  1.00  0.00     0.074 A 
HETATM   20 CL1  UNL     1      14.027   2.460  48.935  1.00  0.00    -0.081 Cl
HETATM   21  C12 UNL     1      16.454   1.712  49.769  1.00  0.00     0.056 A 
ENDBRANCH  12  14
ENDBRANCH   7  12
BRANCH  10  22
HETATM   22  O2  UNL     1      23.262   0.868  52.103  1.00  0.00    -0.348 OA
BRANCH  22  23
HETATM   23  C16 UNL     1      23.738   2.129  52.508  1.00  0.00     0.177 C 
BRANCH  23  24
HETATM   24  C17 UNL     1      25.104   1.893  53.168  1.00  0.00     0.046 C 
BRANCH  24  25
HETATM   25  C18 UNL     1      25.826   0.766  52.449  1.00  0.00     0.119 C 
BRANCH  25  26
HETATM   26  N4  UNL     1      26.471  -0.068  53.368  1.00  0.00    -0.408 N 
HETATM   27  C19 UNL     1      27.204  -1.136  52.850  1.00  0.00     0.143 C 
HETATM   28  C20 UNL     1      28.653  -1.210  53.226  1.00  0.00     0.187 C 
HETATM   29  O3  UNL     1      28.883  -0.791  54.535  1.00  0.00    -0.388 OA
HETATM   30  C21 UNL     1      28.366   0.500  54.714  1.00  0.00     0.187 C 
HETATM   31  C22 UNL     1      26.859   0.387  54.627  1.00  0.00     0.143 C 
ENDBRANCH  25  26
ENDBRANCH  24  25
ENDBRANCH  23  24
ENDBRANCH  22  23
ENDBRANCH  10  22
BRANCH   1  32
HETATM   32  O1  UNL     1      23.197  -1.050  54.078  1.00  0.00    -0.353 OA
HETATM   33  C1  UNL     1      23.482  -1.261  55.433  1.00  0.00     0.210 C 
ENDBRANCH   1  32
TORSDOF 8
ENDMDL
MODEL 7
REMARK VINA RESULT:      -7.8      4.712      7.247
REMARK  8 active torsions:
REMARK  status: ('A' for Active; 'I' for Inactive)
REMARK    1  A    between atoms: O1_2  and  C2_3 
REMARK    2  A    between atoms: C6_9  and  N3_10 
REMARK    3  A    between atoms: N3_10  and  C7_11 
REMARK    4  A    between atoms: C15_21  and  O2_22 
REMARK    5  A    between atoms: O2_22  and  C16_23 
REMARK    6  A    between atoms: C16_23  and  C17_24 
REMARK    7  A    between atoms: C17_24  and  C18_25 
REMARK    8  A    between atoms: C18_25  and  N4_26 
ROOT
HETATM    1  C2  UNL     1      22.929   1.749  51.761  1.00  0.00     0.100 C 
HETATM    2  C3  UNL     1      22.161   1.945  50.709  1.00  0.00     0.042 C 
HETATM    3  C4  UNL     1      22.089   3.336  50.264  1.00  0.00     0.145 C 
HETATM    4  N1  UNL     1      21.747   3.625  48.930  1.00  0.00    -0.372 N 
HETATM    5  C5  UNL     1      22.264   4.834  48.333  1.00  0.00     0.205 C 
HETATM    6  N2  UNL     1      23.124   5.587  48.937  1.00  0.00    -0.226 NA
HETATM    7  C6  UNL     1      23.594   5.255  50.254  1.00  0.00     0.138 C 
HETATM    8  C13 UNL     1      23.114   4.165  50.891  1.00  0.00     0.017 C 
HETATM    9  C14 UNL     1      23.870   3.903  52.101  1.00  0.00     0.053 C 
HETATM   10  C15 UNL     1      23.788   2.630  52.540  1.00  0.00     0.102 C 
HETATM   11  H6  UNL     1      21.131   2.941  48.444  1.00  0.00     0.161 HD
ENDROOT
BRANCH   7  12
HETATM   12  N3  UNL     1      24.569   6.155  50.786  1.00  0.00    -0.340 N 
HETATM   13  H8  UNL     1      24.496   6.779  51.642  1.00  0.00     0.167 HD
BRANCH  12  14
HETATM   14  C7  UNL     1      25.736   6.085  49.940  1.00  0.00     0.035 A 
HETATM   15  C8  UNL     1      26.261   4.848  49.628  1.00  0.00     0.032 A 
HETATM   16  C9  UNL     1      27.373   4.675  48.827  1.00  0.00     0.046 A 
HETATM   17  C10 UNL     1      27.986   5.816  48.313  1.00  0.00     0.138 A 
HETATM   18  F1  UNL     1      29.066   5.781  47.527  1.00  0.00    -0.204 F 
HETATM   19  C11 UNL     1      27.477   7.080  48.611  1.00  0.00     0.074 A 
HETATM   20 CL1  UNL     1      28.182   8.569  48.011  1.00  0.00    -0.081 Cl
HETATM   21  C12 UNL     1      26.369   7.195  49.413  1.00  0.00     0.056 A 
ENDBRANCH  12  14
ENDBRANCH   7  12
BRANCH  10  22
HETATM   22  O2  UNL     1      24.477   2.202  53.656  1.00  0.00    -0.348 OA
BRANCH  22  23
HETATM   23  C16 UNL     1      25.878   2.253  53.775  1.00  0.00     0.177 C 
BRANCH  23  24
HETATM   24  C17 UNL     1      26.452   1.646  52.487  1.00  0.00     0.046 C 
BRANCH  24  25
HETATM   25  C18 UNL     1      27.859   1.137  52.749  1.00  0.00     0.119 C 
BRANCH  25  26
HETATM   26  N4  UNL     1      27.820  -0.088  53.422  1.00  0.00    -0.408 N 
HETATM   27  C19 UNL     1      26.887  -1.025  52.979  1.00  0.00     0.143 C 
HETATM   28  C20 UNL     1      27.416  -2.366  52.566  1.00  0.00     0.187 C 
HETATM   29  O3  UNL     1      28.484  -2.782  53.359  1.00  0.00    -0.388 OA
HETATM   30  C21 UNL     1      29.487  -1.802  53.350  1.00  0.00     0.187 C 
HETATM   31  C22 UNL     1      28.935  -0.599  54.085  1.00  0.00     0.143 C 
ENDBRANCH  25  26
ENDBRANCH  24  25
ENDBRANCH  23  24
ENDBRANCH  22  23
ENDBRANCH  10  22
BRANCH   1  32
HETATM   32  O1  UNL     1      22.962   0.422  52.199  1.00  0.00    -0.353 OA
HETATM   33  C1  UNL     1      21.917  -0.208  52.885  1.00  0.00     0.210 C 
ENDBRANCH   1  32
TORSDOF 8
ENDMDL
MODEL 8
REMARK VINA RESULT:      -7.8      4.637      7.543
REMARK  8 active torsions:
REMARK  status: ('A' for Active; 'I' for Inactive)
REMARK    1  A    between atoms: O1_2  and  C2_3 
REMARK    2  A    between atoms: C6_9  and  N3_10 
REMARK    3  A    between atoms: N3_10  and  C7_11 
REMARK    4  A    between atoms: C15_21  and  O2_22 
REMARK    5  A    between atoms: O2_22  and  C16_23 
REMARK    6  A    between atoms: C16_23  and  C17_24 
REMARK    7  A    between atoms: C17_24  and  C18_25 
REMARK    8  A    between atoms: C18_25  and  N4_26 
ROOT
HETATM    1  C2  UNL     1      21.414   1.609  52.385  1.00  0.00     0.100 C 
HETATM    2  C3  UNL     1      20.739   2.309  51.498  1.00  0.00     0.042 C 
HETATM    3  C4  UNL     1      21.548   3.256  50.732  1.00  0.00     0.145 C 
HETATM    4  N1  UNL     1      21.107   3.688  49.468  1.00  0.00    -0.372 N 
HETATM    5  C5  UNL     1      22.095   4.065  48.485  1.00  0.00     0.205 C 
HETATM    6  N2  UNL     1      23.362   3.901  48.684  1.00  0.00    -0.226 NA
HETATM    7  C6  UNL     1      23.846   3.344  49.918  1.00  0.00     0.138 C 
HETATM    8  C13 UNL     1      22.978   3.015  50.899  1.00  0.00     0.017 C 
HETATM    9  C14 UNL     1      23.652   2.283  51.956  1.00  0.00     0.053 C 
HETATM   10  C15 UNL     1      22.831   1.530  52.717  1.00  0.00     0.102 C 
HETATM   11  H6  UNL     1      20.078   3.712  49.311  1.00  0.00     0.161 HD
ENDROOT
BRANCH   7  12
HETATM   12  N3  UNL     1      25.264   3.185  49.987  1.00  0.00    -0.340 N 
HETATM   13  H8  UNL     1      25.821   2.317  50.241  1.00  0.00     0.167 HD
BRANCH  12  14
HETATM   14  C7  UNL     1      25.864   4.452  49.641  1.00  0.00     0.035 A 
HETATM   15  C8  UNL     1      27.025   4.459  48.895  1.00  0.00     0.032 A 
HETATM   16  C9  UNL     1      27.673   5.616  48.512  1.00  0.00     0.046 A 
HETATM   17  C10 UNL     1      27.117   6.831  48.906  1.00  0.00     0.138 A 
HETATM   18  F1  UNL     1      27.649   8.018  48.598  1.00  0.00    -0.204 F 
HETATM   19  C11 UNL     1      25.944   6.855  49.659  1.00  0.00     0.074 A 
HETATM   20 CL1  UNL     1      25.174   8.336  50.198  1.00  0.00    -0.081 Cl
HETATM   21  C12 UNL     1      25.340   5.675  50.013  1.00  0.00     0.056 A 
ENDBRANCH  12  14
ENDBRANCH   7  12
BRANCH  10  22
HETATM   22  O2  UNL     1      23.312   0.741  53.741  1.00  0.00    -0.348 OA
BRANCH  22  23
HETATM   23  C16 UNL     1      23.839  -0.550  53.550  1.00  0.00     0.177 C 
BRANCH  23  24
HETATM   24  C17 UNL     1      25.302  -0.501  54.011  1.00  0.00     0.046 C 
BRANCH  24  25
HETATM   25  C18 UNL     1      26.204  -0.988  52.889  1.00  0.00     0.119 C 
BRANCH  25  26
HETATM   26  N4  UNL     1      27.365  -0.212  52.821  1.00  0.00    -0.408 N 
HETATM   27  C19 UNL     1      27.205   1.144  52.536  1.00  0.00     0.143 C 
HETATM   28  C20 UNL     1      27.769   2.117  53.527  1.00  0.00     0.187 C 
HETATM   29  O3  UNL     1      28.964   1.670  54.088  1.00  0.00    -0.388 OA
HETATM   30  C21 UNL     1      28.772   0.402  54.655  1.00  0.00     0.187 C 
HETATM   31  C22 UNL     1      28.524  -0.559  53.513  1.00  0.00     0.143 C 
ENDBRANCH  25  26
ENDBRANCH  24  25
ENDBRANCH  23  24
ENDBRANCH  22  23
ENDBRANCH  10  22
BRANCH   1  32
HETATM   32  O1  UNL     1      20.625   0.734  53.136  1.00  0.00    -0.353 OA
HETATM   33  C1  UNL     1      19.630  -0.091  52.598  1.00  0.00     0.210 C 
ENDBRANCH   1  32
TORSDOF 8
ENDMDL
MODEL 9
REMARK VINA RESULT:      -7.8      6.889     10.877
REMARK  8 active torsions:
REMARK  status: ('A' for Active; 'I' for Inactive)
REMARK    1  A    between atoms: O1_2  and  C2_3 
REMARK    2  A    between atoms: C6_9  and  N3_10 
REMARK    3  A    between atoms: N3_10  and  C7_11 
REMARK    4  A    between atoms: C15_21  and  O2_22 
REMARK    5  A    between atoms: O2_22  and  C16_23 
REMARK    6  A    between atoms: C16_23  and  C17_24 
REMARK    7  A    between atoms: C17_24  and  C18_25 
REMARK    8  A    between atoms: C18_25  and  N4_26 
ROOT
HETATM    1  C2  UNL     1      20.424  -0.562  53.402  1.00  0.00     0.100 C 
HETATM    2  C3  UNL     1      20.863  -1.239  54.443  1.00  0.00     0.042 C 
HETATM    3  C4  UNL     1      22.306  -1.473  54.447  1.00  0.00     0.145 C 
HETATM    4  N1  UNL     1      22.971  -1.717  55.663  1.00  0.00    -0.372 N 
HETATM    5  C5  UNL     1      24.356  -1.328  55.782  1.00  0.00     0.205 C 
HETATM    6  N2  UNL     1      24.964  -0.656  54.860  1.00  0.00    -0.226 NA
HETATM    7  C6  UNL     1      24.280  -0.279  53.653  1.00  0.00     0.138 C 
HETATM    8  C13 UNL     1      22.998  -0.653  53.456  1.00  0.00     0.017 C 
HETATM    9  C14 UNL     1      22.445   0.007  52.288  1.00  0.00     0.053 C 
HETATM   10  C15 UNL     1      21.097   0.072  52.275  1.00  0.00     0.102 C 
HETATM   11  H6  UNL     1      22.417  -2.171  56.419  1.00  0.00     0.161 HD
ENDROOT
BRANCH   7  12
HETATM   12  N3  UNL     1      25.062   0.492  52.738  1.00  0.00    -0.340 N 
HETATM   13  H8  UNL     1      24.729   1.151  51.976  1.00  0.00     0.167 HD
BRANCH  12  14
HETATM   14  C7  UNL     1      26.453   0.227  53.020  1.00  0.00     0.035 A 
HETATM   15  C8  UNL     1      26.972  -1.012  52.706  1.00  0.00     0.032 A 
HETATM   16  C9  UNL     1      28.288  -1.363  52.935  1.00  0.00     0.046 A 
HETATM   17  C10 UNL     1      29.123  -0.408  53.512  1.00  0.00     0.138 A 
HETATM   18  F1  UNL     1      30.414  -0.626  53.783  1.00  0.00    -0.204 F 
HETATM   19  C11 UNL     1      28.625   0.853  53.839  1.00  0.00     0.074 A 
HETATM   20 CL1  UNL     1      29.601   2.115  54.568  1.00  0.00    -0.081 Cl
HETATM   21  C12 UNL     1      27.308   1.149  53.590  1.00  0.00     0.056 A 
ENDBRANCH  12  14
ENDBRANCH   7  12
BRANCH  10  22
HETATM   22  O2  UNL     1      20.411   0.699  51.257  1.00  0.00    -0.348 OA
BRANCH  22  23
HETATM   23  C16 UNL     1      20.506   2.077  50.985  1.00  0.00     0.177 C 
BRANCH  23  24
HETATM   24  C17 UNL     1      19.284   2.740  51.636  1.00  0.00     0.046 C 
BRANCH  24  25
HETATM   25  C18 UNL     1      18.021   2.015  51.201  1.00  0.00     0.119 C 
BRANCH  25  26
HETATM   26  N4  UNL     1      17.002   2.930  50.921  1.00  0.00    -0.408 N 
HETATM   27  C19 UNL     1      15.855   2.432  50.303  1.00  0.00     0.143 C 
HETATM   28  C20 UNL     1      14.551   2.662  51.007  1.00  0.00     0.187 C 
HETATM   29  O3  UNL     1      14.505   3.900  51.646  1.00  0.00    -0.388 OA
HETATM   30  C21 UNL     1      15.595   4.021  52.519  1.00  0.00     0.187 C 
HETATM   31  C22 UNL     1      16.840   4.099  51.662  1.00  0.00     0.143 C 
ENDBRANCH  25  26
ENDBRANCH  24  25
ENDBRANCH  23  24
ENDBRANCH  22  23
ENDBRANCH  10  22
BRANCH   1  32
HETATM   32  O1  UNL     1      19.040  -0.376  53.390  1.00  0.00    -0.353 OA
HETATM   33  C1  UNL     1      18.106  -1.409  53.238  1.00  0.00     0.210 C 
ENDBRANCH   1  32
TORSDOF 8
ENDMDL
