MODEL 1
REMARK VINA RESULT:      -9.2      0.000      0.000
REMARK  1 active torsions:
REMARK  status: ('A' for Active; 'I' for Inactive)
REMARK    1  A    between atoms: C3_3  and  C4_4 
ROOT
HETATM    1  C4  UNL     1      24.567   0.037  53.281  1.00  0.00     0.048 C 
HETATM    2  C5  UNL     1      25.652   0.706  53.446  1.00  0.00     0.047 A 
HETATM    3  C6  UNL     1      25.826   2.117  53.670  1.00  0.00     0.257 A 
HETATM    4  O1  UNL     1      25.126   3.146  53.791  1.00  0.00    -0.267 OA
HETATM    5  N1  UNL     1      27.190   2.476  53.794  1.00  0.00    -0.322 N 
HETATM    6  C7  UNL     1      27.893   1.253  53.643  1.00  0.00     0.046 A 
HETATM    7  C8  UNL     1      29.236   0.907  53.659  1.00  0.00     0.033 A 
HETATM    8  C9  UNL     1      29.784  -0.342  53.496  1.00  0.00     0.044 A 
HETATM    9  C10 UNL     1      28.915  -1.388  53.292  1.00  0.00     0.117 A 
HETATM   10  F1  UNL     1      29.354  -2.652  53.121  1.00  0.00    -0.206 F 
HETATM   11  C11 UNL     1      27.581  -1.089  53.270  1.00  0.00     0.057 A 
HETATM   12  C12 UNL     1      27.043   0.198  53.439  1.00  0.00     0.009 A 
HETATM   13  H5  UNL     1      27.736   3.359  53.957  1.00  0.00     0.169 HD
ENDROOT
BRANCH   1  14
HETATM   14  C3  UNL     1      23.160  -0.114  53.176  1.00  0.00     0.039 C 
HETATM   15  C2  UNL     1      22.301  -0.733  53.978  1.00  0.00     0.012 C 
HETATM   16  C1  UNL     1      22.447  -1.482  55.248  1.00  0.00     0.054 C 
HETATM   17  C15 UNL     1      20.944  -0.612  53.475  1.00  0.00     0.179 C 
HETATM   18  C13 UNL     1      20.978   0.613  52.612  1.00  0.00     0.152 C 
HETATM   19  O2  UNL     1      19.902  -1.314  53.656  1.00  0.00    -0.290 OA
HETATM   20  N2  UNL     1      22.344   0.418  52.087  1.00  0.00    -0.378 N 
HETATM   21  C14 UNL     1      20.031   0.375  51.482  1.00  0.00     0.040 C 
HETATM   22  H9  UNL     1      22.572   0.648  51.101  1.00  0.00     0.160 HD
ENDBRANCH   1  14
TORSDOF 1
ENDMDL
MODEL 2
REMARK VINA RESULT:      -9.0      3.088      6.987
REMARK  1 active torsions:
REMARK  status: ('A' for Active; 'I' for Inactive)
REMARK    1  A    between atoms: C3_3  and  C4_4 
ROOT
HETATM    1  C4  UNL     1      24.309  -0.331  53.230  1.00  0.00     0.048 C 
HETATM    2  C5  UNL     1      23.085  -0.526  53.569  1.00  0.00     0.047 A 
HETATM    3  C6  UNL     1      22.556  -1.102  54.777  1.00  0.00     0.257 A 
HETATM    4  O1  UNL     1      22.973  -1.583  55.854  1.00  0.00    -0.267 OA
HETATM    5  N1  UNL     1      21.141  -1.153  54.771  1.00  0.00    -0.322 N 
HETATM    6  C7  UNL     1      20.772  -0.591  53.522  1.00  0.00     0.046 A 
HETATM    7  C8  UNL     1      19.557  -0.350  52.898  1.00  0.00     0.033 A 
HETATM    8  C9  UNL     1      19.344   0.212  51.663  1.00  0.00     0.044 A 
HETATM    9  C10 UNL     1      20.454   0.585  50.943  1.00  0.00     0.117 A 
HETATM   10  F1  UNL     1      20.351   1.145  49.720  1.00  0.00    -0.206 F 
HETATM   11  C11 UNL     1      21.672   0.364  51.523  1.00  0.00     0.057 A 
HETATM   12  C12 UNL     1      21.866  -0.212  52.790  1.00  0.00     0.009 A 
HETATM   13  H5  UNL     1      20.386  -1.482  55.424  1.00  0.00     0.169 HD
ENDROOT
BRANCH   1  14
HETATM   14  C3  UNL     1      25.715  -0.379  53.423  1.00  0.00     0.039 C 
HETATM   15  C2  UNL     1      26.621  -1.214  52.928  1.00  0.00     0.012 C 
HETATM   16  C1  UNL     1      26.545  -2.381  52.017  1.00  0.00     0.054 C 
HETATM   17  C15 UNL     1      27.953  -0.865  53.389  1.00  0.00     0.179 C 
HETATM   18  C13 UNL     1      27.853   0.589  53.742  1.00  0.00     0.152 C 
HETATM   19  O2  UNL     1      29.019  -1.544  53.507  1.00  0.00    -0.290 OA
HETATM   20  N2  UNL     1      26.472   0.546  54.263  1.00  0.00    -0.378 N 
HETATM   21  C14 UNL     1      28.759   0.817  54.906  1.00  0.00     0.040 C 
HETATM   22  H9  UNL     1      26.198   1.112  55.089  1.00  0.00     0.160 HD
ENDBRANCH   1  14
TORSDOF 1
ENDMDL
MODEL 3
REMARK VINA RESULT:      -8.6      2.746      6.617
REMARK  1 active torsions:
REMARK  status: ('A' for Active; 'I' for Inactive)
REMARK    1  A    between atoms: C3_3  and  C4_4 
ROOT
HETATM    1  C4  UNL     1      25.053   0.532  53.454  1.00  0.00     0.048 C 
HETATM    2  C5  UNL     1      23.933   1.040  53.081  1.00  0.00     0.047 A 
HETATM    3  C6  UNL     1      23.681   2.274  52.386  1.00  0.00     0.257 A 
HETATM    4  O1  UNL     1      24.321   3.237  51.911  1.00  0.00    -0.267 OA
HETATM    5  N1  UNL     1      22.299   2.489  52.161  1.00  0.00    -0.322 N 
HETATM    6  C7  UNL     1      21.667   1.355  52.731  1.00  0.00     0.046 A 
HETATM    7  C8  UNL     1      20.345   0.949  52.850  1.00  0.00     0.033 A 
HETATM    8  C9  UNL     1      19.869  -0.197  53.439  1.00  0.00     0.044 A 
HETATM    9  C10 UNL     1      20.794  -1.057  53.982  1.00  0.00     0.117 A 
HETATM   10  F1  UNL     1      20.427  -2.207  54.582  1.00  0.00    -0.206 F 
HETATM   11  C11 UNL     1      22.108  -0.693  53.885  1.00  0.00     0.057 A 
HETATM   12  C12 UNL     1      22.574   0.486  53.277  1.00  0.00     0.009 A 
HETATM   13  H5  UNL     1      21.705   3.229  51.709  1.00  0.00     0.169 HD
ENDROOT
BRANCH   1  14
HETATM   14  C3  UNL     1      26.465   0.507  53.591  1.00  0.00     0.039 C 
HETATM   15  C2  UNL     1      27.341  -0.445  53.286  1.00  0.00     0.012 C 
HETATM   16  C1  UNL     1      27.212  -1.804  52.708  1.00  0.00     0.054 C 
HETATM   17  C15 UNL     1      28.695  -0.017  53.583  1.00  0.00     0.179 C 
HETATM   18  C13 UNL     1      28.624   1.481  53.556  1.00  0.00     0.152 C 
HETATM   19  O2  UNL     1      29.761  -0.664  53.823  1.00  0.00    -0.290 OA
HETATM   20  N2  UNL     1      27.270   1.599  54.132  1.00  0.00    -0.378 N 
HETATM   21  C14 UNL     1      29.587   1.980  54.582  1.00  0.00     0.040 C 
HETATM   22  H9  UNL     1      27.040   2.363  54.798  1.00  0.00     0.160 HD
ENDBRANCH   1  14
TORSDOF 1
ENDMDL
MODEL 4
REMARK VINA RESULT:      -8.3      1.740      2.333
REMARK  1 active torsions:
REMARK  status: ('A' for Active; 'I' for Inactive)
REMARK    1  A    between atoms: C3_3  and  C4_4 
ROOT
HETATM    1  C4  UNL     1      23.395   0.832  52.701  1.00  0.00     0.048 C 
HETATM    2  C5  UNL     1      24.578   1.194  53.052  1.00  0.00     0.047 A 
HETATM    3  C6  UNL     1      25.039   2.478  53.510  1.00  0.00     0.257 A 
HETATM    4  O1  UNL     1      24.579   3.618  53.739  1.00  0.00    -0.267 OA
HETATM    5  N1  UNL     1      26.427   2.479  53.792  1.00  0.00    -0.322 N 
HETATM    6  C7  UNL     1      26.848   1.156  53.503  1.00  0.00     0.046 A 
HETATM    7  C8  UNL     1      28.069   0.500  53.565  1.00  0.00     0.033 A 
HETATM    8  C9  UNL     1      28.336  -0.809  53.248  1.00  0.00     0.044 A 
HETATM    9  C10 UNL     1      27.282  -1.579  52.815  1.00  0.00     0.117 A 
HETATM   10  F1  UNL     1      27.441  -2.876  52.479  1.00  0.00    -0.206 F 
HETATM   11  C11 UNL     1      26.061  -0.970  52.740  1.00  0.00     0.057 A 
HETATM   12  C12 UNL     1      25.810   0.373  53.070  1.00  0.00     0.009 A 
HETATM   13  H5  UNL     1      27.135   3.175  54.134  1.00  0.00     0.169 HD
ENDROOT
BRANCH   1  14
HETATM   14  C3  UNL     1      22.011   1.038  52.466  1.00  0.00     0.039 C 
HETATM   15  C2  UNL     1      21.339   2.157  52.216  1.00  0.00     0.012 C 
HETATM   16  C1  UNL     1      21.736   3.578  52.087  1.00  0.00     0.054 C 
HETATM   17  C15 UNL     1      19.927   1.880  52.021  1.00  0.00     0.179 C 
HETATM   18  C13 UNL     1      19.887   0.440  51.605  1.00  0.00     0.152 C 
HETATM   19  O2  UNL     1      18.892   2.604  52.144  1.00  0.00    -0.290 OA
HETATM   20  N2  UNL     1      21.001  -0.018  52.458  1.00  0.00    -0.378 N 
HETATM   21  C14 UNL     1      18.631  -0.140  52.167  1.00  0.00     0.040 C 
HETATM   22  H9  UNL     1      20.967  -0.945  52.925  1.00  0.00     0.160 HD
ENDBRANCH   1  14
TORSDOF 1
ENDMDL
MODEL 5
REMARK VINA RESULT:      -8.0      8.330     11.237
REMARK  1 active torsions:
REMARK  status: ('A' for Active; 'I' for Inactive)
REMARK    1  A    between atoms: C3_3  and  C4_4 
ROOT
HETATM    1  C4  UNL     1      30.724   5.337  48.242  1.00  0.00     0.048 C 
HETATM    2  C5  UNL     1      29.727   6.135  48.100  1.00  0.00     0.047 A 
HETATM    3  C6  UNL     1      29.715   7.508  47.668  1.00  0.00     0.257 A 
HETATM    4  O1  UNL     1      30.523   8.387  47.296  1.00  0.00    -0.267 OA
HETATM    5  N1  UNL     1      28.408   8.052  47.650  1.00  0.00    -0.322 N 
HETATM    6  C7  UNL     1      27.576   6.988  48.083  1.00  0.00     0.046 A 
HETATM    7  C8  UNL     1      26.209   6.857  48.284  1.00  0.00     0.033 A 
HETATM    8  C9  UNL     1      25.527   5.746  48.715  1.00  0.00     0.044 A 
HETATM    9  C10 UNL     1      26.267   4.619  48.984  1.00  0.00     0.117 A 
HETATM   10  F1  UNL     1      25.691   3.477  49.412  1.00  0.00    -0.206 F 
HETATM   11  C11 UNL     1      27.618   4.706  48.798  1.00  0.00     0.057 A 
HETATM   12  C12 UNL     1      28.296   5.856  48.355  1.00  0.00     0.009 A 
HETATM   13  H5  UNL     1      27.969   8.976  47.409  1.00  0.00     0.169 HD
ENDROOT
BRANCH   1  14
HETATM   14  C3  UNL     1      32.099   4.986  48.203  1.00  0.00     0.039 C 
HETATM   15  C2  UNL     1      32.718   4.014  47.543  1.00  0.00     0.012 C 
HETATM   16  C1  UNL     1      32.255   2.949  46.622  1.00  0.00     0.054 C 
HETATM   17  C15 UNL     1      34.148   4.048  47.792  1.00  0.00     0.179 C 
HETATM   18  C13 UNL     1      34.418   5.465  48.200  1.00  0.00     0.152 C 
HETATM   19  O2  UNL     1      35.048   3.156  47.716  1.00  0.00    -0.290 OA
HETATM   20  N2  UNL     1      33.157   5.677  48.937  1.00  0.00    -0.378 N 
HETATM   21  C14 UNL     1      35.519   5.425  49.208  1.00  0.00     0.040 C 
HETATM   22  H9  UNL     1      33.140   6.234  49.813  1.00  0.00     0.160 HD
ENDBRANCH   1  14
TORSDOF 1
ENDMDL
MODEL 6
REMARK VINA RESULT:      -7.9      3.017      3.861
REMARK  1 active torsions:
REMARK  status: ('A' for Active; 'I' for Inactive)
REMARK    1  A    between atoms: C3_3  and  C4_4 
ROOT
HETATM    1  C4  UNL     1      24.310   1.378  51.853  1.00  0.00     0.048 C 
HETATM    2  C5  UNL     1      24.947   0.729  52.762  1.00  0.00     0.047 A 
HETATM    3  C6  UNL     1      24.533  -0.426  53.514  1.00  0.00     0.257 A 
HETATM    4  O1  UNL     1      23.547  -1.189  53.604  1.00  0.00    -0.267 OA
HETATM    5  N1  UNL     1      25.522  -0.846  54.437  1.00  0.00    -0.322 N 
HETATM    6  C7  UNL     1      26.587   0.074  54.258  1.00  0.00     0.046 A 
HETATM    7  C8  UNL     1      27.836   0.224  54.842  1.00  0.00     0.033 A 
HETATM    8  C9  UNL     1      28.783   1.179  54.565  1.00  0.00     0.044 A 
HETATM    9  C10 UNL     1      28.477   2.107  53.597  1.00  0.00     0.117 A 
HETATM   10  F1  UNL     1      29.339   3.085  53.253  1.00  0.00    -0.206 F 
HETATM   11  C11 UNL     1      27.254   1.993  52.996  1.00  0.00     0.057 A 
HETATM   12  C12 UNL     1      26.300   1.006  53.296  1.00  0.00     0.009 A 
HETATM   13  H5  UNL     1      25.625  -1.611  55.150  1.00  0.00     0.169 HD
ENDROOT
BRANCH   1  14
HETATM   14  C3  UNL     1      23.200   1.643  51.009  1.00  0.00     0.039 C 
HETATM   15  C2  UNL     1      23.077   2.491  49.994  1.00  0.00     0.012 C 
HETATM   16  C1  UNL     1      23.998   3.461  49.357  1.00  0.00     0.054 C 
HETATM   17  C15 UNL     1      21.752   2.406  49.406  1.00  0.00     0.179 C 
HETATM   18  C13 UNL     1      21.271   1.035  49.777  1.00  0.00     0.152 C 
HETATM   19  O2  UNL     1      21.068   3.228  48.724  1.00  0.00    -0.290 OA
HETATM   20  N2  UNL     1      21.899   0.986  51.112  1.00  0.00    -0.378 N 
HETATM   21  C14 UNL     1      19.796   1.133  49.985  1.00  0.00     0.040 C 
HETATM   22  H9  UNL     1      21.411   0.541  51.913  1.00  0.00     0.160 HD
ENDBRANCH   1  14
TORSDOF 1
ENDMDL
MODEL 7
REMARK VINA RESULT:      -7.8      4.275      5.416
REMARK  1 active torsions:
REMARK  status: ('A' for Active; 'I' for Inactive)
REMARK    1  A    between atoms: C3_3  and  C4_4 
ROOT
HETATM    1  C4  UNL     1      24.658   2.567  51.611  1.00  0.00     0.048 C 
HETATM    2  C5  UNL     1      24.530   3.765  51.165  1.00  0.00     0.047 A 
HETATM    3  C6  UNL     1      23.498   4.731  51.432  1.00  0.00     0.257 A 
HETATM    4  O1  UNL     1      22.448   4.828  52.105  1.00  0.00    -0.267 OA
HETATM    5  N1  UNL     1      23.709   5.947  50.737  1.00  0.00    -0.322 N 
HETATM    6  C7  UNL     1      24.910   5.737  50.013  1.00  0.00     0.046 A 
HETATM    7  C8  UNL     1      25.660   6.519  49.146  1.00  0.00     0.033 A 
HETATM    8  C9  UNL     1      26.826   6.179  48.505  1.00  0.00     0.044 A 
HETATM    9  C10 UNL     1      27.326   4.919  48.734  1.00  0.00     0.117 A 
HETATM   10  F1  UNL     1      28.464   4.491  48.150  1.00  0.00    -0.206 F 
HETATM   11  C11 UNL     1      26.616   4.117  49.582  1.00  0.00     0.057 A 
HETATM   12  C12 UNL     1      25.424   4.486  50.229  1.00  0.00     0.009 A 
HETATM   13  H5  UNL     1      23.219   6.873  50.653  1.00  0.00     0.169 HD
ENDROOT
BRANCH   1  14
HETATM   14  C3  UNL     1      24.266   1.438  52.377  1.00  0.00     0.039 C 
HETATM   15  C2  UNL     1      23.154   0.712  52.328  1.00  0.00     0.012 C 
HETATM   16  C1  UNL     1      21.927   0.778  51.500  1.00  0.00     0.054 C 
HETATM   17  C15 UNL     1      23.200  -0.370  53.296  1.00  0.00     0.179 C 
HETATM   18  C13 UNL     1      24.664  -0.589  53.536  1.00  0.00     0.152 C 
HETATM   19  O2  UNL     1      22.287  -1.042  53.867  1.00  0.00    -0.290 OA
HETATM   20  N2  UNL     1      25.070   0.827  53.432  1.00  0.00    -0.378 N 
HETATM   21  C14 UNL     1      24.814  -0.989  54.967  1.00  0.00     0.040 C 
HETATM   22  H9  UNL     1      25.806   1.215  54.053  1.00  0.00     0.160 HD
ENDBRANCH   1  14
TORSDOF 1
ENDMDL
MODEL 8
REMARK VINA RESULT:      -7.8      3.962      6.447
REMARK  1 active torsions:
REMARK  status: ('A' for Active; 'I' for Inactive)
REMARK    1  A    between atoms: C3_3  and  C4_4 
ROOT
HETATM    1  C4  UNL     1      24.070   2.659  52.124  1.00  0.00     0.048 C 
HETATM    2  C5  UNL     1      24.242   1.574  52.790  1.00  0.00     0.047 A 
HETATM    3  C6  UNL     1      25.469   0.927  53.173  1.00  0.00     0.257 A 
HETATM    4  O1  UNL     1      26.702   1.098  53.059  1.00  0.00    -0.267 OA
HETATM    5  N1  UNL     1      25.240  -0.268  53.899  1.00  0.00    -0.322 N 
HETATM    6  C7  UNL     1      23.827  -0.371  53.974  1.00  0.00     0.046 A 
HETATM    7  C8  UNL     1      22.959  -1.293  54.540  1.00  0.00     0.033 A 
HETATM    8  C9  UNL     1      21.586  -1.267  54.535  1.00  0.00     0.044 A 
HETATM    9  C10 UNL     1      20.979  -0.210  53.898  1.00  0.00     0.117 A 
HETATM   10  F1  UNL     1      19.637  -0.094  53.838  1.00  0.00    -0.206 F 
HETATM   11  C11 UNL     1      21.800   0.721  53.327  1.00  0.00     0.057 A 
HETATM   12  C12 UNL     1      23.205   0.674  53.344  1.00  0.00     0.009 A 
HETATM   13  H5  UNL     1      25.829  -1.013  54.348  1.00  0.00     0.169 HD
ENDROOT
BRANCH   1  14
HETATM   14  C3  UNL     1      24.505   3.807  51.411  1.00  0.00     0.039 C 
HETATM   15  C2  UNL     1      25.391   3.922  50.427  1.00  0.00     0.012 C 
HETATM   16  C1  UNL     1      26.247   2.951  49.706  1.00  0.00     0.054 C 
HETATM   17  C15 UNL     1      25.502   5.301  49.989  1.00  0.00     0.179 C 
HETATM   18  C13 UNL     1      24.198   5.923  50.392  1.00  0.00     0.152 C 
HETATM   19  O2  UNL     1      26.428   5.936  49.397  1.00  0.00    -0.290 OA
HETATM   20  N2  UNL     1      24.027   5.167  51.648  1.00  0.00    -0.378 N 
HETATM   21  C14 UNL     1      24.488   7.339  50.763  1.00  0.00     0.040 C 
HETATM   22  H9  UNL     1      23.629   5.622  52.492  1.00  0.00     0.160 HD
ENDBRANCH   1  14
TORSDOF 1
ENDMDL
MODEL 9
REMARK VINA RESULT:      -7.7      3.401      6.934
REMARK  1 active torsions:
REMARK  status: ('A' for Active; 'I' for Inactive)
REMARK    1  A    between atoms: C3_3  and  C4_4 
ROOT
HETATM    1  C4  UNL     1      24.394   1.503  51.793  1.00  0.00     0.048 C 
HETATM    2  C5  UNL     1      23.130   1.403  51.585  1.00  0.00     0.047 A 
HETATM    3  C6  UNL     1      22.091   0.972  52.482  1.00  0.00     0.257 A 
HETATM    4  O1  UNL     1      21.967   0.577  53.662  1.00  0.00    -0.267 OA
HETATM    5  N1  UNL     1      20.813   0.992  51.871  1.00  0.00    -0.322 N 
HETATM    6  C7  UNL     1      21.059   1.449  50.551  1.00  0.00     0.046 A 
HETATM    7  C8  UNL     1      20.250   1.690  49.451  1.00  0.00     0.033 A 
HETATM    8  C9  UNL     1      20.631   2.140  48.210  1.00  0.00     0.044 A 
HETATM    9  C10 UNL     1      21.969   2.387  48.015  1.00  0.00     0.117 A 
HETATM   10  F1  UNL     1      22.444   2.831  46.833  1.00  0.00    -0.206 F 
HETATM   11  C11 UNL     1      22.801   2.162  49.076  1.00  0.00     0.057 A 
HETATM   12  C12 UNL     1      22.388   1.701  50.338  1.00  0.00     0.009 A 
HETATM   13  H5  UNL     1      19.827   0.765  52.156  1.00  0.00     0.169 HD
ENDROOT
BRANCH   1  14
HETATM   14  C3  UNL     1      25.574   1.404  52.575  1.00  0.00     0.039 C 
HETATM   15  C2  UNL     1      25.921   0.511  53.496  1.00  0.00     0.012 C 
HETATM   16  C1  UNL     1      25.255  -0.686  54.060  1.00  0.00     0.054 C 
HETATM   17  C15 UNL     1      27.243   0.800  54.024  1.00  0.00     0.179 C 
HETATM   18  C13 UNL     1      27.906   1.601  52.944  1.00  0.00     0.152 C 
HETATM   19  O2  UNL     1      27.808   0.497  55.120  1.00  0.00    -0.290 OA
HETATM   20  N2  UNL     1      26.700   2.332  52.506  1.00  0.00    -0.378 N 
HETATM   21  C14 UNL     1      28.801   2.586  53.620  1.00  0.00     0.040 C 
HETATM   22  H9  UNL     1      26.757   3.330  52.224  1.00  0.00     0.160 HD
ENDBRANCH   1  14
TORSDOF 1
ENDMDL
