MODEL 1
REMARK VINA RESULT:      -8.3      0.000      0.000
REMARK  4 active torsions:
REMARK  status: ('A' for Active; 'I' for Inactive)
REMARK    1  A    between atoms: C7_7  and  N1_8 
REMARK    2  A    between atoms: N1_8  and  C8_9 
REMARK    3  A    between atoms: C13_15  and  O1_16 
REMARK    4  A    between atoms: C15_18  and  O2_19 
ROOT
HETATM    1  C1  UNL     1      27.588   4.955  48.598  1.00  0.00     0.018 C 
HETATM    2  C2  UNL     1      26.439   4.853  48.951  1.00  0.00    -0.078 C 
HETATM    3  C3  UNL     1      25.077   4.747  49.390  1.00  0.00     0.019 A 
HETATM    4  C4  UNL     1      24.038   5.277  48.659  1.00  0.00     0.021 A 
HETATM    5  C5  UNL     1      22.740   5.158  49.110  1.00  0.00     0.004 A 
HETATM    6  C6  UNL     1      22.513   4.499  50.299  1.00  0.00     0.029 A 
HETATM    7  C7  UNL     1      23.487   3.936  51.097  1.00  0.00     0.034 A 
HETATM    8  C18 UNL     1      24.766   4.105  50.565  1.00  0.00     0.050 A 
ENDROOT
BRANCH   7   9
HETATM    9  N1  UNL     1      23.215   3.241  52.301  1.00  0.00    -0.355 N 
HETATM   10  H5  UNL     1      22.860   3.964  52.953  1.00  0.00     0.166 HD
BRANCH   9  11
HETATM   11  C8  UNL     1      23.346   1.904  52.657  1.00  0.00     0.046 A 
HETATM   12  C9  UNL     1      22.397   0.921  52.537  1.00  0.00     0.049 A 
HETATM   13  C10 UNL     1      22.515  -0.395  52.899  1.00  0.00     0.119 A 
HETATM   14  N2  UNL     1      23.704  -0.792  53.442  1.00  0.00    -0.260 NA
HETATM   15  C11 UNL     1      24.679   0.147  53.582  1.00  0.00     0.071 A 
HETATM   16  C12 UNL     1      25.838  -0.346  54.137  1.00  0.00     0.072 A 
HETATM   17  C17 UNL     1      24.527   1.466  53.207  1.00  0.00     0.022 A 
HETATM   18  C13 UNL     1      26.927   0.467  54.349  1.00  0.00     0.103 A 
HETATM   19  C15 UNL     1      26.817   1.793  53.989  1.00  0.00     0.100 A 
HETATM   20  C16 UNL     1      25.639   2.245  53.437  1.00  0.00     0.055 A 
BRANCH  18  21
HETATM   21  O1  UNL     1      28.091  -0.007  54.902  1.00  0.00    -0.353 OA
HETATM   22  C14 UNL     1      29.086  -0.590  54.081  1.00  0.00     0.210 C 
ENDBRANCH  18  21
BRANCH  19  23
HETATM   23  O2  UNL     1      27.903   2.653  54.190  1.00  0.00    -0.358 OA
HETATM   24  H12 UNL     1      28.486   2.964  53.418  1.00  0.00     0.217 HD
ENDBRANCH  19  23
ENDBRANCH   9  11
ENDBRANCH   7   9
TORSDOF 4
ENDMDL
MODEL 2
REMARK VINA RESULT:      -7.8      2.736      4.348
REMARK  4 active torsions:
REMARK  status: ('A' for Active; 'I' for Inactive)
REMARK    1  A    between atoms: C7_7  and  N1_8 
REMARK    2  A    between atoms: N1_8  and  C8_9 
REMARK    3  A    between atoms: C13_15  and  O1_16 
REMARK    4  A    between atoms: C15_18  and  O2_19 
ROOT
HETATM    1  C1  UNL     1      17.483  -0.355  51.675  1.00  0.00     0.018 C 
HETATM    2  C2  UNL     1      18.550   0.084  51.325  1.00  0.00    -0.078 C 
HETATM    3  C3  UNL     1      19.830   0.586  50.915  1.00  0.00     0.019 A 
HETATM    4  C4  UNL     1      20.104   0.882  49.599  1.00  0.00     0.021 A 
HETATM    5  C5  UNL     1      21.346   1.362  49.238  1.00  0.00     0.004 A 
HETATM    6  C6  UNL     1      22.296   1.536  50.221  1.00  0.00     0.029 A 
HETATM    7  C7  UNL     1      22.114   1.269  51.562  1.00  0.00     0.034 A 
HETATM    8  C18 UNL     1      20.832   0.788  51.834  1.00  0.00     0.050 A 
ENDROOT
BRANCH   7   9
HETATM    9  N1  UNL     1      23.105   1.486  52.551  1.00  0.00    -0.355 N 
HETATM   10  H5  UNL     1      23.266   2.510  52.548  1.00  0.00     0.166 HD
BRANCH   9  11
HETATM   11  C8  UNL     1      23.783   0.618  53.398  1.00  0.00     0.046 A 
HETATM   12  C9  UNL     1      23.239  -0.381  54.164  1.00  0.00     0.049 A 
HETATM   13  C10 UNL     1      23.899  -1.230  55.013  1.00  0.00     0.119 A 
HETATM   14  N2  UNL     1      25.253  -1.080  55.121  1.00  0.00    -0.260 NA
HETATM   15  C11 UNL     1      25.841  -0.101  54.381  1.00  0.00     0.071 A 
HETATM   16  C12 UNL     1      27.204  -0.027  54.558  1.00  0.00     0.072 A 
HETATM   17  C17 UNL     1      25.145   0.738  53.535  1.00  0.00     0.022 A 
HETATM   18  C13 UNL     1      27.958   0.906  53.885  1.00  0.00     0.103 A 
HETATM   19  C15 UNL     1      27.302   1.765  53.029  1.00  0.00     0.100 A 
HETATM   20  C16 UNL     1      25.937   1.656  52.883  1.00  0.00     0.055 A 
BRANCH  18  21
HETATM   21  O1  UNL     1      29.319   0.995  54.048  1.00  0.00    -0.353 OA
HETATM   22  C14 UNL     1      30.167  -0.021  53.547  1.00  0.00     0.210 C 
ENDBRANCH  18  21
BRANCH  19  23
HETATM   23  O2  UNL     1      28.034   2.729  52.328  1.00  0.00    -0.358 OA
HETATM   24  H12 UNL     1      29.030   2.622  52.156  1.00  0.00     0.217 HD
ENDBRANCH  19  23
ENDBRANCH   9  11
ENDBRANCH   7   9
TORSDOF 4
ENDMDL
MODEL 3
REMARK VINA RESULT:      -7.8      2.951      5.959
REMARK  4 active torsions:
REMARK  status: ('A' for Active; 'I' for Inactive)
REMARK    1  A    between atoms: C7_7  and  N1_8 
REMARK    2  A    between atoms: N1_8  and  C8_9 
REMARK    3  A    between atoms: C13_15  and  O1_16 
REMARK    4  A    between atoms: C15_18  and  O2_19 
ROOT
HETATM    1  C1  UNL     1      17.399  -3.485  53.841  1.00  0.00     0.018 C 
HETATM    2  C2  UNL     1      17.801  -2.431  53.414  1.00  0.00    -0.078 C 
HETATM    3  C3  UNL     1      18.296  -1.188  52.895  1.00  0.00     0.019 A 
HETATM    4  C4  UNL     1      17.573  -0.441  51.993  1.00  0.00     0.021 A 
HETATM    5  C5  UNL     1      18.079   0.749  51.514  1.00  0.00     0.004 A 
HETATM    6  C6  UNL     1      19.315   1.166  51.958  1.00  0.00     0.029 A 
HETATM    7  C7  UNL     1      20.109   0.488  52.858  1.00  0.00     0.034 A 
HETATM    8  C18 UNL     1      19.520  -0.702  53.288  1.00  0.00     0.050 A 
ENDROOT
BRANCH   7   9
HETATM    9  N1  UNL     1      21.365   0.961  53.314  1.00  0.00    -0.355 N 
HETATM   10  H5  UNL     1      21.260   1.050  54.341  1.00  0.00     0.166 HD
BRANCH   9  11
HETATM   11  C8  UNL     1      22.543   1.271  52.646  1.00  0.00     0.046 A 
HETATM   12  C9  UNL     1      22.684   2.098  51.561  1.00  0.00     0.049 A 
HETATM   13  C10 UNL     1      23.840   2.396  50.889  1.00  0.00     0.119 A 
HETATM   14  N2  UNL     1      24.993   1.813  51.334  1.00  0.00    -0.260 NA
HETATM   15  C11 UNL     1      24.905   0.982  52.409  1.00  0.00     0.071 A 
HETATM   16  C12 UNL     1      26.115   0.443  52.783  1.00  0.00     0.072 A 
HETATM   17  C17 UNL     1      23.723   0.703  53.064  1.00  0.00     0.022 A 
HETATM   18  C13 UNL     1      26.210  -0.418  53.851  1.00  0.00     0.103 A 
HETATM   19  C15 UNL     1      25.052  -0.724  54.534  1.00  0.00     0.100 A 
HETATM   20  C16 UNL     1      23.862  -0.162  54.125  1.00  0.00     0.055 A 
BRANCH  18  21
HETATM   21  O1  UNL     1      27.408  -0.966  54.239  1.00  0.00    -0.353 OA
HETATM   22  C14 UNL     1      28.611  -0.578  53.602  1.00  0.00     0.210 C 
ENDBRANCH  18  21
BRANCH  19  23
HETATM   23  O2  UNL     1      25.107  -1.597  55.625  1.00  0.00    -0.358 OA
HETATM   24  H12 UNL     1      24.400  -1.583  56.355  1.00  0.00     0.217 HD
ENDBRANCH  19  23
ENDBRANCH   9  11
ENDBRANCH   7   9
TORSDOF 4
ENDMDL
MODEL 4
REMARK VINA RESULT:      -7.8      3.295      6.447
REMARK  4 active torsions:
REMARK  status: ('A' for Active; 'I' for Inactive)
REMARK    1  A    between atoms: C7_7  and  N1_8 
REMARK    2  A    between atoms: N1_8  and  C8_9 
REMARK    3  A    between atoms: C13_15  and  O1_16 
REMARK    4  A    between atoms: C15_18  and  O2_19 
ROOT
HETATM    1  C1  UNL     1      29.603  -2.378  53.372  1.00  0.00     0.018 C 
HETATM    2  C2  UNL     1      29.055  -1.304  53.397  1.00  0.00    -0.078 C 
HETATM    3  C3  UNL     1      28.394  -0.031  53.449  1.00  0.00     0.019 A 
HETATM    4  C4  UNL     1      29.100   1.148  53.526  1.00  0.00     0.021 A 
HETATM    5  C5  UNL     1      28.433   2.355  53.575  1.00  0.00     0.004 A 
HETATM    6  C6  UNL     1      27.055   2.348  53.546  1.00  0.00     0.029 A 
HETATM    7  C7  UNL     1      26.265   1.221  53.469  1.00  0.00     0.034 A 
HETATM    8  C18 UNL     1      27.023   0.049  53.424  1.00  0.00     0.050 A 
ENDROOT
BRANCH   7   9
HETATM    9  N1  UNL     1      24.850   1.252  53.413  1.00  0.00    -0.355 N 
HETATM   10  H5  UNL     1      24.539   1.076  54.385  1.00  0.00     0.166 HD
BRANCH   9  11
HETATM   11  C8  UNL     1      23.963   1.462  52.364  1.00  0.00     0.046 A 
HETATM   12  C9  UNL     1      24.201   2.164  51.209  1.00  0.00     0.049 A 
HETATM   13  C10 UNL     1      23.326   2.388  50.179  1.00  0.00     0.119 A 
HETATM   14  N2  UNL     1      22.071   1.861  50.296  1.00  0.00    -0.260 NA
HETATM   15  C11 UNL     1      21.785   1.157  51.424  1.00  0.00     0.071 A 
HETATM   16  C12 UNL     1      20.499   0.667  51.452  1.00  0.00     0.072 A 
HETATM   17  C17 UNL     1      22.690   0.950  52.445  1.00  0.00     0.022 A 
HETATM   18  C13 UNL     1      20.042  -0.069  52.519  1.00  0.00     0.103 A 
HETATM   19  C15 UNL     1      20.914  -0.299  53.561  1.00  0.00     0.100 A 
HETATM   20  C16 UNL     1      22.192   0.209  53.493  1.00  0.00     0.055 A 
BRANCH  18  21
HETATM   21  O1  UNL     1      18.761  -0.566  52.564  1.00  0.00    -0.353 OA
HETATM   22  C14 UNL     1      17.875  -0.356  51.481  1.00  0.00     0.210 C 
ENDBRANCH  18  21
BRANCH  19  23
HETATM   23  O2  UNL     1      20.485  -1.043  54.666  1.00  0.00    -0.358 OA
HETATM   24  H12 UNL     1      19.788  -0.685  55.312  1.00  0.00     0.217 HD
ENDBRANCH  19  23
ENDBRANCH   9  11
ENDBRANCH   7   9
TORSDOF 4
ENDMDL
MODEL 5
REMARK VINA RESULT:      -7.7      1.581      2.230
REMARK  4 active torsions:
REMARK  status: ('A' for Active; 'I' for Inactive)
REMARK    1  A    between atoms: C7_7  and  N1_8 
REMARK    2  A    between atoms: N1_8  and  C8_9 
REMARK    3  A    between atoms: C13_15  and  O1_16 
REMARK    4  A    between atoms: C15_18  and  O2_19 
ROOT
HETATM    1  C1  UNL     1      29.976   5.637  47.833  1.00  0.00     0.018 C 
HETATM    2  C2  UNL     1      28.831   5.631  48.212  1.00  0.00    -0.078 C 
HETATM    3  C3  UNL     1      27.476   5.616  48.685  1.00  0.00     0.019 A 
HETATM    4  C4  UNL     1      26.773   6.778  48.905  1.00  0.00     0.021 A 
HETATM    5  C5  UNL     1      25.472   6.727  49.360  1.00  0.00     0.004 A 
HETATM    6  C6  UNL     1      24.900   5.494  49.587  1.00  0.00     0.029 A 
HETATM    7  C7  UNL     1      25.524   4.279  49.395  1.00  0.00     0.034 A 
HETATM    8  C18 UNL     1      26.834   4.427  48.935  1.00  0.00     0.050 A 
ENDROOT
BRANCH   7   9
HETATM    9  N1  UNL     1      24.896   3.028  49.612  1.00  0.00    -0.355 N 
HETATM   10  H5  UNL     1      24.864   2.579  48.679  1.00  0.00     0.166 HD
BRANCH   9  11
HETATM   11  C8  UNL     1      24.397   2.421  50.758  1.00  0.00     0.046 A 
HETATM   12  C9  UNL     1      23.090   2.091  51.015  1.00  0.00     0.049 A 
HETATM   13  C10 UNL     1      22.589   1.508  52.149  1.00  0.00     0.119 A 
HETATM   14  N2  UNL     1      23.474   1.214  53.147  1.00  0.00    -0.260 NA
HETATM   15  C11 UNL     1      24.783   1.522  52.940  1.00  0.00     0.071 A 
HETATM   16  C12 UNL     1      25.597   1.190  54.000  1.00  0.00     0.072 A 
HETATM   17  C17 UNL     1      25.256   2.111  51.785  1.00  0.00     0.022 A 
HETATM   18  C13 UNL     1      26.950   1.431  53.959  1.00  0.00     0.103 A 
HETATM   19  C15 UNL     1      27.464   2.019  52.823  1.00  0.00     0.100 A 
HETATM   20  C16 UNL     1      26.614   2.335  51.786  1.00  0.00     0.055 A 
BRANCH  18  21
HETATM   21  O1  UNL     1      27.778   1.106  55.006  1.00  0.00    -0.353 OA
HETATM   22  C14 UNL     1      28.678   0.019  54.895  1.00  0.00     0.210 C 
ENDBRANCH  18  21
BRANCH  19  23
HETATM   23  O2  UNL     1      28.836   2.282  52.744  1.00  0.00    -0.358 OA
HETATM   24  H12 UNL     1      29.418   2.331  53.575  1.00  0.00     0.217 HD
ENDBRANCH  19  23
ENDBRANCH   9  11
ENDBRANCH   7   9
TORSDOF 4
ENDMDL
MODEL 6
REMARK VINA RESULT:      -7.6      2.191      5.115
REMARK  4 active torsions:
REMARK  status: ('A' for Active; 'I' for Inactive)
REMARK    1  A    between atoms: C7_7  and  N1_8 
REMARK    2  A    between atoms: N1_8  and  C8_9 
REMARK    3  A    between atoms: C13_15  and  O1_16 
REMARK    4  A    between atoms: C15_18  and  O2_19 
ROOT
HETATM    1  C1  UNL     1      17.767   0.380  50.362  1.00  0.00     0.018 C 
HETATM    2  C2  UNL     1      18.659   0.294  51.170  1.00  0.00    -0.078 C 
HETATM    3  C3  UNL     1      19.711   0.212  52.142  1.00  0.00     0.019 A 
HETATM    4  C4  UNL     1      19.736  -0.775  53.101  1.00  0.00     0.021 A 
HETATM    5  C5  UNL     1      20.763  -0.825  54.021  1.00  0.00     0.004 A 
HETATM    6  C6  UNL     1      21.754   0.130  53.954  1.00  0.00     0.029 A 
HETATM    7  C7  UNL     1      21.814   1.154  53.032  1.00  0.00     0.034 A 
HETATM    8  C18 UNL     1      20.737   1.126  52.144  1.00  0.00     0.050 A 
ENDROOT
BRANCH   7   9
HETATM    9  N1  UNL     1      22.864   2.104  52.976  1.00  0.00    -0.355 N 
HETATM   10  H5  UNL     1      22.551   2.885  53.580  1.00  0.00     0.166 HD
BRANCH   9  11
HETATM   11  C8  UNL     1      24.082   2.108  52.307  1.00  0.00     0.046 A 
HETATM   12  C9  UNL     1      24.373   2.742  51.126  1.00  0.00     0.049 A 
HETATM   13  C10 UNL     1      25.568   2.738  50.454  1.00  0.00     0.119 A 
HETATM   14  N2  UNL     1      26.596   2.029  51.008  1.00  0.00    -0.260 NA
HETATM   15  C11 UNL     1      26.357   1.382  52.181  1.00  0.00     0.071 A 
HETATM   16  C12 UNL     1      27.451   0.696  52.660  1.00  0.00     0.072 A 
HETATM   17  C17 UNL     1      25.141   1.406  52.832  1.00  0.00     0.022 A 
HETATM   18  C13 UNL     1      27.385  -0.013  53.836  1.00  0.00     0.103 A 
HETATM   19  C15 UNL     1      26.188  -0.016  54.519  1.00  0.00     0.100 A 
HETATM   20  C16 UNL     1      25.119   0.684  54.003  1.00  0.00     0.055 A 
BRANCH  18  21
HETATM   21  O1  UNL     1      28.466  -0.703  54.330  1.00  0.00    -0.353 OA
HETATM   22  C14 UNL     1      29.574  -0.986  53.496  1.00  0.00     0.210 C 
ENDBRANCH  18  21
BRANCH  19  23
HETATM   23  O2  UNL     1      26.081  -0.727  55.719  1.00  0.00    -0.358 OA
HETATM   24  H12 UNL     1      25.192  -0.833  56.198  1.00  0.00     0.217 HD
ENDBRANCH  19  23
ENDBRANCH   9  11
ENDBRANCH   7   9
TORSDOF 4
ENDMDL
MODEL 7
REMARK VINA RESULT:      -7.5      2.720      6.576
REMARK  4 active torsions:
REMARK  status: ('A' for Active; 'I' for Inactive)
REMARK    1  A    between atoms: C7_7  and  N1_8 
REMARK    2  A    between atoms: N1_8  and  C8_9 
REMARK    3  A    between atoms: C13_15  and  O1_16 
REMARK    4  A    between atoms: C15_18  and  O2_19 
ROOT
HETATM    1  C1  UNL     1      29.330  -0.576  53.762  1.00  0.00     0.018 C 
HETATM    2  C2  UNL     1      28.173  -0.306  53.551  1.00  0.00    -0.078 C 
HETATM    3  C3  UNL     1      26.799   0.003  53.279  1.00  0.00     0.019 A 
HETATM    4  C4  UNL     1      25.773  -0.551  54.011  1.00  0.00     0.021 A 
HETATM    5  C5  UNL     1      24.463  -0.232  53.723  1.00  0.00     0.004 A 
HETATM    6  C6  UNL     1      24.209   0.647  52.693  1.00  0.00     0.029 A 
HETATM    7  C7  UNL     1      25.168   1.252  51.908  1.00  0.00     0.034 A 
HETATM    8  C18 UNL     1      26.462   0.872  52.269  1.00  0.00     0.050 A 
ENDROOT
BRANCH   7   9
HETATM    9  N1  UNL     1      24.872   2.175  50.874  1.00  0.00    -0.355 N 
HETATM   10  H5  UNL     1      24.975   1.635  49.996  1.00  0.00     0.166 HD
BRANCH   9  11
HETATM   11  C8  UNL     1      24.513   3.517  50.896  1.00  0.00     0.046 A 
HETATM   12  C9  UNL     1      23.405   4.065  51.491  1.00  0.00     0.049 A 
HETATM   13  C10 UNL     1      23.037   5.385  51.503  1.00  0.00     0.119 A 
HETATM   14  N2  UNL     1      23.853   6.269  50.857  1.00  0.00    -0.260 NA
HETATM   15  C11 UNL     1      24.965   5.774  50.250  1.00  0.00     0.071 A 
HETATM   16  C12 UNL     1      25.723   6.739  49.625  1.00  0.00     0.072 A 
HETATM   17  C17 UNL     1      25.307   4.437  50.256  1.00  0.00     0.022 A 
HETATM   18  C13 UNL     1      26.883   6.413  48.963  1.00  0.00     0.103 A 
HETATM   19  C15 UNL     1      27.261   5.088  48.944  1.00  0.00     0.100 A 
HETATM   20  C16 UNL     1      26.474   4.155  49.581  1.00  0.00     0.055 A 
BRANCH  18  21
HETATM   21  O1  UNL     1      27.652   7.363  48.334  1.00  0.00    -0.353 OA
HETATM   22  C14 UNL     1      27.235   7.917  47.100  1.00  0.00     0.210 C 
ENDBRANCH  18  21
BRANCH  19  23
HETATM   23  O2  UNL     1      28.435   4.717  48.279  1.00  0.00    -0.358 OA
HETATM   24  H12 UNL     1      28.776   5.231  47.472  1.00  0.00     0.217 HD
ENDBRANCH  19  23
ENDBRANCH   9  11
ENDBRANCH   7   9
TORSDOF 4
ENDMDL
MODEL 8
REMARK VINA RESULT:      -7.5      2.799      6.854
REMARK  4 active torsions:
REMARK  status: ('A' for Active; 'I' for Inactive)
REMARK    1  A    between atoms: C7_7  and  N1_8 
REMARK    2  A    between atoms: N1_8  and  C8_9 
REMARK    3  A    between atoms: C13_15  and  O1_16 
REMARK    4  A    between atoms: C15_18  and  O2_19 
ROOT
HETATM    1  C1  UNL     1      22.304  -1.267  54.924  1.00  0.00     0.018 C 
HETATM    2  C2  UNL     1      23.267  -0.830  54.343  1.00  0.00    -0.078 C 
HETATM    3  C3  UNL     1      24.407  -0.288  53.661  1.00  0.00     0.019 A 
HETATM    4  C4  UNL     1      25.690  -0.667  53.983  1.00  0.00     0.021 A 
HETATM    5  C5  UNL     1      26.765  -0.126  53.308  1.00  0.00     0.004 A 
HETATM    6  C6  UNL     1      26.522   0.795  52.313  1.00  0.00     0.029 A 
HETATM    7  C7  UNL     1      25.275   1.234  51.920  1.00  0.00     0.034 A 
HETATM    8  C18 UNL     1      24.250   0.636  52.655  1.00  0.00     0.050 A 
ENDROOT
BRANCH   7   9
HETATM    9  N1  UNL     1      25.060   2.163  50.872  1.00  0.00    -0.355 N 
HETATM   10  H5  UNL     1      25.247   1.633  50.002  1.00  0.00     0.166 HD
BRANCH   9  11
HETATM   11  C8  UNL     1      24.681   3.500  50.874  1.00  0.00     0.046 A 
HETATM   12  C9  UNL     1      23.576   4.044  51.478  1.00  0.00     0.049 A 
HETATM   13  C10 UNL     1      23.189   5.358  51.470  1.00  0.00     0.119 A 
HETATM   14  N2  UNL     1      23.980   6.241  50.791  1.00  0.00    -0.260 NA
HETATM   15  C11 UNL     1      25.088   5.750  50.174  1.00  0.00     0.071 A 
HETATM   16  C12 UNL     1      25.820   6.713  49.516  1.00  0.00     0.072 A 
HETATM   17  C17 UNL     1      25.450   4.419  50.201  1.00  0.00     0.022 A 
HETATM   18  C13 UNL     1      26.973   6.390  48.839  1.00  0.00     0.103 A 
HETATM   19  C15 UNL     1      27.370   5.071  48.840  1.00  0.00     0.100 A 
HETATM   20  C16 UNL     1      26.608   4.140  49.511  1.00  0.00     0.055 A 
BRANCH  18  21
HETATM   21  O1  UNL     1      27.716   7.338  48.177  1.00  0.00    -0.353 OA
HETATM   22  C14 UNL     1      28.417   8.331  48.903  1.00  0.00     0.210 C 
ENDBRANCH  18  21
BRANCH  19  23
HETATM   23  O2  UNL     1      28.537   4.703  48.162  1.00  0.00    -0.358 OA
HETATM   24  H12 UNL     1      28.652   4.874  47.167  1.00  0.00     0.217 HD
ENDBRANCH  19  23
ENDBRANCH   9  11
ENDBRANCH   7   9
TORSDOF 4
ENDMDL
MODEL 9
REMARK VINA RESULT:      -7.5      3.547      6.227
REMARK  4 active torsions:
REMARK  status: ('A' for Active; 'I' for Inactive)
REMARK    1  A    between atoms: C7_7  and  N1_8 
REMARK    2  A    between atoms: N1_8  and  C8_9 
REMARK    3  A    between atoms: C13_15  and  O1_16 
REMARK    4  A    between atoms: C15_18  and  O2_19 
ROOT
HETATM    1  C1  UNL     1      30.488  -1.607  53.833  1.00  0.00     0.018 C 
HETATM    2  C2  UNL     1      29.580  -0.825  53.693  1.00  0.00    -0.078 C 
HETATM    3  C3  UNL     1      28.490   0.095  53.545  1.00  0.00     0.019 A 
HETATM    4  C4  UNL     1      28.652   1.448  53.744  1.00  0.00     0.021 A 
HETATM    5  C5  UNL     1      27.582   2.305  53.594  1.00  0.00     0.004 A 
HETATM    6  C6  UNL     1      26.358   1.777  53.245  1.00  0.00     0.029 A 
HETATM    7  C7  UNL     1      26.100   0.441  53.024  1.00  0.00     0.034 A 
HETATM    8  C18 UNL     1      27.237  -0.351  53.198  1.00  0.00     0.050 A 
ENDROOT
BRANCH   7   9
HETATM    9  N1  UNL     1      24.834  -0.065  52.638  1.00  0.00    -0.355 N 
HETATM   10  H5  UNL     1      24.990  -0.496  51.709  1.00  0.00     0.166 HD
BRANCH   9  11
HETATM   11  C8  UNL     1      23.594  -0.054  53.266  1.00  0.00     0.046 A 
HETATM   12  C9  UNL     1      23.169  -0.890  54.267  1.00  0.00     0.049 A 
HETATM   13  C10 UNL     1      21.943  -0.895  54.880  1.00  0.00     0.119 A 
HETATM   14  N2  UNL     1      21.029   0.030  54.461  1.00  0.00    -0.260 NA
HETATM   15  C11 UNL     1      21.404   0.883  53.469  1.00  0.00     0.071 A 
HETATM   16  C12 UNL     1      20.418   1.776  53.114  1.00  0.00     0.072 A 
HETATM   17  C17 UNL     1      22.648   0.861  52.872  1.00  0.00     0.022 A 
HETATM   18  C13 UNL     1      20.627   2.711  52.128  1.00  0.00     0.103 A 
HETATM   19  C15 UNL     1      21.857   2.723  51.505  1.00  0.00     0.100 A 
HETATM   20  C16 UNL     1      22.815   1.811  51.891  1.00  0.00     0.055 A 
BRANCH  18  21
HETATM   21  O1  UNL     1      19.655   3.610  51.761  1.00  0.00    -0.353 OA
HETATM   22  C14 UNL     1      18.318   3.183  51.582  1.00  0.00     0.210 C 
ENDBRANCH  18  21
BRANCH  19  23
HETATM   23  O2  UNL     1      22.108   3.659  50.496  1.00  0.00    -0.358 OA
HETATM   24  H12 UNL     1      22.114   3.396  49.514  1.00  0.00     0.217 HD
ENDBRANCH  19  23
ENDBRANCH   9  11
ENDBRANCH   7   9
TORSDOF 4
ENDMDL
