MODEL 1
REMARK VINA RESULT:      -8.2      0.000      0.000
REMARK  6 active torsions:
REMARK  status: ('A' for Active; 'I' for Inactive)
REMARK    1  A    between atoms: C2_2  and  C3_3 
REMARK       I    between atoms: C3_3  and  N1_5 
REMARK    2  A    between atoms: N1_5  and  C4_6 
REMARK    3  A    between atoms: C7_9  and  N2_10 
REMARK    4  A    between atoms: N2_10  and  C8_11 
REMARK    5  A    between atoms: C9_12  and  C10_13 
REMARK    6  A    between atoms: C19_24  and  O2_25 
ROOT
HETATM    1  C4  UNL     1      26.219   1.249  52.138  1.00  0.00     0.069 A 
HETATM    2  C5  UNL     1      26.452   2.259  51.240  1.00  0.00     0.050 A 
HETATM    3  C6  UNL     1      25.465   2.970  50.625  1.00  0.00     0.041 A 
HETATM    4  C7  UNL     1      25.776   3.970  49.735  1.00  0.00     0.141 A 
HETATM    5  N3  UNL     1      24.803   4.671  49.129  1.00  0.00    -0.224 NA
HETATM    6  C16 UNL     1      23.490   4.417  49.373  1.00  0.00     0.236 A 
HETATM    7  N4  UNL     1      23.197   3.423  50.258  1.00  0.00    -0.241 NA
HETATM    8  C17 UNL     1      24.137   2.715  50.871  1.00  0.00     0.075 A 
HETATM    9  C18 UNL     1      23.893   1.702  51.773  1.00  0.00     0.071 A 
HETATM   10  C19 UNL     1      24.893   0.983  52.395  1.00  0.00     0.097 A 
ENDROOT
BRANCH   4  11
HETATM   11  N2  UNL     1      27.103   4.338  49.388  1.00  0.00    -0.350 N 
HETATM   12  H8  UNL     1      28.021   3.916  49.626  1.00  0.00     0.166 HD
BRANCH  11  13
HETATM   13  C8  UNL     1      27.444   5.456  48.578  1.00  0.00     0.090 C 
HETATM   14  C9  UNL     1      28.737   5.645  48.282  1.00  0.00     0.025 C 
BRANCH  14  15
HETATM   15  C10 UNL     1      29.232   6.747  47.462  1.00  0.00    -0.046 C 
HETATM   16  C11 UNL     1      30.509   6.895  47.248  1.00  0.00    -0.023 C 
HETATM   17  C12 UNL     1      30.881   8.164  47.175  1.00  0.00    -0.014 C 
HETATM   18  C13 UNL     1      30.413   8.795  45.889  1.00  0.00     0.028 C 
HETATM   19  C14 UNL     1      29.035   8.249  45.497  1.00  0.00     0.008 C 
HETATM   20  C15 UNL     1      28.370   7.789  46.800  1.00  0.00     0.040 C 
ENDBRANCH  14  15
ENDBRANCH  11  13
ENDBRANCH   4  11
BRANCH   1  21
HETATM   21  N1  UNL     1      27.184   0.469  52.815  1.00  0.00    -0.325 N 
HETATM   22  C3  UNL     1      28.076   0.852  53.840  1.00  0.00     0.221 C 
HETATM   23  O1  UNL     1      28.078   2.030  54.267  1.00  0.00    -0.273 OA
HETATM   24  H6  UNL     1      27.314  -0.537  52.583  1.00  0.00     0.169 HD
BRANCH  22  25
HETATM   25  C2  UNL     1      29.054  -0.021  54.496  1.00  0.00     0.098 C 
HETATM   26  C1  UNL     1      29.819  -0.856  53.504  1.00  0.00     0.014 C 
ENDBRANCH  22  25
ENDBRANCH   1  21
BRANCH  10  27
HETATM   27  O2  UNL     1      24.559  -0.023  53.291  1.00  0.00    -0.354 OA
HETATM   28  C20 UNL     1      23.255  -0.564  53.268  1.00  0.00     0.210 C 
ENDBRANCH  10  27
TORSDOF 6
ENDMDL
MODEL 2
REMARK VINA RESULT:      -8.2      2.279      3.149
REMARK  6 active torsions:
REMARK  status: ('A' for Active; 'I' for Inactive)
REMARK    1  A    between atoms: C2_2  and  C3_3 
REMARK       I    between atoms: C3_3  and  N1_5 
REMARK    2  A    between atoms: N1_5  and  C4_6 
REMARK    3  A    between atoms: C7_9  and  N2_10 
REMARK    4  A    between atoms: N2_10  and  C8_11 
REMARK    5  A    between atoms: C9_12  and  C10_13 
REMARK    6  A    between atoms: C19_24  and  O2_25 
ROOT
HETATM    1  C4  UNL     1      25.234   1.996  53.414  1.00  0.00     0.069 A 
HETATM    2  C5  UNL     1      24.676   3.193  53.040  1.00  0.00     0.050 A 
HETATM    3  C6  UNL     1      23.421   3.315  52.522  1.00  0.00     0.041 A 
HETATM    4  C7  UNL     1      22.930   4.549  52.169  1.00  0.00     0.141 A 
HETATM    5  N3  UNL     1      21.693   4.670  51.658  1.00  0.00    -0.224 NA
HETATM    6  C16 UNL     1      20.893   3.586  51.474  1.00  0.00     0.236 A 
HETATM    7  N4  UNL     1      21.395   2.369  51.828  1.00  0.00    -0.241 NA
HETATM    8  C17 UNL     1      22.612   2.220  52.335  1.00  0.00     0.075 A 
HETATM    9  C18 UNL     1      23.164   1.014  52.709  1.00  0.00     0.071 A 
HETATM   10  C19 UNL     1      24.433   0.891  53.233  1.00  0.00     0.097 A 
ENDROOT
BRANCH   4  11
HETATM   11  N2  UNL     1      23.656   5.761  52.308  1.00  0.00    -0.350 N 
HETATM   12  H8  UNL     1      23.884   6.337  53.141  1.00  0.00     0.166 HD
BRANCH  11  13
HETATM   13  C8  UNL     1      24.257   6.468  51.232  1.00  0.00     0.090 C 
HETATM   14  C9  UNL     1      25.125   5.807  50.452  1.00  0.00     0.025 C 
BRANCH  14  15
HETATM   15  C10 UNL     1      25.816   6.405  49.314  1.00  0.00    -0.046 C 
HETATM   16  C11 UNL     1      25.436   7.557  48.836  1.00  0.00    -0.023 C 
HETATM   17  C12 UNL     1      25.571   7.646  47.521  1.00  0.00    -0.014 C 
HETATM   18  C13 UNL     1      27.022   7.762  47.131  1.00  0.00     0.028 C 
HETATM   19  C14 UNL     1      27.895   6.909  48.057  1.00  0.00     0.008 C 
HETATM   20  C15 UNL     1      26.989   5.796  48.594  1.00  0.00     0.040 C 
ENDBRANCH  14  15
ENDBRANCH  11  13
ENDBRANCH   4  11
BRANCH   1  21
HETATM   21  N1  UNL     1      26.522   1.787  53.957  1.00  0.00    -0.325 N 
HETATM   22  C3  UNL     1      27.783   2.019  53.366  1.00  0.00     0.221 C 
HETATM   23  O1  UNL     1      27.860   2.470  52.199  1.00  0.00    -0.273 OA
HETATM   24  H6  UNL     1      26.640   1.414  54.921  1.00  0.00     0.169 HD
BRANCH  22  25
HETATM   25  C2  UNL     1      29.084   1.775  53.997  1.00  0.00     0.098 C 
HETATM   26  C1  UNL     1      29.497   0.330  53.898  1.00  0.00     0.014 C 
ENDBRANCH  22  25
ENDBRANCH   1  21
BRANCH  10  27
HETATM   27  O2  UNL     1      24.913  -0.364  53.583  1.00  0.00    -0.354 OA
HETATM   28  C20 UNL     1      24.478  -0.958  54.788  1.00  0.00     0.210 C 
ENDBRANCH  10  27
TORSDOF 6
ENDMDL
MODEL 3
REMARK VINA RESULT:      -8.0      2.262      4.800
REMARK  6 active torsions:
REMARK  status: ('A' for Active; 'I' for Inactive)
REMARK    1  A    between atoms: C2_2  and  C3_3 
REMARK       I    between atoms: C3_3  and  N1_5 
REMARK    2  A    between atoms: N1_5  and  C4_6 
REMARK    3  A    between atoms: C7_9  and  N2_10 
REMARK    4  A    between atoms: N2_10  and  C8_11 
REMARK    5  A    between atoms: C9_12  and  C10_13 
REMARK    6  A    between atoms: C19_24  and  O2_25 
ROOT
HETATM    1  C4  UNL     1      22.833   0.551  52.027  1.00  0.00     0.069 A 
HETATM    2  C5  UNL     1      23.803   1.379  51.520  1.00  0.00     0.050 A 
HETATM    3  C6  UNL     1      25.077   1.436  51.999  1.00  0.00     0.041 A 
HETATM    4  C7  UNL     1      25.995   2.292  51.440  1.00  0.00     0.141 A 
HETATM    5  N3  UNL     1      27.252   2.348  51.913  1.00  0.00    -0.224 NA
HETATM    6  C16 UNL     1      27.655   1.567  52.950  1.00  0.00     0.236 A 
HETATM    7  N4  UNL     1      26.733   0.722  53.494  1.00  0.00    -0.241 NA
HETATM    8  C17 UNL     1      25.485   0.646  53.048  1.00  0.00     0.075 A 
HETATM    9  C18 UNL     1      24.518  -0.189  53.562  1.00  0.00     0.071 A 
HETATM   10  C19 UNL     1      23.228  -0.246  53.077  1.00  0.00     0.097 A 
ENDROOT
BRANCH   4  11
HETATM   11  N2  UNL     1      25.710   3.162  50.355  1.00  0.00    -0.350 N 
HETATM   12  H8  UNL     1      24.818   3.412  49.888  1.00  0.00     0.166 HD
BRANCH  11  13
HETATM   13  C8  UNL     1      26.686   3.916  49.648  1.00  0.00     0.090 C 
HETATM   14  C9  UNL     1      26.353   5.149  49.242  1.00  0.00     0.025 C 
BRANCH  14  15
HETATM   15  C10 UNL     1      27.252   6.034  48.507  1.00  0.00    -0.046 C 
HETATM   16  C11 UNL     1      28.449   5.639  48.175  1.00  0.00    -0.023 C 
HETATM   17  C12 UNL     1      29.348   6.612  48.210  1.00  0.00    -0.014 C 
HETATM   18  C13 UNL     1      29.154   7.572  47.065  1.00  0.00     0.028 C 
HETATM   19  C14 UNL     1      27.662   7.752  46.765  1.00  0.00     0.008 C 
HETATM   20  C15 UNL     1      26.922   7.436  48.069  1.00  0.00     0.040 C 
ENDBRANCH  14  15
ENDBRANCH  11  13
ENDBRANCH   4  11
BRANCH   1  21
HETATM   21  N1  UNL     1      21.495   0.434  51.586  1.00  0.00    -0.325 N 
HETATM   22  C3  UNL     1      20.341   1.088  52.070  1.00  0.00     0.221 C 
HETATM   23  O1  UNL     1      20.427   1.900  53.021  1.00  0.00    -0.273 OA
HETATM   24  H6  UNL     1      21.245  -0.201  50.801  1.00  0.00     0.169 HD
BRANCH  22  25
HETATM   25  C2  UNL     1      18.978   0.913  51.558  1.00  0.00     0.098 C 
HETATM   26  C1  UNL     1      18.330  -0.336  52.095  1.00  0.00     0.014 C 
ENDBRANCH  22  25
ENDBRANCH   1  21
BRANCH  10  27
HETATM   27  O2  UNL     1      22.315  -1.117  53.654  1.00  0.00    -0.354 OA
HETATM   28  C20 UNL     1      22.078  -1.048  55.045  1.00  0.00     0.210 C 
ENDBRANCH  10  27
TORSDOF 6
ENDMDL
MODEL 4
REMARK VINA RESULT:      -8.0      3.638      9.498
REMARK  6 active torsions:
REMARK  status: ('A' for Active; 'I' for Inactive)
REMARK    1  A    between atoms: C2_2  and  C3_3 
REMARK       I    between atoms: C3_3  and  N1_5 
REMARK    2  A    between atoms: N1_5  and  C4_6 
REMARK    3  A    between atoms: C7_9  and  N2_10 
REMARK    4  A    between atoms: N2_10  and  C8_11 
REMARK    5  A    between atoms: C9_12  and  C10_13 
REMARK    6  A    between atoms: C19_24  and  O2_25 
ROOT
HETATM    1  C4  UNL     1      26.124   2.070  52.021  1.00  0.00     0.069 A 
HETATM    2  C5  UNL     1      24.911   1.468  52.247  1.00  0.00     0.050 A 
HETATM    3  C6  UNL     1      24.688   0.561  53.239  1.00  0.00     0.041 A 
HETATM    4  C7  UNL     1      23.444   0.001  53.405  1.00  0.00     0.141 A 
HETATM    5  N3  UNL     1      23.225  -0.894  54.384  1.00  0.00    -0.224 NA
HETATM    6  C16 UNL     1      24.215  -1.272  55.234  1.00  0.00     0.236 A 
HETATM    7  N4  UNL     1      25.443  -0.706  55.057  1.00  0.00    -0.241 NA
HETATM    8  C17 UNL     1      25.689   0.179  54.100  1.00  0.00     0.075 A 
HETATM    9  C18 UNL     1      26.910   0.778  53.881  1.00  0.00     0.071 A 
HETATM   10  C19 UNL     1      27.135   1.696  52.876  1.00  0.00     0.097 A 
ENDROOT
BRANCH   4  11
HETATM   11  N2  UNL     1      22.323   0.304  52.590  1.00  0.00    -0.350 N 
HETATM   12  H8  UNL     1      22.242   0.812  51.688  1.00  0.00     0.166 HD
BRANCH  11  13
HETATM   13  C8  UNL     1      20.984  -0.069  52.889  1.00  0.00     0.090 C 
HETATM   14  C9  UNL     1      20.077   0.004  51.904  1.00  0.00     0.025 C 
BRANCH  14  15
HETATM   15  C10 UNL     1      18.670  -0.347  52.067  1.00  0.00    -0.046 C 
HETATM   16  C11 UNL     1      17.790  -0.000  51.169  1.00  0.00    -0.023 C 
HETATM   17  C12 UNL     1      16.608   0.300  51.686  1.00  0.00    -0.014 C 
HETATM   18  C13 UNL     1      15.894  -0.938  52.164  1.00  0.00     0.028 C 
HETATM   19  C14 UNL     1      16.894  -1.937  52.756  1.00  0.00     0.008 C 
HETATM   20  C15 UNL     1      18.095  -1.111  53.230  1.00  0.00     0.040 C 
ENDBRANCH  14  15
ENDBRANCH  11  13
ENDBRANCH   4  11
BRANCH   1  21
HETATM   21  N1  UNL     1      26.433   3.016  51.017  1.00  0.00    -0.325 N 
HETATM   22  C3  UNL     1      25.595   3.980  50.417  1.00  0.00     0.221 C 
HETATM   23  O1  UNL     1      24.395   4.077  50.764  1.00  0.00    -0.273 OA
HETATM   24  H6  UNL     1      27.391   3.072  50.615  1.00  0.00     0.169 HD
BRANCH  22  25
HETATM   25  C2  UNL     1      25.993   4.932  49.375  1.00  0.00     0.098 C 
HETATM   26  C1  UNL     1      27.364   4.632  48.830  1.00  0.00     0.014 C 
ENDBRANCH  22  25
ENDBRANCH   1  21
BRANCH  10  27
HETATM   27  O2  UNL     1      28.398   2.252  52.724  1.00  0.00    -0.354 OA
HETATM   28  C20 UNL     1      29.228   2.400  53.857  1.00  0.00     0.210 C 
ENDBRANCH  10  27
TORSDOF 6
ENDMDL
MODEL 5
REMARK VINA RESULT:      -7.9      2.993      7.663
REMARK  6 active torsions:
REMARK  status: ('A' for Active; 'I' for Inactive)
REMARK    1  A    between atoms: C2_2  and  C3_3 
REMARK       I    between atoms: C3_3  and  N1_5 
REMARK    2  A    between atoms: N1_5  and  C4_6 
REMARK    3  A    between atoms: C7_9  and  N2_10 
REMARK    4  A    between atoms: N2_10  and  C8_11 
REMARK    5  A    between atoms: C9_12  and  C10_13 
REMARK    6  A    between atoms: C19_24  and  O2_25 
ROOT
HETATM    1  C4  UNL     1      28.835   5.891  48.181  1.00  0.00     0.069 A 
HETATM    2  C5  UNL     1      27.715   5.216  48.595  1.00  0.00     0.050 A 
HETATM    3  C6  UNL     1      26.589   5.829  49.059  1.00  0.00     0.041 A 
HETATM    4  C7  UNL     1      25.504   5.085  49.457  1.00  0.00     0.141 A 
HETATM    5  N3  UNL     1      24.394   5.690  49.915  1.00  0.00    -0.224 NA
HETATM    6  C16 UNL     1      24.308   7.044  50.000  1.00  0.00     0.236 A 
HETATM    7  N4  UNL     1      25.393   7.767  49.602  1.00  0.00    -0.241 NA
HETATM    8  C17 UNL     1      26.501   7.198  49.146  1.00  0.00     0.075 A 
HETATM    9  C18 UNL     1      27.622   7.884  48.731  1.00  0.00     0.071 A 
HETATM   10  C19 UNL     1      28.760   7.263  48.261  1.00  0.00     0.097 A 
ENDROOT
BRANCH   4  11
HETATM   11  N2  UNL     1      25.459   3.667  49.422  1.00  0.00    -0.350 N 
HETATM   12  H8  UNL     1      25.387   2.998  48.630  1.00  0.00     0.166 HD
BRANCH  11  13
HETATM   13  C8  UNL     1      25.507   2.830  50.569  1.00  0.00     0.090 C 
HETATM   14  C9  UNL     1      26.705   2.376  50.966  1.00  0.00     0.025 C 
BRANCH  14  15
HETATM   15  C10 UNL     1      26.905   1.510  52.123  1.00  0.00    -0.046 C 
HETATM   16  C11 UNL     1      27.470   1.967  53.206  1.00  0.00    -0.023 C 
HETATM   17  C12 UNL     1      28.222   1.067  53.821  1.00  0.00    -0.014 C 
HETATM   18  C13 UNL     1      27.373   0.019  54.494  1.00  0.00     0.028 C 
HETATM   19  C14 UNL     1      26.133  -0.289  53.648  1.00  0.00     0.008 C 
HETATM   20  C15 UNL     1      26.503   0.061  52.203  1.00  0.00     0.040 C 
ENDBRANCH  14  15
ENDBRANCH  11  13
ENDBRANCH   4  11
BRANCH   1  21
HETATM   21  N1  UNL     1      30.036   5.331  47.688  1.00  0.00    -0.325 N 
HETATM   22  C3  UNL     1      31.254   5.107  48.365  1.00  0.00     0.221 C 
HETATM   23  O1  UNL     1      31.374   5.422  49.572  1.00  0.00    -0.273 OA
HETATM   24  H6  UNL     1      30.110   5.013  46.700  1.00  0.00     0.169 HD
BRANCH  22  25
HETATM   25  C2  UNL     1      32.464   4.518  47.781  1.00  0.00     0.098 C 
HETATM   26  C1  UNL     1      32.139   3.498  46.722  1.00  0.00     0.014 C 
ENDBRANCH  22  25
ENDBRANCH   1  21
BRANCH  10  27
HETATM   27  O2  UNL     1      29.846   8.031  47.864  1.00  0.00    -0.354 OA
HETATM   28  C20 UNL     1      30.504   8.842  48.814  1.00  0.00     0.210 C 
ENDBRANCH  10  27
TORSDOF 6
ENDMDL
MODEL 6
REMARK VINA RESULT:      -7.8      3.678      7.751
REMARK  6 active torsions:
REMARK  status: ('A' for Active; 'I' for Inactive)
REMARK    1  A    between atoms: C2_2  and  C3_3 
REMARK       I    between atoms: C3_3  and  N1_5 
REMARK    2  A    between atoms: N1_5  and  C4_6 
REMARK    3  A    between atoms: C7_9  and  N2_10 
REMARK    4  A    between atoms: N2_10  and  C8_11 
REMARK    5  A    between atoms: C9_12  and  C10_13 
REMARK    6  A    between atoms: C19_24  and  O2_25 
ROOT
HETATM    1  C4  UNL     1      22.672   2.334  52.150  1.00  0.00     0.069 A 
HETATM    2  C5  UNL     1      22.974   1.371  53.080  1.00  0.00     0.050 A 
HETATM    3  C6  UNL     1      22.124   0.366  53.434  1.00  0.00     0.041 A 
HETATM    4  C7  UNL     1      22.497  -0.564  54.375  1.00  0.00     0.141 A 
HETATM    5  N3  UNL     1      21.658  -1.555  54.724  1.00  0.00    -0.224 NA
HETATM    6  C16 UNL     1      20.425  -1.669  54.164  1.00  0.00     0.236 A 
HETATM    7  N4  UNL     1      20.070  -0.740  53.233  1.00  0.00    -0.241 NA
HETATM    8  C17 UNL     1      20.877   0.249  52.869  1.00  0.00     0.075 A 
HETATM    9  C18 UNL     1      20.565   1.211  51.933  1.00  0.00     0.071 A 
HETATM   10  C19 UNL     1      21.426   2.228  51.576  1.00  0.00     0.097 A 
ENDROOT
BRANCH   4  11
HETATM   11  N2  UNL     1      23.752  -0.562  55.037  1.00  0.00    -0.350 N 
HETATM   12  H8  UNL     1      24.010  -0.388  56.028  1.00  0.00     0.166 HD
BRANCH  11  13
HETATM   13  C8  UNL     1      24.998  -0.824  54.404  1.00  0.00     0.090 C 
HETATM   14  C9  UNL     1      26.071  -0.137  54.822  1.00  0.00     0.025 C 
BRANCH  14  15
HETATM   15  C10 UNL     1      27.410  -0.301  54.265  1.00  0.00    -0.046 C 
HETATM   16  C11 UNL     1      28.433   0.301  54.805  1.00  0.00    -0.023 C 
HETATM   17  C12 UNL     1      29.338   0.687  53.917  1.00  0.00    -0.014 C 
HETATM   18  C13 UNL     1      30.098  -0.493  53.368  1.00  0.00     0.028 C 
HETATM   19  C14 UNL     1      29.170  -1.705  53.221  1.00  0.00     0.008 C 
HETATM   20  C15 UNL     1      27.753  -1.143  53.064  1.00  0.00     0.040 C 
ENDBRANCH  14  15
ENDBRANCH  11  13
ENDBRANCH   4  11
BRANCH   1  21
HETATM   21  N1  UNL     1      23.496   3.403  51.730  1.00  0.00    -0.325 N 
HETATM   22  C3  UNL     1      24.260   3.524  50.549  1.00  0.00     0.221 C 
HETATM   23  O1  UNL     1      24.264   2.601  49.702  1.00  0.00    -0.273 OA
HETATM   24  H6  UNL     1      23.606   4.254  52.319  1.00  0.00     0.169 HD
BRANCH  22  25
HETATM   25  C2  UNL     1      25.095   4.673  50.183  1.00  0.00     0.098 C 
HETATM   26  C1  UNL     1      26.399   4.246  49.561  1.00  0.00     0.014 C 
ENDBRANCH  22  25
ENDBRANCH   1  21
BRANCH  10  27
HETATM   27  O2  UNL     1      21.032   3.158  50.624  1.00  0.00    -0.354 OA
HETATM   28  C20 UNL     1      20.729   2.721  49.315  1.00  0.00     0.210 C 
ENDBRANCH  10  27
TORSDOF 6
ENDMDL
MODEL 7
REMARK VINA RESULT:      -7.6      3.169      6.991
REMARK  6 active torsions:
REMARK  status: ('A' for Active; 'I' for Inactive)
REMARK    1  A    between atoms: C2_2  and  C3_3 
REMARK       I    between atoms: C3_3  and  N1_5 
REMARK    2  A    between atoms: N1_5  and  C4_6 
REMARK    3  A    between atoms: C7_9  and  N2_10 
REMARK    4  A    between atoms: N2_10  and  C8_11 
REMARK    5  A    between atoms: C9_12  and  C10_13 
REMARK    6  A    between atoms: C19_24  and  O2_25 
ROOT
HETATM    1  C4  UNL     1      26.161   1.067  52.228  1.00  0.00     0.069 A 
HETATM    2  C5  UNL     1      24.872   0.635  52.409  1.00  0.00     0.050 A 
HETATM    3  C6  UNL     1      24.456  -0.077  53.494  1.00  0.00     0.041 A 
HETATM    4  C7  UNL     1      23.146  -0.476  53.606  1.00  0.00     0.141 A 
HETATM    5  N3  UNL     1      22.736  -1.179  54.677  1.00  0.00    -0.224 NA
HETATM    6  C16 UNL     1      23.595  -1.515  55.675  1.00  0.00     0.236 A 
HETATM    7  N4  UNL     1      24.892  -1.112  55.549  1.00  0.00    -0.241 NA
HETATM    8  C17 UNL     1      25.324  -0.418  54.504  1.00  0.00     0.075 A 
HETATM    9  C18 UNL     1      26.621   0.012  54.331  1.00  0.00     0.071 A 
HETATM   10  C19 UNL     1      27.041   0.733  53.233  1.00  0.00     0.097 A 
ENDROOT
BRANCH   4  11
HETATM   11  N2  UNL     1      22.145  -0.194  52.640  1.00  0.00    -0.350 N 
HETATM   12  H8  UNL     1      21.368  -0.770  52.263  1.00  0.00     0.166 HD
BRANCH  11  13
HETATM   13  C8  UNL     1      22.016   1.043  51.951  1.00  0.00     0.090 C 
HETATM   14  C9  UNL     1      21.947   1.011  50.612  1.00  0.00     0.025 C 
BRANCH  14  15
HETATM   15  C10 UNL     1      21.813   2.200  49.776  1.00  0.00    -0.046 C 
HETATM   16  C11 UNL     1      21.008   3.167  50.119  1.00  0.00    -0.023 C 
HETATM   17  C12 UNL     1      20.429   3.754  49.082  1.00  0.00    -0.014 C 
HETATM   18  C13 UNL     1      21.413   4.606  48.321  1.00  0.00     0.028 C 
HETATM   19  C14 UNL     1      22.795   3.943  48.308  1.00  0.00     0.008 C 
HETATM   20  C15 UNL     1      22.551   2.441  48.486  1.00  0.00     0.040 C 
ENDBRANCH  14  15
ENDBRANCH  11  13
ENDBRANCH   4  11
BRANCH   1  21
HETATM   21  N1  UNL     1      26.668   1.807  51.136  1.00  0.00    -0.325 N 
HETATM   22  C3  UNL     1      26.157   2.983  50.546  1.00  0.00     0.221 C 
HETATM   23  O1  UNL     1      25.111   3.510  50.992  1.00  0.00    -0.273 OA
HETATM   24  H6  UNL     1      27.536   1.507  50.645  1.00  0.00     0.169 HD
BRANCH  22  25
HETATM   25  C2  UNL     1      26.744   3.696  49.407  1.00  0.00     0.098 C 
HETATM   26  C1  UNL     1      26.181   5.086  49.261  1.00  0.00     0.014 C 
ENDBRANCH  22  25
ENDBRANCH   1  21
BRANCH  10  27
HETATM   27  O2  UNL     1      28.368   1.127  53.137  1.00  0.00    -0.354 OA
HETATM   28  C20 UNL     1      29.303   0.645  54.080  1.00  0.00     0.210 C 
ENDBRANCH  10  27
TORSDOF 6
ENDMDL
MODEL 8
REMARK VINA RESULT:      -7.5      2.852      5.568
REMARK  6 active torsions:
REMARK  status: ('A' for Active; 'I' for Inactive)
REMARK    1  A    between atoms: C2_2  and  C3_3 
REMARK       I    between atoms: C3_3  and  N1_5 
REMARK    2  A    between atoms: N1_5  and  C4_6 
REMARK    3  A    between atoms: C7_9  and  N2_10 
REMARK    4  A    between atoms: N2_10  and  C8_11 
REMARK    5  A    between atoms: C9_12  and  C10_13 
REMARK    6  A    between atoms: C19_24  and  O2_25 
ROOT
HETATM    1  C4  UNL     1      22.866   0.659  52.190  1.00  0.00     0.069 A 
HETATM    2  C5  UNL     1      24.170   0.953  51.880  1.00  0.00     0.050 A 
HETATM    3  C6  UNL     1      25.232   0.591  52.653  1.00  0.00     0.041 A 
HETATM    4  C7  UNL     1      26.512   0.921  52.278  1.00  0.00     0.141 A 
HETATM    5  N3  UNL     1      27.560   0.563  53.041  1.00  0.00    -0.224 NA
HETATM    6  C16 UNL     1      27.391  -0.130  54.198  1.00  0.00     0.236 A 
HETATM    7  N4  UNL     1      26.115  -0.450  54.556  1.00  0.00    -0.241 NA
HETATM    8  C17 UNL     1      25.062  -0.110  53.824  1.00  0.00     0.075 A 
HETATM    9  C18 UNL     1      23.756  -0.410  54.142  1.00  0.00     0.071 A 
HETATM   10  C19 UNL     1      22.681  -0.043  53.359  1.00  0.00     0.097 A 
ENDROOT
BRANCH   4  11
HETATM   11  N2  UNL     1      26.832   1.641  51.097  1.00  0.00    -0.350 N 
HETATM   12  H8  UNL     1      27.335   1.361  50.233  1.00  0.00     0.166 HD
BRANCH  11  13
HETATM   13  C8  UNL     1      26.489   3.000  50.864  1.00  0.00     0.090 C 
HETATM   14  C9  UNL     1      26.620   3.476  49.618  1.00  0.00     0.025 C 
BRANCH  14  15
HETATM   15  C10 UNL     1      26.306   4.849  49.233  1.00  0.00    -0.046 C 
HETATM   16  C11 UNL     1      25.136   5.362  49.496  1.00  0.00    -0.023 C 
HETATM   17  C12 UNL     1      24.713   6.200  48.562  1.00  0.00    -0.014 C 
HETATM   18  C13 UNL     1      25.486   7.493  48.601  1.00  0.00     0.028 C 
HETATM   19  C14 UNL     1      26.953   7.229  48.958  1.00  0.00     0.008 C 
HETATM   20  C15 UNL     1      27.246   5.788  48.524  1.00  0.00     0.040 C 
ENDBRANCH  14  15
ENDBRANCH  11  13
ENDBRANCH   4  11
BRANCH   1  21
HETATM   21  N1  UNL     1      21.714   0.998  51.443  1.00  0.00    -0.325 N 
HETATM   22  C3  UNL     1      20.965   2.195  51.460  1.00  0.00     0.221 C 
HETATM   23  O1  UNL     1      21.299   3.138  52.214  1.00  0.00    -0.273 OA
HETATM   24  H6  UNL     1      21.301   0.325  50.765  1.00  0.00     0.169 HD
BRANCH  22  25
HETATM   25  C2  UNL     1      19.774   2.472  50.651  1.00  0.00     0.098 C 
HETATM   26  C1  UNL     1      19.939   3.713  49.812  1.00  0.00     0.014 C 
ENDBRANCH  22  25
ENDBRANCH   1  21
BRANCH  10  27
HETATM   27  O2  UNL     1      21.396  -0.385  53.754  1.00  0.00    -0.354 OA
HETATM   28  C20 UNL     1      21.188  -1.589  54.463  1.00  0.00     0.210 C 
ENDBRANCH  10  27
TORSDOF 6
ENDMDL
MODEL 9
REMARK VINA RESULT:      -7.4      1.813      2.681
REMARK  6 active torsions:
REMARK  status: ('A' for Active; 'I' for Inactive)
REMARK    1  A    between atoms: C2_2  and  C3_3 
REMARK       I    between atoms: C3_3  and  N1_5 
REMARK    2  A    between atoms: N1_5  and  C4_6 
REMARK    3  A    between atoms: C7_9  and  N2_10 
REMARK    4  A    between atoms: N2_10  and  C8_11 
REMARK    5  A    between atoms: C9_12  and  C10_13 
REMARK    6  A    between atoms: C19_24  and  O2_25 
ROOT
HETATM    1  C4  UNL     1      24.291   0.187  52.810  1.00  0.00     0.069 A 
HETATM    2  C5  UNL     1      24.413   1.184  51.875  1.00  0.00     0.050 A 
HETATM    3  C6  UNL     1      23.460   2.130  51.648  1.00  0.00     0.041 A 
HETATM    4  C7  UNL     1      23.653   3.099  50.693  1.00  0.00     0.141 A 
HETATM    5  N3  UNL     1      22.712   4.033  50.468  1.00  0.00    -0.224 NA
HETATM    6  C16 UNL     1      21.549   4.050  51.172  1.00  0.00     0.236 A 
HETATM    7  N4  UNL     1      21.372   3.082  52.115  1.00  0.00    -0.241 NA
HETATM    8  C17 UNL     1      22.283   2.149  52.358  1.00  0.00     0.075 A 
HETATM    9  C18 UNL     1      22.152   1.152  53.300  1.00  0.00     0.071 A 
HETATM   10  C19 UNL     1      23.118   0.194  53.529  1.00  0.00     0.097 A 
ENDROOT
BRANCH   4  11
HETATM   11  N2  UNL     1      24.817   3.199  49.888  1.00  0.00    -0.350 N 
HETATM   12  H8  UNL     1      25.525   2.492  49.607  1.00  0.00     0.166 HD
BRANCH  11  13
HETATM   13  C8  UNL     1      25.267   4.394  49.263  1.00  0.00     0.090 C 
HETATM   14  C9  UNL     1      26.586   4.631  49.235  1.00  0.00     0.025 C 
BRANCH  14  15
HETATM   15  C10 UNL     1      27.187   5.814  48.628  1.00  0.00    -0.046 C 
HETATM   16  C11 UNL     1      26.501   6.914  48.493  1.00  0.00    -0.023 C 
HETATM   17  C12 UNL     1      26.802   7.584  47.390  1.00  0.00    -0.014 C 
HETATM   18  C13 UNL     1      28.157   8.234  47.503  1.00  0.00     0.028 C 
HETATM   19  C14 UNL     1      29.119   7.333  48.285  1.00  0.00     0.008 C 
HETATM   20  C15 UNL     1      28.600   5.901  48.113  1.00  0.00     0.040 C 
ENDBRANCH  14  15
ENDBRANCH  11  13
ENDBRANCH   4  11
BRANCH   1  21
HETATM   21  N1  UNL     1      25.231  -0.827  53.104  1.00  0.00    -0.325 N 
HETATM   22  C3  UNL     1      26.559  -0.967  52.645  1.00  0.00     0.221 C 
HETATM   23  O1  UNL     1      27.050  -0.119  51.864  1.00  0.00    -0.273 OA
HETATM   24  H6  UNL     1      24.986  -1.613  53.740  1.00  0.00     0.169 HD
BRANCH  22  25
HETATM   25  C2  UNL     1      27.477  -2.055  52.997  1.00  0.00     0.098 C 
HETATM   26  C1  UNL     1      28.876  -1.554  53.245  1.00  0.00     0.014 C 
ENDBRANCH  22  25
ENDBRANCH   1  21
BRANCH  10  27
HETATM   27  O2  UNL     1      22.905  -0.777  54.498  1.00  0.00    -0.354 OA
HETATM   28  C20 UNL     1      21.694  -1.504  54.494  1.00  0.00     0.210 C 
ENDBRANCH  10  27
TORSDOF 6
ENDMDL
