MODEL 1
REMARK VINA RESULT:      -8.3      0.000      0.000
REMARK  3 active torsions:
REMARK  status: ('A' for Active; 'I' for Inactive)
REMARK    1  A    between atoms: O1_2  and  C2_3 
REMARK    2  A    between atoms: C3_4  and  N1_5 
REMARK       I    between atoms: N1_5  and  C5_7 
REMARK    3  A    between atoms: C5_7  and  C6_9 
ROOT
HETATM    1  C2  UNL     1      24.264   3.346  51.272  1.00  0.00     0.179 C 
HETATM    2  C3  UNL     1      24.704   2.672  52.509  1.00  0.00     0.120 C 
HETATM    3  C12 UNL     1      23.563   1.723  52.862  1.00  0.00     0.045 C 
HETATM    4  C13 UNL     1      22.450   2.046  51.980  1.00  0.00     0.016 C 
HETATM    5  C14 UNL     1      21.104   1.917  52.738  1.00  0.00    -0.011 C 
HETATM    6  C15 UNL     1      20.373   2.975  52.344  1.00  0.00     0.026 C 
HETATM    7  C16 UNL     1      20.290   2.526  50.863  1.00  0.00     0.025 C 
HETATM    8  C17 UNL     1      20.825   1.302  50.429  1.00  0.00     0.004 C 
HETATM    9  C18 UNL     1      22.283   1.041  50.786  1.00  0.00     0.046 C 
HETATM   10  N2  UNL     1      19.998   3.610  49.855  1.00  0.00    -0.369 N 
HETATM   11  C19 UNL     1      21.346   4.322  49.564  1.00  0.00     0.291 C 
HETATM   12  O3  UNL     1      22.363   3.545  50.022  1.00  0.00    -0.358 OA
HETATM   13  C20 UNL     1      22.672   3.374  51.338  1.00  0.00     0.098 C 
HETATM   14  C21 UNL     1      22.401   4.548  52.227  1.00  0.00     0.050 C 
HETATM   15  H21 UNL     1      19.327   4.132  49.245  1.00  0.00     0.161 HD
ENDROOT
BRANCH   2  16
HETATM   16  N1  UNL     1      25.889   1.823  52.339  1.00  0.00    -0.345 N 
HETATM   17  C4  UNL     1      26.393   1.319  51.072  1.00  0.00     0.153 C 
HETATM   18  C5  UNL     1      26.539   1.511  53.593  1.00  0.00     0.253 C 
HETATM   19  O2  UNL     1      25.980   2.022  54.605  1.00  0.00    -0.267 OA
BRANCH  18  20
HETATM   20  C6  UNL     1      27.742   0.658  53.523  1.00  0.00     0.032 A 
HETATM   21  C7  UNL     1      27.405  -0.664  53.326  1.00  0.00     0.017 A 
HETATM   22  C8  UNL     1      28.399  -1.636  53.231  1.00  0.00     0.001 A 
HETATM   23  C9  UNL     1      29.719  -1.217  53.343  1.00  0.00     0.000 A 
HETATM   24  C10 UNL     1      30.040   0.091  53.537  1.00  0.00     0.001 A 
HETATM   25  C11 UNL     1      29.057   1.042  53.629  1.00  0.00     0.017 A 
ENDBRANCH  18  20
ENDBRANCH   2  16
BRANCH   1  26
HETATM   26  O1  UNL     1      24.636   4.626  51.049  1.00  0.00    -0.386 OA
HETATM   27  C1  UNL     1      25.542   4.893  50.070  1.00  0.00     0.202 C 
ENDBRANCH   1  26
TORSDOF 3
ENDMDL
MODEL 2
REMARK VINA RESULT:      -8.2      1.539      2.182
REMARK  3 active torsions:
REMARK  status: ('A' for Active; 'I' for Inactive)
REMARK    1  A    between atoms: O1_2  and  C2_3 
REMARK    2  A    between atoms: C3_4  and  N1_5 
REMARK       I    between atoms: N1_5  and  C5_7 
REMARK    3  A    between atoms: C5_7  and  C6_9 
ROOT
HETATM    1  C2  UNL     1      22.680   2.930  51.917  1.00  0.00     0.179 C 
HETATM    2  C3  UNL     1      22.976   1.598  52.479  1.00  0.00     0.120 C 
HETATM    3  C12 UNL     1      22.298   0.616  51.529  1.00  0.00     0.045 C 
HETATM    4  C13 UNL     1      21.471   1.399  50.622  1.00  0.00     0.016 C 
HETATM    5  C14 UNL     1      20.149   0.651  50.313  1.00  0.00    -0.011 C 
HETATM    6  C15 UNL     1      19.191   1.594  50.346  1.00  0.00     0.026 C 
HETATM    7  C16 UNL     1      19.749   2.383  49.134  1.00  0.00     0.025 C 
HETATM    8  C17 UNL     1      20.856   1.925  48.399  1.00  0.00     0.004 C 
HETATM    9  C18 UNL     1      22.108   1.597  49.202  1.00  0.00     0.046 C 
HETATM   10  N2  UNL     1      19.338   3.831  49.037  1.00  0.00    -0.369 N 
HETATM   11  C19 UNL     1      20.276   4.624  49.986  1.00  0.00     0.291 C 
HETATM   12  O3  UNL     1      21.340   3.843  50.309  1.00  0.00    -0.358 OA
HETATM   13  C20 UNL     1      21.287   2.779  51.159  1.00  0.00     0.098 C 
HETATM   14  C21 UNL     1      20.293   2.887  52.274  1.00  0.00     0.050 C 
HETATM   15  H21 UNL     1      18.724   4.580  48.642  1.00  0.00     0.161 HD
ENDROOT
BRANCH   2  16
HETATM   16  N1  UNL     1      24.401   1.245  52.465  1.00  0.00    -0.345 N 
HETATM   17  C4  UNL     1      25.410   1.838  51.602  1.00  0.00     0.153 C 
HETATM   18  C5  UNL     1      24.731   0.210  53.421  1.00  0.00     0.253 C 
HETATM   19  O2  UNL     1      23.745  -0.203  54.095  1.00  0.00    -0.267 OA
BRANCH  18  20
HETATM   20  C6  UNL     1      26.144  -0.214  53.478  1.00  0.00     0.032 A 
HETATM   21  C7  UNL     1      26.825   0.454  54.473  1.00  0.00     0.017 A 
HETATM   22  C8  UNL     1      28.177   0.197  54.693  1.00  0.00     0.001 A 
HETATM   23  C9  UNL     1      28.793  -0.744  53.877  1.00  0.00     0.000 A 
HETATM   24  C10 UNL     1      28.110  -1.397  52.898  1.00  0.00     0.001 A 
HETATM   25  C11 UNL     1      26.780  -1.140  52.688  1.00  0.00     0.017 A 
ENDBRANCH  18  20
ENDBRANCH   2  16
BRANCH   1  26
HETATM   26  O1  UNL     1      22.521   3.979  52.754  1.00  0.00    -0.386 OA
HETATM   27  C1  UNL     1      23.473   4.949  52.790  1.00  0.00     0.202 C 
ENDBRANCH   1  26
TORSDOF 3
ENDMDL
MODEL 3
REMARK VINA RESULT:      -7.9      2.236      3.667
REMARK  3 active torsions:
REMARK  status: ('A' for Active; 'I' for Inactive)
REMARK    1  A    between atoms: O1_2  and  C2_3 
REMARK    2  A    between atoms: C3_4  and  N1_5 
REMARK       I    between atoms: N1_5  and  C5_7 
REMARK    3  A    between atoms: C5_7  and  C6_9 
ROOT
HETATM    1  C2  UNL     1      23.775   4.469  51.396  1.00  0.00     0.179 C 
HETATM    2  C3  UNL     1      23.901   3.103  50.852  1.00  0.00     0.120 C 
HETATM    3  C12 UNL     1      23.996   3.293  49.342  1.00  0.00     0.045 C 
HETATM    4  C13 UNL     1      23.694   4.691  49.066  1.00  0.00     0.016 C 
HETATM    5  C14 UNL     1      22.874   4.819  47.757  1.00  0.00    -0.011 C 
HETATM    6  C15 UNL     1      21.931   5.742  48.018  1.00  0.00     0.026 C 
HETATM    7  C16 UNL     1      22.941   6.899  48.227  1.00  0.00     0.025 C 
HETATM    8  C17 UNL     1      24.321   6.723  48.028  1.00  0.00     0.004 C 
HETATM    9  C18 UNL     1      24.966   5.563  48.776  1.00  0.00     0.046 C 
HETATM   10  N2  UNL     1      22.450   8.071  49.040  1.00  0.00    -0.369 N 
HETATM   11  C19 UNL     1      22.597   7.671  50.533  1.00  0.00     0.291 C 
HETATM   12  O3  UNL     1      23.412   6.587  50.620  1.00  0.00    -0.358 OA
HETATM   13  C20 UNL     1      23.055   5.322  50.258  1.00  0.00     0.098 C 
HETATM   14  C21 UNL     1      21.612   4.974  50.449  1.00  0.00     0.050 C 
HETATM   15  H21 UNL     1      22.050   9.037  49.100  1.00  0.00     0.161 HD
ENDROOT
BRANCH   2  16
HETATM   16  N1  UNL     1      25.137   2.415  51.244  1.00  0.00    -0.345 N 
HETATM   17  C4  UNL     1      26.461   2.686  50.708  1.00  0.00     0.153 C 
HETATM   18  C5  UNL     1      24.917   1.397  52.248  1.00  0.00     0.253 C 
HETATM   19  O2  UNL     1      23.712   1.282  52.610  1.00  0.00    -0.267 OA
BRANCH  18  20
HETATM   20  C6  UNL     1      26.104   0.648  52.704  1.00  0.00     0.032 A 
HETATM   21  C7  UNL     1      26.718   1.282  53.764  1.00  0.00     0.017 A 
HETATM   22  C8  UNL     1      27.861   0.735  54.343  1.00  0.00     0.001 A 
HETATM   23  C9  UNL     1      28.344  -0.455  53.813  1.00  0.00     0.000 A 
HETATM   24  C10 UNL     1      27.730  -1.072  52.766  1.00  0.00     0.001 A 
HETATM   25  C11 UNL     1      26.605  -0.529  52.201  1.00  0.00     0.017 A 
ENDBRANCH  18  20
ENDBRANCH   2  16
BRANCH   1  26
HETATM   26  O1  UNL     1      23.040   4.670  52.511  1.00  0.00    -0.386 OA
HETATM   27  C1  UNL     1      23.674   4.805  53.707  1.00  0.00     0.202 C 
ENDBRANCH   1  26
TORSDOF 3
ENDMDL
MODEL 4
REMARK VINA RESULT:      -7.8      3.300      5.373
REMARK  3 active torsions:
REMARK  status: ('A' for Active; 'I' for Inactive)
REMARK    1  A    between atoms: O1_2  and  C2_3 
REMARK    2  A    between atoms: C3_4  and  N1_5 
REMARK       I    between atoms: N1_5  and  C5_7 
REMARK    3  A    between atoms: C5_7  and  C6_9 
ROOT
HETATM    1  C2  UNL     1      22.297   4.577  50.333  1.00  0.00     0.179 C 
HETATM    2  C3  UNL     1      23.277   3.474  50.335  1.00  0.00     0.120 C 
HETATM    3  C12 UNL     1      24.635   4.159  50.230  1.00  0.00     0.045 C 
HETATM    4  C13 UNL     1      24.384   5.564  49.943  1.00  0.00     0.016 C 
HETATM    5  C14 UNL     1      25.448   6.114  48.958  1.00  0.00    -0.011 C 
HETATM    6  C15 UNL     1      24.765   6.884  48.092  1.00  0.00     0.026 C 
HETATM    7  C16 UNL     1      24.326   7.917  49.162  1.00  0.00     0.025 C 
HETATM    8  C17 UNL     1      24.763   7.834  50.494  1.00  0.00     0.004 C 
HETATM    9  C18 UNL     1      24.542   6.499  51.194  1.00  0.00     0.046 C 
HETATM   10  N2  UNL     1      23.109   8.743  48.828  1.00  0.00    -0.369 N 
HETATM   11  C19 UNL     1      21.871   7.868  49.163  1.00  0.00     0.291 C 
HETATM   12  O3  UNL     1      22.264   6.828  49.943  1.00  0.00    -0.358 OA
HETATM   13  C20 UNL     1      22.974   5.753  49.496  1.00  0.00     0.098 C 
HETATM   14  C21 UNL     1      22.709   5.342  48.080  1.00  0.00     0.050 C 
HETATM   15  H21 UNL     1      22.676   9.628  48.474  1.00  0.00     0.161 HD
ENDROOT
BRANCH   2  16
HETATM   16  N1  UNL     1      23.314   2.709  51.588  1.00  0.00    -0.345 N 
HETATM   17  C4  UNL     1      23.904   3.162  52.837  1.00  0.00     0.153 C 
HETATM   18  C5  UNL     1      22.691   1.409  51.469  1.00  0.00     0.253 C 
HETATM   19  O2  UNL     1      22.227   1.162  50.320  1.00  0.00    -0.267 OA
BRANCH  18  20
HETATM   20  C6  UNL     1      22.682   0.565  52.680  1.00  0.00     0.032 A 
HETATM   21  C7  UNL     1      21.443   0.573  53.285  1.00  0.00     0.017 A 
HETATM   22  C8  UNL     1      21.224  -0.164  54.447  1.00  0.00     0.001 A 
HETATM   23  C9  UNL     1      22.292  -0.892  54.957  1.00  0.00     0.000 A 
HETATM   24  C10 UNL     1      23.510  -0.892  54.352  1.00  0.00     0.001 A 
HETATM   25  C11 UNL     1      23.719  -0.166  53.208  1.00  0.00     0.017 A 
ENDBRANCH  18  20
ENDBRANCH   2  16
BRANCH   1  26
HETATM   26  O1  UNL     1      21.087   4.384  49.764  1.00  0.00    -0.386 OA
HETATM   27  C1  UNL     1      20.011   4.142  50.561  1.00  0.00     0.202 C 
ENDBRANCH   1  26
TORSDOF 3
ENDMDL
MODEL 5
REMARK VINA RESULT:      -7.7      3.045      6.651
REMARK  3 active torsions:
REMARK  status: ('A' for Active; 'I' for Inactive)
REMARK    1  A    between atoms: O1_2  and  C2_3 
REMARK    2  A    between atoms: C3_4  and  N1_5 
REMARK       I    between atoms: N1_5  and  C5_7 
REMARK    3  A    between atoms: C5_7  and  C6_9 
ROOT
HETATM    1  C2  UNL     1      23.171   1.200  52.323  1.00  0.00     0.179 C 
HETATM    2  C3  UNL     1      21.836   1.676  52.732  1.00  0.00     0.120 C 
HETATM    3  C12 UNL     1      21.627   2.968  51.950  1.00  0.00     0.045 C 
HETATM    4  C13 UNL     1      22.899   3.300  51.324  1.00  0.00     0.016 C 
HETATM    5  C14 UNL     1      23.125   4.834  51.338  1.00  0.00    -0.011 C 
HETATM    6  C15 UNL     1      24.421   4.998  51.659  1.00  0.00     0.026 C 
HETATM    7  C16 UNL     1      24.956   4.310  50.377  1.00  0.00     0.025 C 
HETATM    8  C17 UNL     1      24.095   3.863  49.361  1.00  0.00     0.004 C 
HETATM    9  C18 UNL     1      22.959   2.946  49.796  1.00  0.00     0.046 C 
HETATM   10  N2  UNL     1      26.363   3.769  50.452  1.00  0.00    -0.369 N 
HETATM   11  C19 UNL     1      26.272   2.389  51.157  1.00  0.00     0.291 C 
HETATM   12  O3  UNL     1      24.976   1.979  51.159  1.00  0.00    -0.358 OA
HETATM   13  C20 UNL     1      24.000   2.509  51.948  1.00  0.00     0.098 C 
HETATM   14  C21 UNL     1      24.446   3.011  53.286  1.00  0.00     0.050 C 
HETATM   15  H21 UNL     1      27.388   3.863  50.263  1.00  0.00     0.161 HD
ENDROOT
BRANCH   2  16
HETATM   16  N1  UNL     1      20.736   0.788  52.333  1.00  0.00    -0.345 N 
HETATM   17  C4  UNL     1      20.397   0.426  50.966  1.00  0.00     0.153 C 
HETATM   18  C5  UNL     1      19.984   0.286  53.461  1.00  0.00     0.253 C 
HETATM   19  O2  UNL     1      20.402   0.693  54.582  1.00  0.00    -0.267 OA
BRANCH  18  20
HETATM   20  C6  UNL     1      18.855  -0.615  53.158  1.00  0.00     0.032 A 
HETATM   21  C7  UNL     1      18.968  -1.806  53.843  1.00  0.00     0.017 A 
HETATM   22  C8  UNL     1      18.000  -2.797  53.695  1.00  0.00     0.001 A 
HETATM   23  C9  UNL     1      16.937  -2.533  52.840  1.00  0.00     0.000 A 
HETATM   24  C10 UNL     1      16.835  -1.353  52.169  1.00  0.00     0.001 A 
HETATM   25  C11 UNL     1      17.791  -0.383  52.320  1.00  0.00     0.017 A 
ENDBRANCH  18  20
ENDBRANCH   2  16
BRANCH   1  26
HETATM   26  O1  UNL     1      23.938   0.536  53.215  1.00  0.00    -0.386 OA
HETATM   27  C1  UNL     1      23.606  -0.738  53.557  1.00  0.00     0.202 C 
ENDBRANCH   1  26
TORSDOF 3
ENDMDL
MODEL 6
REMARK VINA RESULT:      -7.6      1.732      2.297
REMARK  3 active torsions:
REMARK  status: ('A' for Active; 'I' for Inactive)
REMARK    1  A    between atoms: O1_2  and  C2_3 
REMARK    2  A    between atoms: C3_4  and  N1_5 
REMARK       I    between atoms: N1_5  and  C5_7 
REMARK    3  A    between atoms: C5_7  and  C6_9 
ROOT
HETATM    1  C2  UNL     1      24.199   4.653  50.163  1.00  0.00     0.179 C 
HETATM    2  C3  UNL     1      24.159   3.641  51.236  1.00  0.00     0.120 C 
HETATM    3  C12 UNL     1      23.159   2.598  50.751  1.00  0.00     0.045 C 
HETATM    4  C13 UNL     1      22.508   3.146  49.569  1.00  0.00     0.016 C 
HETATM    5  C14 UNL     1      21.009   2.750  49.545  1.00  0.00    -0.011 C 
HETATM    6  C15 UNL     1      20.357   3.857  49.146  1.00  0.00     0.026 C 
HETATM    7  C16 UNL     1      21.008   3.887  47.740  1.00  0.00     0.025 C 
HETATM    8  C17 UNL     1      21.878   2.874  47.305  1.00  0.00     0.004 C 
HETATM    9  C18 UNL     1      23.053   2.557  48.221  1.00  0.00     0.046 C 
HETATM   10  N2  UNL     1      21.008   5.222  47.036  1.00  0.00    -0.369 N 
HETATM   11  C19 UNL     1      22.205   6.027  47.609  1.00  0.00     0.291 C 
HETATM   12  O3  UNL     1      23.034   5.176  48.269  1.00  0.00    -0.358 OA
HETATM   13  C20 UNL     1      22.759   4.614  49.480  1.00  0.00     0.098 C 
HETATM   14  C21 UNL     1      21.932   5.446  50.410  1.00  0.00     0.050 C 
HETATM   15  H21 UNL     1      20.594   5.888  46.343  1.00  0.00     0.161 HD
ENDROOT
BRANCH   2  16
HETATM   16  N1  UNL     1      25.424   2.920  51.427  1.00  0.00    -0.345 N 
HETATM   17  C4  UNL     1      26.450   2.733  50.414  1.00  0.00     0.153 C 
HETATM   18  C5  UNL     1      25.568   2.385  52.763  1.00  0.00     0.253 C 
HETATM   19  O2  UNL     1      24.592   2.632  53.525  1.00  0.00    -0.267 OA
BRANCH  18  20
HETATM   20  C6  UNL     1      26.810   1.641  53.048  1.00  0.00     0.032 A 
HETATM   21  C7  UNL     1      26.653   0.294  52.801  1.00  0.00     0.017 A 
HETATM   22  C8  UNL     1      27.712  -0.588  53.008  1.00  0.00     0.001 A 
HETATM   23  C9  UNL     1      28.910  -0.055  53.468  1.00  0.00     0.000 A 
HETATM   24  C10 UNL     1      29.054   1.277  53.709  1.00  0.00     0.001 A 
HETATM   25  C11 UNL     1      28.008   2.138  53.502  1.00  0.00     0.017 A 
ENDBRANCH  18  20
ENDBRANCH   2  16
BRANCH   1  26
HETATM   26  O1  UNL     1      24.407   5.948  50.484  1.00  0.00    -0.386 OA
HETATM   27  C1  UNL     1      25.565   6.549  50.097  1.00  0.00     0.202 C 
ENDBRANCH   1  26
TORSDOF 3
ENDMDL
MODEL 7
REMARK VINA RESULT:      -7.5      2.215      3.543
REMARK  3 active torsions:
REMARK  status: ('A' for Active; 'I' for Inactive)
REMARK    1  A    between atoms: O1_2  and  C2_3 
REMARK    2  A    between atoms: C3_4  and  N1_5 
REMARK       I    between atoms: N1_5  and  C5_7 
REMARK    3  A    between atoms: C5_7  and  C6_9 
ROOT
HETATM    1  C2  UNL     1      21.149   1.729  52.662  1.00  0.00     0.179 C 
HETATM    2  C3  UNL     1      22.132   0.806  52.066  1.00  0.00     0.120 C 
HETATM    3  C12 UNL     1      22.180   1.188  50.590  1.00  0.00     0.045 C 
HETATM    4  C13 UNL     1      21.089   2.124  50.355  1.00  0.00     0.016 C 
HETATM    5  C14 UNL     1      20.451   1.872  48.965  1.00  0.00    -0.011 C 
HETATM    6  C15 UNL     1      19.124   1.981  49.160  1.00  0.00     0.026 C 
HETATM    7  C16 UNL     1      19.176   3.480  49.550  1.00  0.00     0.025 C 
HETATM    8  C17 UNL     1      20.373   4.215  49.510  1.00  0.00     0.004 C 
HETATM    9  C18 UNL     1      21.554   3.620  50.267  1.00  0.00     0.046 C 
HETATM   10  N2  UNL     1      18.013   3.997  50.359  1.00  0.00    -0.369 N 
HETATM   11  C19 UNL     1      18.286   3.602  51.835  1.00  0.00     0.291 C 
HETATM   12  O3  UNL     1      19.592   3.247  51.962  1.00  0.00    -0.358 OA
HETATM   13  C20 UNL     1      20.125   2.084  51.493  1.00  0.00     0.098 C 
HETATM   14  C21 UNL     1      19.207   0.902  51.491  1.00  0.00     0.050 C 
HETATM   15  H21 UNL     1      17.095   4.497  50.422  1.00  0.00     0.161 HD
ENDROOT
BRANCH   2  16
HETATM   16  N1  UNL     1      23.501   0.984  52.566  1.00  0.00    -0.345 N 
HETATM   17  C4  UNL     1      24.222   2.245  52.625  1.00  0.00     0.153 C 
HETATM   18  C5  UNL     1      24.100  -0.255  53.012  1.00  0.00     0.253 C 
HETATM   19  O2  UNL     1      23.348  -1.263  52.896  1.00  0.00    -0.267 OA
BRANCH  18  20
HETATM   20  C6  UNL     1      25.480  -0.176  53.531  1.00  0.00     0.032 A 
HETATM   21  C7  UNL     1      26.395  -0.569  52.578  1.00  0.00     0.017 A 
HETATM   22  C8  UNL     1      27.758  -0.566  52.869  1.00  0.00     0.001 A 
HETATM   23  C9  UNL     1      28.142  -0.158  54.140  1.00  0.00     0.000 A 
HETATM   24  C10 UNL     1      27.229   0.228  55.073  1.00  0.00     0.001 A 
HETATM   25  C11 UNL     1      25.891   0.224  54.780  1.00  0.00     0.017 A 
ENDBRANCH  18  20
ENDBRANCH   2  16
BRANCH   1  26
HETATM   26  O1  UNL     1      20.383   1.304  53.691  1.00  0.00    -0.386 OA
HETATM   27  C1  UNL     1      20.859   0.333  54.516  1.00  0.00     0.202 C 
ENDBRANCH   1  26
TORSDOF 3
ENDMDL
MODEL 8
REMARK VINA RESULT:      -7.4      3.655      5.137
REMARK  3 active torsions:
REMARK  status: ('A' for Active; 'I' for Inactive)
REMARK    1  A    between atoms: O1_2  and  C2_3 
REMARK    2  A    between atoms: C3_4  and  N1_5 
REMARK       I    between atoms: N1_5  and  C5_7 
REMARK    3  A    between atoms: C5_7  and  C6_9 
ROOT
HETATM    1  C2  UNL     1      23.203   3.726  51.023  1.00  0.00     0.179 C 
HETATM    2  C3  UNL     1      24.198   3.339  50.004  1.00  0.00     0.120 C 
HETATM    3  C12 UNL     1      23.393   2.617  48.929  1.00  0.00     0.045 C 
HETATM    4  C13 UNL     1      22.053   2.415  49.461  1.00  0.00     0.016 C 
HETATM    5  C14 UNL     1      21.495   1.040  49.012  1.00  0.00    -0.011 C 
HETATM    6  C15 UNL     1      20.881   0.536  50.098  1.00  0.00     0.026 C 
HETATM    7  C16 UNL     1      19.801   1.648  50.159  1.00  0.00     0.025 C 
HETATM    8  C17 UNL     1      19.715   2.651  49.180  1.00  0.00     0.004 C 
HETATM    9  C18 UNL     1      20.994   3.428  48.899  1.00  0.00     0.046 C 
HETATM   10  N2  UNL     1      19.135   1.853  51.497  1.00  0.00    -0.369 N 
HETATM   11  C19 UNL     1      20.094   2.736  52.341  1.00  0.00     0.291 C 
HETATM   12  O3  UNL     1      21.013   3.302  51.515  1.00  0.00    -0.358 OA
HETATM   13  C20 UNL     1      22.049   2.631  50.937  1.00  0.00     0.098 C 
HETATM   14  C21 UNL     1      22.614   1.496  51.734  1.00  0.00     0.050 C 
HETATM   15  H21 UNL     1      18.335   1.693  52.152  1.00  0.00     0.161 HD
ENDROOT
BRANCH   2  16
HETATM   16  N1  UNL     1      24.835   4.476  49.327  1.00  0.00    -0.345 N 
HETATM   17  C4  UNL     1      24.135   5.563  48.663  1.00  0.00     0.153 C 
HETATM   18  C5  UNL     1      26.280   4.419  49.376  1.00  0.00     0.253 C 
HETATM   19  O2  UNL     1      26.736   3.412  49.988  1.00  0.00    -0.267 OA
BRANCH  18  20
HETATM   20  C6  UNL     1      27.009   5.520  48.718  1.00  0.00     0.032 A 
HETATM   21  C7  UNL     1      28.318   5.170  48.464  1.00  0.00     0.017 A 
HETATM   22  C8  UNL     1      29.180   6.074  47.845  1.00  0.00     0.001 A 
HETATM   23  C9  UNL     1      28.668   7.319  47.504  1.00  0.00     0.000 A 
HETATM   24  C10 UNL     1      27.374   7.654  47.761  1.00  0.00     0.001 A 
HETATM   25  C11 UNL     1      26.532   6.760  48.369  1.00  0.00     0.017 A 
ENDBRANCH  18  20
ENDBRANCH   2  16
BRANCH   1  26
HETATM   26  O1  UNL     1      23.568   3.760  52.323  1.00  0.00    -0.386 OA
HETATM   27  C1  UNL     1      23.713   4.964  52.940  1.00  0.00     0.202 C 
ENDBRANCH   1  26
TORSDOF 3
ENDMDL
MODEL 9
REMARK VINA RESULT:      -7.3      3.073      5.153
REMARK  3 active torsions:
REMARK  status: ('A' for Active; 'I' for Inactive)
REMARK    1  A    between atoms: O1_2  and  C2_3 
REMARK    2  A    between atoms: C3_4  and  N1_5 
REMARK       I    between atoms: N1_5  and  C5_7 
REMARK    3  A    between atoms: C5_7  and  C6_9 
ROOT
HETATM    1  C2  UNL     1      24.731   4.943  49.958  1.00  0.00     0.179 C 
HETATM    2  C3  UNL     1      23.937   4.737  51.185  1.00  0.00     0.120 C 
HETATM    3  C12 UNL     1      22.718   5.638  51.014  1.00  0.00     0.045 C 
HETATM    4  C13 UNL     1      22.964   6.475  49.848  1.00  0.00     0.016 C 
HETATM    5  C14 UNL     1      22.408   7.903  50.080  1.00  0.00    -0.011 C 
HETATM    6  C15 UNL     1      23.343   8.732  49.585  1.00  0.00     0.026 C 
HETATM    7  C16 UNL     1      23.185   8.241  48.123  1.00  0.00     0.025 C 
HETATM    8  C17 UNL     1      22.211   7.296  47.760  1.00  0.00     0.004 C 
HETATM    9  C18 UNL     1      22.200   6.001  48.562  1.00  0.00     0.046 C 
HETATM   10  N2  UNL     1      24.359   8.489  47.208  1.00  0.00    -0.369 N 
HETATM   11  C19 UNL     1      25.383   7.355  47.480  1.00  0.00     0.291 C 
HETATM   12  O3  UNL     1      24.764   6.357  48.165  1.00  0.00    -0.358 OA
HETATM   13  C20 UNL     1      24.409   6.428  49.479  1.00  0.00     0.098 C 
HETATM   14  C21 UNL     1      25.302   7.256  50.350  1.00  0.00     0.050 C 
HETATM   15  H21 UNL     1      24.836   9.057  46.469  1.00  0.00     0.161 HD
ENDROOT
BRANCH   2  16
HETATM   16  N1  UNL     1      23.408   3.376  51.334  1.00  0.00    -0.345 N 
HETATM   17  C4  UNL     1      22.778   2.594  50.282  1.00  0.00     0.153 C 
HETATM   18  C5  UNL     1      23.568   2.857  52.674  1.00  0.00     0.253 C 
HETATM   19  O2  UNL     1      24.132   3.656  53.474  1.00  0.00    -0.267 OA
BRANCH  18  20
HETATM   20  C6  UNL     1      23.062   1.492  52.922  1.00  0.00     0.032 A 
HETATM   21  C7  UNL     1      24.098   0.597  53.080  1.00  0.00     0.017 A 
HETATM   22  C8  UNL     1      23.833  -0.750  53.323  1.00  0.00     0.001 A 
HETATM   23  C9  UNL     1      22.501  -1.138  53.397  1.00  0.00     0.000 A 
HETATM   24  C10 UNL     1      21.486  -0.245  53.239  1.00  0.00     0.001 A 
HETATM   25  C11 UNL     1      21.754   1.078  53.001  1.00  0.00     0.017 A 
ENDBRANCH  18  20
ENDBRANCH   2  16
BRANCH   1  26
HETATM   26  O1  UNL     1      26.079   4.873  50.024  1.00  0.00    -0.386 OA
HETATM   27  C1  UNL     1      26.716   3.803  49.477  1.00  0.00     0.202 C 
ENDBRANCH   1  26
TORSDOF 3
ENDMDL
