MODEL 1
REMARK VINA RESULT:      -8.4      0.000      0.000
REMARK  5 active torsions:
REMARK  status: ('A' for Active; 'I' for Inactive)
REMARK    1  A    between atoms: O1_2  and  C2_3 
REMARK    2  A    between atoms: C6_7  and  C7_8 
REMARK    3  A    between atoms: C8_9  and  C9_10 
REMARK       I    between atoms: C9_10  and  N1_12 
REMARK    4  A    between atoms: N1_12  and  C10_13 
REMARK    5  A    between atoms: C15_20  and  N4_21 
ROOT
HETATM    1  C10 UNL     1      22.740   1.199  51.984  1.00  0.00     0.029 A 
HETATM    2  C11 UNL     1      23.468   0.314  52.701  1.00  0.00     0.028 A 
HETATM    3  C12 UNL     1      22.569  -0.600  53.435  1.00  0.00     0.030 A 
HETATM    4  C13 UNL     1      21.337  -0.226  53.130  1.00  0.00     0.053 A 
HETATM    5  N2  UNL     1      20.018  -0.678  53.480  1.00  0.00    -0.245 NA
HETATM    6  C14 UNL     1      19.020  -0.366  52.676  1.00  0.00     0.235 C 
HETATM    7  N3  UNL     1      19.291   0.400  51.548  1.00  0.00    -0.227 NA
HETATM    8  C15 UNL     1      20.379   0.915  51.121  1.00  0.00     0.123 C 
HETATM    9  C21 UNL     1      21.315   0.933  52.234  1.00  0.00     0.157 A 
ENDROOT
BRANCH   1  10
HETATM   10  N1  UNL     1      23.670   2.059  51.287  1.00  0.00    -0.326 N 
HETATM   11  C9  UNL     1      23.961   3.399  51.647  1.00  0.00     0.245 C 
HETATM   12  O2  UNL     1      23.331   3.825  52.662  1.00  0.00    -0.268 OA
HETATM   13  H9  UNL     1      24.208   1.729  50.430  1.00  0.00     0.169 HD
BRANCH  11  14
HETATM   14  C8  UNL     1      24.900   4.252  50.934  1.00  0.00     0.075 C 
HETATM   15  C7  UNL     1      25.317   4.253  49.700  1.00  0.00     0.017 C 
BRANCH  15  16
HETATM   16  C6  UNL     1      26.264   5.136  49.036  1.00  0.00    -0.033 A 
HETATM   17  C5  UNL     1      25.886   6.374  48.565  1.00  0.00     0.011 A 
HETATM   18  C4  UNL     1      26.777   7.205  47.940  1.00  0.00     0.004 A 
HETATM   19  C3  UNL     1      28.084   6.766  47.792  1.00  0.00     0.037 A 
HETATM   20  C2  UNL     1      28.457   5.516  48.270  1.00  0.00     0.069 A 
HETATM   21  C22 UNL     1      27.563   4.699  48.889  1.00  0.00     0.048 A 
BRANCH  20  22
HETATM   22  O1  UNL     1      29.757   5.046  48.138  1.00  0.00    -0.356 OA
HETATM   23  C1  UNL     1      30.890   5.811  48.547  1.00  0.00     0.210 C 
ENDBRANCH  20  22
ENDBRANCH  15  16
ENDBRANCH  11  14
ENDBRANCH   1  10
BRANCH   8  24
HETATM   24  N4  UNL     1      20.956   1.680  50.071  1.00  0.00    -0.340 N 
HETATM   25  C16 UNL     1      20.800   3.097  50.175  1.00  0.00     0.111 A 
HETATM   26  C17 UNL     1      21.377   3.780  49.179  1.00  0.00     0.026 A 
HETATM   27 BR1  UNL     1      21.235   5.680  49.215  1.00  0.00    -0.050 Br
HETATM   28  C18 UNL     1      22.092   3.161  48.073  1.00  0.00     0.018 A 
HETATM   29  C19 UNL     1      22.186   1.829  48.036  1.00  0.00    -0.005 A 
HETATM   30  C20 UNL     1      21.601   0.904  49.061  1.00  0.00     0.157 A 
ENDBRANCH   8  24
TORSDOF 5
ENDMDL
MODEL 2
REMARK VINA RESULT:      -8.1      1.017      1.591
REMARK  5 active torsions:
REMARK  status: ('A' for Active; 'I' for Inactive)
REMARK    1  A    between atoms: O1_2  and  C2_3 
REMARK    2  A    between atoms: C6_7  and  C7_8 
REMARK    3  A    between atoms: C8_9  and  C9_10 
REMARK       I    between atoms: C9_10  and  N1_12 
REMARK    4  A    between atoms: N1_12  and  C10_13 
REMARK    5  A    between atoms: C15_20  and  N4_21 
ROOT
HETATM    1  C10 UNL     1      22.715   1.151  51.868  1.00  0.00     0.029 A 
HETATM    2  C11 UNL     1      23.368   0.220  52.599  1.00  0.00     0.028 A 
HETATM    3  C12 UNL     1      22.397  -0.631  53.315  1.00  0.00     0.030 A 
HETATM    4  C13 UNL     1      21.199  -0.178  52.986  1.00  0.00     0.053 A 
HETATM    5  N2  UNL     1      19.846  -0.541  53.310  1.00  0.00    -0.245 NA
HETATM    6  C14 UNL     1      18.887  -0.165  52.486  1.00  0.00     0.235 C 
HETATM    7  N3  UNL     1      19.229   0.581  51.364  1.00  0.00    -0.227 NA
HETATM    8  C15 UNL     1      20.358   1.022  50.959  1.00  0.00     0.123 C 
HETATM    9  C21 UNL     1      21.271   0.979  52.090  1.00  0.00     0.157 A 
ENDROOT
BRANCH   1  10
HETATM   10  N1  UNL     1      23.713   1.946  51.190  1.00  0.00    -0.326 N 
HETATM   11  C9  UNL     1      24.147   3.230  51.606  1.00  0.00     0.245 C 
HETATM   12  O2  UNL     1      23.586   3.665  52.657  1.00  0.00    -0.268 OA
HETATM   13  H9  UNL     1      24.197   1.608  50.304  1.00  0.00     0.169 HD
BRANCH  11  14
HETATM   14  C8  UNL     1      25.154   4.019  50.911  1.00  0.00     0.075 C 
HETATM   15  C7  UNL     1      25.257   4.408  49.673  1.00  0.00     0.017 C 
BRANCH  15  16
HETATM   16  C6  UNL     1      26.292   5.202  49.027  1.00  0.00    -0.033 A 
HETATM   17  C5  UNL     1      27.566   4.711  48.845  1.00  0.00     0.011 A 
HETATM   18  C4  UNL     1      28.540   5.457  48.238  1.00  0.00     0.004 A 
HETATM   19  C3  UNL     1      28.210   6.733  47.806  1.00  0.00     0.037 A 
HETATM   20  C2  UNL     1      26.923   7.220  47.994  1.00  0.00     0.069 A 
HETATM   21  C22 UNL     1      25.963   6.469  48.598  1.00  0.00     0.048 A 
BRANCH  20  22
HETATM   22  O1  UNL     1      26.559   8.493  47.573  1.00  0.00    -0.356 OA
HETATM   23  C1  UNL     1      27.494   9.568  47.499  1.00  0.00     0.210 C 
ENDBRANCH  20  22
ENDBRANCH  15  16
ENDBRANCH  11  14
ENDBRANCH   1  10
BRANCH   8  24
HETATM   24  N4  UNL     1      21.004   1.747  49.921  1.00  0.00    -0.340 N 
HETATM   25  C16 UNL     1      20.962   3.171  50.035  1.00  0.00     0.111 A 
HETATM   26  C17 UNL     1      21.601   3.813  49.050  1.00  0.00     0.026 A 
HETATM   27 BR1  UNL     1      21.612   5.717  49.100  1.00  0.00    -0.050 Br
HETATM   28  C18 UNL     1      22.275   3.146  47.945  1.00  0.00     0.018 A 
HETATM   29  C19 UNL     1      22.262   1.812  47.898  1.00  0.00    -0.005 A 
HETATM   30  C20 UNL     1      21.595   0.929  48.910  1.00  0.00     0.157 A 
ENDBRANCH   8  24
TORSDOF 5
ENDMDL
MODEL 3
REMARK VINA RESULT:      -7.8      3.888      5.289
REMARK  5 active torsions:
REMARK  status: ('A' for Active; 'I' for Inactive)
REMARK    1  A    between atoms: O1_2  and  C2_3 
REMARK    2  A    between atoms: C6_7  and  C7_8 
REMARK    3  A    between atoms: C8_9  and  C9_10 
REMARK       I    between atoms: C9_10  and  N1_12 
REMARK    4  A    between atoms: N1_12  and  C10_13 
REMARK    5  A    between atoms: C15_20  and  N4_21 
ROOT
HETATM    1  C10 UNL     1      19.397   0.549  51.864  1.00  0.00     0.029 A 
HETATM    2  C11 UNL     1      18.759  -0.615  52.122  1.00  0.00     0.028 A 
HETATM    3  C12 UNL     1      17.304  -0.442  51.945  1.00  0.00     0.030 A 
HETATM    4  C13 UNL     1      17.124   0.819  51.588  1.00  0.00     0.053 A 
HETATM    5  N2  UNL     1      15.987   1.634  51.258  1.00  0.00    -0.245 NA
HETATM    6  C14 UNL     1      16.189   2.720  50.537  1.00  0.00     0.235 C 
HETATM    7  N3  UNL     1      17.489   3.032  50.155  1.00  0.00    -0.227 NA
HETATM    8  C15 UNL     1      18.601   2.452  50.401  1.00  0.00     0.123 C 
HETATM    9  C21 UNL     1      18.385   1.563  51.531  1.00  0.00     0.157 A 
ENDROOT
BRANCH   1  10
HETATM   10  N1  UNL     1      20.811   0.317  52.049  1.00  0.00    -0.326 N 
HETATM   11  C9  UNL     1      21.515   0.520  53.263  1.00  0.00     0.245 C 
HETATM   12  O2  UNL     1      20.802   0.938  54.226  1.00  0.00    -0.268 OA
HETATM   13  H9  UNL     1      21.434  -0.029  51.258  1.00  0.00     0.169 HD
BRANCH  11  14
HETATM   14  C8  UNL     1      22.941   0.282  53.433  1.00  0.00     0.075 C 
HETATM   15  C7  UNL     1      23.991   0.907  52.982  1.00  0.00     0.017 C 
BRANCH  15  16
HETATM   16  C6  UNL     1      25.404   0.623  53.184  1.00  0.00    -0.033 A 
HETATM   17  C5  UNL     1      26.295   1.614  53.531  1.00  0.00     0.011 A 
HETATM   18  C4  UNL     1      27.624   1.348  53.721  1.00  0.00     0.004 A 
HETATM   19  C3  UNL     1      28.056   0.041  53.556  1.00  0.00     0.037 A 
HETATM   20  C2  UNL     1      27.151  -0.954  53.207  1.00  0.00     0.069 A 
HETATM   21  C22 UNL     1      25.833  -0.676  53.020  1.00  0.00     0.048 A 
BRANCH  20  22
HETATM   22  O1  UNL     1      27.551  -2.272  53.034  1.00  0.00    -0.356 OA
HETATM   23  C1  UNL     1      28.914  -2.679  53.158  1.00  0.00     0.210 C 
ENDBRANCH  20  22
ENDBRANCH  15  16
ENDBRANCH  11  14
ENDBRANCH   1  10
BRANCH   8  24
HETATM   24  N4  UNL     1      20.001   2.500  50.162  1.00  0.00    -0.340 N 
HETATM   25  C16 UNL     1      20.750   3.364  51.020  1.00  0.00     0.111 A 
HETATM   26  C17 UNL     1      22.066   3.362  50.775  1.00  0.00     0.026 A 
HETATM   27 BR1  UNL     1      23.166   4.476  51.861  1.00  0.00    -0.050 Br
HETATM   28  C18 UNL     1      22.700   2.573  49.730  1.00  0.00     0.018 A 
HETATM   29  C19 UNL     1      21.934   1.797  48.958  1.00  0.00    -0.005 A 
HETATM   30  C20 UNL     1      20.444   1.675  49.084  1.00  0.00     0.157 A 
ENDBRANCH   8  24
TORSDOF 5
ENDMDL
MODEL 4
REMARK VINA RESULT:      -7.7      2.366      3.364
REMARK  5 active torsions:
REMARK  status: ('A' for Active; 'I' for Inactive)
REMARK    1  A    between atoms: O1_2  and  C2_3 
REMARK    2  A    between atoms: C6_7  and  C7_8 
REMARK    3  A    between atoms: C8_9  and  C9_10 
REMARK       I    between atoms: C9_10  and  N1_12 
REMARK    4  A    between atoms: N1_12  and  C10_13 
REMARK    5  A    between atoms: C15_20  and  N4_21 
ROOT
HETATM    1  C10 UNL     1      25.851   2.062  52.056  1.00  0.00     0.029 A 
HETATM    2  C11 UNL     1      26.762   1.111  51.752  1.00  0.00     0.028 A 
HETATM    3  C12 UNL     1      26.353  -0.184  52.333  1.00  0.00     0.030 A 
HETATM    4  C13 UNL     1      25.212   0.042  52.964  1.00  0.00     0.053 A 
HETATM    5  N2  UNL     1      24.288  -0.760  53.719  1.00  0.00    -0.245 NA
HETATM    6  C14 UNL     1      23.048  -0.328  53.844  1.00  0.00     0.235 C 
HETATM    7  N3  UNL     1      22.706   0.887  53.262  1.00  0.00    -0.227 NA
HETATM    8  C15 UNL     1      23.405   1.734  52.608  1.00  0.00     0.123 C 
HETATM    9  C21 UNL     1      24.803   1.447  52.885  1.00  0.00     0.157 A 
ENDROOT
BRANCH   1  10
HETATM   10  N1  UNL     1      26.302   3.299  51.460  1.00  0.00    -0.326 N 
HETATM   11  C9  UNL     1      26.488   3.508  50.070  1.00  0.00     0.245 C 
HETATM   12  O2  UNL     1      26.223   2.504  49.342  1.00  0.00    -0.268 OA
HETATM   13  H9  UNL     1      26.535   4.155  52.047  1.00  0.00     0.169 HD
BRANCH  11  14
HETATM   14  C8  UNL     1      26.944   4.760  49.485  1.00  0.00     0.075 C 
HETATM   15  C7  UNL     1      27.826   5.024  48.563  1.00  0.00     0.017 C 
BRANCH  15  16
HETATM   16  C6  UNL     1      28.245   6.305  48.013  1.00  0.00    -0.033 A 
HETATM   17  C5  UNL     1      27.329   7.254  47.618  1.00  0.00     0.011 A 
HETATM   18  C4  UNL     1      27.723   8.458  47.100  1.00  0.00     0.004 A 
HETATM   19  C3  UNL     1      29.083   8.702  46.982  1.00  0.00     0.037 A 
HETATM   20  C2  UNL     1      30.001   7.740  47.383  1.00  0.00     0.069 A 
HETATM   21  C22 UNL     1      29.597   6.547  47.896  1.00  0.00     0.048 A 
BRANCH  20  22
HETATM   22  O1  UNL     1      31.370   7.953  47.278  1.00  0.00    -0.356 OA
HETATM   23  C1  UNL     1      32.319   6.895  47.410  1.00  0.00     0.210 C 
ENDBRANCH  20  22
ENDBRANCH  15  16
ENDBRANCH  11  14
ENDBRANCH   1  10
BRANCH   8  24
HETATM   24  N4  UNL     1      23.357   2.973  51.914  1.00  0.00    -0.340 N 
HETATM   25  C16 UNL     1      23.036   2.896  50.523  1.00  0.00     0.111 A 
HETATM   26  C17 UNL     1      22.979   4.086  49.914  1.00  0.00     0.026 A 
HETATM   27 BR1  UNL     1      22.557   4.106  48.056  1.00  0.00    -0.050 Br
HETATM   28  C18 UNL     1      23.227   5.356  50.579  1.00  0.00     0.018 A 
HETATM   29  C19 UNL     1      23.534   5.349  51.879  1.00  0.00    -0.005 A 
HETATM   30  C20 UNL     1      23.646   4.114  52.722  1.00  0.00     0.157 A 
ENDBRANCH   8  24
TORSDOF 5
ENDMDL
MODEL 5
REMARK VINA RESULT:      -7.6      3.440      7.727
REMARK  5 active torsions:
REMARK  status: ('A' for Active; 'I' for Inactive)
REMARK    1  A    between atoms: O1_2  and  C2_3 
REMARK    2  A    between atoms: C6_7  and  C7_8 
REMARK    3  A    between atoms: C8_9  and  C9_10 
REMARK       I    between atoms: C9_10  and  N1_12 
REMARK    4  A    between atoms: N1_12  and  C10_13 
REMARK    5  A    between atoms: C15_20  and  N4_21 
ROOT
HETATM    1  C10 UNL     1      25.641   6.999  49.495  1.00  0.00     0.029 A 
HETATM    2  C11 UNL     1      26.591   7.817  50.002  1.00  0.00     0.028 A 
HETATM    3  C12 UNL     1      26.573   9.111  49.291  1.00  0.00     0.030 A 
HETATM    4  C13 UNL     1      25.612   9.019  48.386  1.00  0.00     0.053 A 
HETATM    5  N2  UNL     1      25.065   9.895  47.386  1.00  0.00    -0.245 NA
HETATM    6  C14 UNL     1      23.845   9.653  46.948  1.00  0.00     0.235 C 
HETATM    7  N3  UNL     1      23.162   8.554  47.456  1.00  0.00    -0.227 NA
HETATM    8  C15 UNL     1      23.514   7.661  48.299  1.00  0.00     0.123 C 
HETATM    9  C21 UNL     1      24.964   7.705  48.398  1.00  0.00     0.157 A 
ENDROOT
BRANCH   1  10
HETATM   10  N1  UNL     1      25.706   5.756  50.230  1.00  0.00    -0.326 N 
HETATM   11  C9  UNL     1      26.335   4.572  49.769  1.00  0.00     0.245 C 
HETATM   12  O2  UNL     1      26.865   4.666  48.620  1.00  0.00    -0.268 OA
HETATM   13  H9  UNL     1      25.266   5.648  51.194  1.00  0.00     0.169 HD
BRANCH  11  14
HETATM   14  C8  UNL     1      26.390   3.328  50.522  1.00  0.00     0.075 C 
HETATM   15  C7  UNL     1      25.475   2.643  51.147  1.00  0.00     0.017 C 
BRANCH  15  16
HETATM   16  C6  UNL     1      25.587   1.396  51.888  1.00  0.00    -0.033 A 
HETATM   17  C5  UNL     1      26.753   0.663  51.893  1.00  0.00     0.011 A 
HETATM   18  C4  UNL     1      26.859  -0.510  52.590  1.00  0.00     0.004 A 
HETATM   19  C3  UNL     1      25.751  -0.948  53.301  1.00  0.00     0.037 A 
HETATM   20  C2  UNL     1      24.578  -0.202  53.291  1.00  0.00     0.069 A 
HETATM   21  C22 UNL     1      24.486   0.962  52.594  1.00  0.00     0.048 A 
BRANCH  20  22
HETATM   22  O1  UNL     1      23.451  -0.612  53.992  1.00  0.00    -0.356 OA
HETATM   23  C1  UNL     1      22.132  -0.463  53.469  1.00  0.00     0.210 C 
ENDBRANCH  20  22
ENDBRANCH  15  16
ENDBRANCH  11  14
ENDBRANCH   1  10
BRANCH   8  24
HETATM   24  N4  UNL     1      23.077   6.501  48.995  1.00  0.00    -0.340 N 
HETATM   25  C16 UNL     1      23.089   5.284  48.246  1.00  0.00     0.111 A 
HETATM   26  C17 UNL     1      22.693   4.213  48.946  1.00  0.00     0.026 A 
HETATM   27 BR1  UNL     1      22.671   2.533  48.048  1.00  0.00    -0.050 Br
HETATM   28  C18 UNL     1      22.272   4.259  50.338  1.00  0.00     0.018 A 
HETATM   29  C19 UNL     1      22.275   5.436  50.970  1.00  0.00    -0.005 A 
HETATM   30  C20 UNL     1      22.684   6.737  50.347  1.00  0.00     0.157 A 
ENDBRANCH   8  24
TORSDOF 5
ENDMDL
MODEL 6
REMARK VINA RESULT:      -7.3      3.467      7.514
REMARK  5 active torsions:
REMARK  status: ('A' for Active; 'I' for Inactive)
REMARK    1  A    between atoms: O1_2  and  C2_3 
REMARK    2  A    between atoms: C6_7  and  C7_8 
REMARK    3  A    between atoms: C8_9  and  C9_10 
REMARK       I    between atoms: C9_10  and  N1_12 
REMARK    4  A    between atoms: N1_12  and  C10_13 
REMARK    5  A    between atoms: C15_20  and  N4_21 
ROOT
HETATM    1  C10 UNL     1      22.089   3.670  47.862  1.00  0.00     0.029 A 
HETATM    2  C11 UNL     1      21.996   2.874  46.773  1.00  0.00     0.028 A 
HETATM    3  C12 UNL     1      21.853   3.700  45.557  1.00  0.00     0.030 A 
HETATM    4  C13 UNL     1      21.866   4.959  45.964  1.00  0.00     0.053 A 
HETATM    5  N2  UNL     1      21.780   6.241  45.319  1.00  0.00    -0.245 NA
HETATM    6  C14 UNL     1      22.252   7.292  45.960  1.00  0.00     0.235 C 
HETATM    7  N3  UNL     1      22.785   7.111  47.231  1.00  0.00    -0.227 NA
HETATM    8  C15 UNL     1      22.894   6.066  47.957  1.00  0.00     0.123 C 
HETATM    9  C21 UNL     1      21.982   5.068  47.421  1.00  0.00     0.157 A 
ENDROOT
BRANCH   1  10
HETATM   10  N1  UNL     1      22.230   2.809  49.015  1.00  0.00    -0.326 N 
HETATM   11  C9  UNL     1      21.265   2.665  50.043  1.00  0.00     0.245 C 
HETATM   12  O2  UNL     1      20.219   3.366  49.890  1.00  0.00    -0.268 OA
HETATM   13  H9  UNL     1      23.099   2.214  49.170  1.00  0.00     0.169 HD
BRANCH  11  14
HETATM   14  C8  UNL     1      21.423   1.794  51.198  1.00  0.00     0.075 C 
HETATM   15  C7  UNL     1      22.453   1.157  51.678  1.00  0.00     0.017 C 
BRANCH  15  16
HETATM   16  C6  UNL     1      22.555   0.293  52.845  1.00  0.00    -0.033 A 
HETATM   17  C5  UNL     1      21.437  -0.240  53.446  1.00  0.00     0.011 A 
HETATM   18  C4  UNL     1      21.532  -1.053  54.543  1.00  0.00     0.004 A 
HETATM   19  C3  UNL     1      22.797  -1.329  55.040  1.00  0.00     0.037 A 
HETATM   20  C2  UNL     1      23.920  -0.788  54.428  1.00  0.00     0.069 A 
HETATM   21  C22 UNL     1      23.812   0.018  53.338  1.00  0.00     0.048 A 
BRANCH  20  22
HETATM   22  O1  UNL     1      25.200  -1.046  54.901  1.00  0.00    -0.356 OA
HETATM   23  C1  UNL     1      26.201  -0.032  54.984  1.00  0.00     0.210 C 
ENDBRANCH  20  22
ENDBRANCH  15  16
ENDBRANCH  11  14
ENDBRANCH   1  10
BRANCH   8  24
HETATM   24  N4  UNL     1      23.372   5.575  49.203  1.00  0.00    -0.340 N 
HETATM   25  C16 UNL     1      24.540   4.754  49.143  1.00  0.00     0.111 A 
HETATM   26  C17 UNL     1      24.969   4.333  50.339  1.00  0.00     0.026 A 
HETATM   27 BR1  UNL     1      26.522   3.232  50.381  1.00  0.00    -0.050 Br
HETATM   28  C18 UNL     1      24.317   4.657  51.599  1.00  0.00     0.018 A 
HETATM   29  C19 UNL     1      23.221   5.420  51.576  1.00  0.00    -0.005 A 
HETATM   30  C20 UNL     1      22.596   5.979  50.332  1.00  0.00     0.157 A 
ENDBRANCH   8  24
TORSDOF 5
ENDMDL
MODEL 7
REMARK VINA RESULT:      -7.1      5.938     11.284
REMARK  5 active torsions:
REMARK  status: ('A' for Active; 'I' for Inactive)
REMARK    1  A    between atoms: O1_2  and  C2_3 
REMARK    2  A    between atoms: C6_7  and  C7_8 
REMARK    3  A    between atoms: C8_9  and  C9_10 
REMARK       I    between atoms: C9_10  and  N1_12 
REMARK    4  A    between atoms: N1_12  and  C10_13 
REMARK    5  A    between atoms: C15_20  and  N4_21 
ROOT
HETATM    1  C10 UNL     1      32.260   7.628  47.816  1.00  0.00     0.029 A 
HETATM    2  C11 UNL     1      33.079   7.513  48.886  1.00  0.00     0.028 A 
HETATM    3  C12 UNL     1      34.410   8.064  48.564  1.00  0.00     0.030 A 
HETATM    4  C13 UNL     1      34.338   8.490  47.313  1.00  0.00     0.053 A 
HETATM    5  N2  UNL     1      35.247   9.125  46.398  1.00  0.00    -0.245 NA
HETATM    6  C14 UNL     1      34.738   9.797  45.383  1.00  0.00     0.235 C 
HETATM    7  N3  UNL     1      33.356   9.838  45.239  1.00  0.00    -0.227 NA
HETATM    8  C15 UNL     1      32.422   9.298  45.924  1.00  0.00     0.123 C 
HETATM    9  C21 UNL     1      33.023   8.238  46.717  1.00  0.00     0.157 A 
ENDROOT
BRANCH   1  10
HETATM   10  N1  UNL     1      30.978   7.078  48.193  1.00  0.00    -0.326 N 
HETATM   11  C9  UNL     1      30.518   5.783  47.847  1.00  0.00     0.245 C 
HETATM   12  O2  UNL     1      31.332   5.097  47.155  1.00  0.00    -0.268 OA
HETATM   13  H9  UNL     1      30.274   7.631  48.769  1.00  0.00     0.169 HD
BRANCH  11  14
HETATM   14  C8  UNL     1      29.223   5.243  48.233  1.00  0.00     0.075 C 
HETATM   15  C7  UNL     1      28.068   5.808  48.442  1.00  0.00     0.017 C 
BRANCH  15  16
HETATM   16  C6  UNL     1      26.796   5.216  48.830  1.00  0.00    -0.033 A 
HETATM   17  C5  UNL     1      26.722   3.940  49.344  1.00  0.00     0.011 A 
HETATM   18  C4  UNL     1      25.527   3.383  49.709  1.00  0.00     0.004 A 
HETATM   19  C3  UNL     1      24.378   4.143  49.546  1.00  0.00     0.037 A 
HETATM   20  C2  UNL     1      24.460   5.429  49.027  1.00  0.00     0.069 A 
HETATM   21  C22 UNL     1      25.655   5.971  48.668  1.00  0.00     0.048 A 
BRANCH  20  22
HETATM   22  O1  UNL     1      23.330   6.216  48.852  1.00  0.00    -0.356 OA
HETATM   23  C1  UNL     1      22.008   5.691  48.975  1.00  0.00     0.210 C 
ENDBRANCH  20  22
ENDBRANCH  15  16
ENDBRANCH  11  14
ENDBRANCH   1  10
BRANCH   8  24
HETATM   24  N4  UNL     1      31.012   9.168  46.044  1.00  0.00    -0.340 N 
HETATM   25  C16 UNL     1      30.391  10.002  47.024  1.00  0.00     0.111 A 
HETATM   26  C17 UNL     1      29.060   9.865  47.088  1.00  0.00     0.026 A 
HETATM   27 BR1  UNL     1      28.124  10.931  48.360  1.00  0.00    -0.050 Br
HETATM   28  C18 UNL     1      28.294   8.950  46.256  1.00  0.00     0.018 A 
HETATM   29  C19 UNL     1      28.945   8.192  45.369  1.00  0.00    -0.005 A 
HETATM   30  C20 UNL     1      30.430   8.209  45.161  1.00  0.00     0.157 A 
ENDBRANCH   8  24
TORSDOF 5
ENDMDL
MODEL 8
REMARK VINA RESULT:      -7.1      1.506      2.215
REMARK  5 active torsions:
REMARK  status: ('A' for Active; 'I' for Inactive)
REMARK    1  A    between atoms: O1_2  and  C2_3 
REMARK    2  A    between atoms: C6_7  and  C7_8 
REMARK    3  A    between atoms: C8_9  and  C9_10 
REMARK       I    between atoms: C9_10  and  N1_12 
REMARK    4  A    between atoms: N1_12  and  C10_13 
REMARK    5  A    between atoms: C15_20  and  N4_21 
ROOT
HETATM    1  C10 UNL     1      21.786   1.975  50.973  1.00  0.00     0.029 A 
HETATM    2  C11 UNL     1      22.204   0.854  51.602  1.00  0.00     0.028 A 
HETATM    3  C12 UNL     1      21.042   0.103  52.119  1.00  0.00     0.030 A 
HETATM    4  C13 UNL     1      19.972   0.804  51.781  1.00  0.00     0.053 A 
HETATM    5  N2  UNL     1      18.554   0.650  51.957  1.00  0.00    -0.245 NA
HETATM    6  C14 UNL     1      17.751   1.298  51.134  1.00  0.00     0.235 C 
HETATM    7  N3  UNL     1      18.316   2.112  50.159  1.00  0.00    -0.227 NA
HETATM    8  C15 UNL     1      19.535   2.394  49.900  1.00  0.00     0.123 C 
HETATM    9  C21 UNL     1      20.320   2.038  51.071  1.00  0.00     0.157 A 
ENDROOT
BRANCH   1  10
HETATM   10  N1  UNL     1      22.962   2.662  50.488  1.00  0.00    -0.326 N 
HETATM   11  C9  UNL     1      23.544   3.802  51.095  1.00  0.00     0.245 C 
HETATM   12  O2  UNL     1      22.949   4.209  52.140  1.00  0.00    -0.268 OA
HETATM   13  H9  UNL     1      23.478   2.345  49.612  1.00  0.00     0.169 HD
BRANCH  11  14
HETATM   14  C8  UNL     1      24.729   4.483  50.593  1.00  0.00     0.075 C 
HETATM   15  C7  UNL     1      25.195   4.651  49.389  1.00  0.00     0.017 C 
BRANCH  15  16
HETATM   16  C6  UNL     1      26.393   5.346  48.941  1.00  0.00    -0.033 A 
HETATM   17  C5  UNL     1      27.573   4.672  48.714  1.00  0.00     0.011 A 
HETATM   18  C4  UNL     1      28.700   5.324  48.292  1.00  0.00     0.004 A 
HETATM   19  C3  UNL     1      28.624   6.695  48.097  1.00  0.00     0.037 A 
HETATM   20  C2  UNL     1      27.430   7.367  48.327  1.00  0.00     0.069 A 
HETATM   21  C22 UNL     1      26.317   6.708  48.746  1.00  0.00     0.048 A 
BRANCH  20  22
HETATM   22  O1  UNL     1      27.321   8.739  48.141  1.00  0.00    -0.356 OA
HETATM   23  C1  UNL     1      26.364   9.314  47.252  1.00  0.00     0.210 C 
ENDBRANCH  20  22
ENDBRANCH  15  16
ENDBRANCH  11  14
ENDBRANCH   1  10
BRANCH   8  24
HETATM   24  N4  UNL     1      20.386   3.122  49.025  1.00  0.00    -0.340 N 
HETATM   25  C16 UNL     1      20.553   4.508  49.329  1.00  0.00     0.111 A 
HETATM   26  C17 UNL     1      21.380   5.150  48.494  1.00  0.00     0.026 A 
HETATM   27 BR1  UNL     1      21.680   7.006  48.805  1.00  0.00    -0.050 Br
HETATM   28  C18 UNL     1      22.049   4.521  47.366  1.00  0.00     0.018 A 
HETATM   29  C19 UNL     1      21.835   3.223  47.136  1.00  0.00    -0.005 A 
HETATM   30  C20 UNL     1      20.941   2.347  47.962  1.00  0.00     0.157 A 
ENDBRANCH   8  24
TORSDOF 5
ENDMDL
MODEL 9
REMARK VINA RESULT:      -7.0      5.028     10.308
REMARK  5 active torsions:
REMARK  status: ('A' for Active; 'I' for Inactive)
REMARK    1  A    between atoms: O1_2  and  C2_3 
REMARK    2  A    between atoms: C6_7  and  C7_8 
REMARK    3  A    between atoms: C8_9  and  C9_10 
REMARK       I    between atoms: C9_10  and  N1_12 
REMARK    4  A    between atoms: N1_12  and  C10_13 
REMARK    5  A    between atoms: C15_20  and  N4_21 
ROOT
HETATM    1  C10 UNL     1      30.974   7.601  48.577  1.00  0.00     0.029 A 
HETATM    2  C11 UNL     1      32.045   7.057  49.197  1.00  0.00     0.028 A 
HETATM    3  C12 UNL     1      33.270   7.792  48.826  1.00  0.00     0.030 A 
HETATM    4  C13 UNL     1      32.886   8.749  47.996  1.00  0.00     0.053 A 
HETATM    5  N2  UNL     1      33.549   9.805  47.281  1.00  0.00    -0.245 NA
HETATM    6  C14 UNL     1      32.828  10.836  46.885  1.00  0.00     0.235 C 
HETATM    7  N3  UNL     1      31.465  10.837  47.159  1.00  0.00    -0.227 NA
HETATM    8  C15 UNL     1      30.721   9.971  47.733  1.00  0.00     0.123 C 
HETATM    9  C21 UNL     1      31.445   8.711  47.735  1.00  0.00     0.157 A 
ENDROOT
BRANCH   1  10
HETATM   10  N1  UNL     1      29.810   6.845  48.981  1.00  0.00    -0.326 N 
HETATM   11  C9  UNL     1      29.253   5.763  48.254  1.00  0.00     0.245 C 
HETATM   12  O2  UNL     1      29.859   5.479  47.176  1.00  0.00    -0.268 OA
HETATM   13  H9  UNL     1      29.280   7.064  49.878  1.00  0.00     0.169 HD
BRANCH  11  14
HETATM   14  C8  UNL     1      28.079   5.012  48.675  1.00  0.00     0.075 C 
HETATM   15  C7  UNL     1      26.858   5.377  48.942  1.00  0.00     0.017 C 
BRANCH  15  16
HETATM   16  C6  UNL     1      25.716   4.578  49.362  1.00  0.00    -0.033 A 
HETATM   17  C5  UNL     1      24.443   4.850  48.913  1.00  0.00     0.011 A 
HETATM   18  C4  UNL     1      23.369   4.098  49.307  1.00  0.00     0.004 A 
HETATM   19  C3  UNL     1      23.597   3.044  50.179  1.00  0.00     0.037 A 
HETATM   20  C2  UNL     1      24.884   2.776  50.627  1.00  0.00     0.069 A 
HETATM   21  C22 UNL     1      25.943   3.530  50.228  1.00  0.00     0.048 A 
BRANCH  20  22
HETATM   22  O1  UNL     1      25.146   1.728  51.500  1.00  0.00    -0.356 OA
HETATM   23  C1  UNL     1      26.246   1.750  52.410  1.00  0.00     0.210 C 
ENDBRANCH  20  22
ENDBRANCH  15  16
ENDBRANCH  11  14
ENDBRANCH   1  10
BRANCH   8  24
HETATM   24  N4  UNL     1      29.392   9.696  48.155  1.00  0.00    -0.340 N 
HETATM   25  C16 UNL     1      28.496   9.242  47.138  1.00  0.00     0.111 A 
HETATM   26  C17 UNL     1      27.262   8.973  47.583  1.00  0.00     0.026 A 
HETATM   27 BR1  UNL     1      25.982   8.358  46.314  1.00  0.00    -0.050 Br
HETATM   28  C18 UNL     1      26.842   9.132  48.968  1.00  0.00     0.018 A 
HETATM   29  C19 UNL     1      27.732   9.573  49.861  1.00  0.00    -0.005 A 
HETATM   30  C20 UNL     1      29.155   9.927  49.544  1.00  0.00     0.157 A 
ENDBRANCH   8  24
TORSDOF 5
ENDMDL
