MODEL 1
REMARK VINA RESULT:      -8.7      0.000      0.000
REMARK  6 active torsions:
REMARK  status: ('A' for Active; 'I' for Inactive)
REMARK    1  A    between atoms: C7_7  and  C8_8 
REMARK    2  A    between atoms: C8_8  and  C9_9 
REMARK    3  A    between atoms: C9_9  and  N1_10 
REMARK    4  A    between atoms: N1_10  and  C10_11 
REMARK    5  A    between atoms: C12_15  and  N4_16 
REMARK    6  A    between atoms: N4_16  and  C13_17 
ROOT
HETATM    1  C10 UNL     1      23.673   3.963  51.815  1.00  0.00     0.118 C 
HETATM    2  N2  UNL     1      22.540   3.141  51.672  1.00  0.00    -0.240 NA
HETATM    3  C11 UNL     1      22.962   2.055  52.725  1.00  0.00     0.173 A 
HETATM    4  N3  UNL     1      23.889   1.095  53.194  1.00  0.00    -0.239 NA
HETATM    5  C12 UNL     1      25.209   1.902  52.947  1.00  0.00     0.123 A 
HETATM    6  C18 UNL     1      24.524   2.870  52.449  1.00  0.00     0.131 A 
HETATM    7  C19 UNL     1      23.814   1.755  51.563  1.00  0.00     0.089 A 
ENDROOT
BRANCH   1   8
HETATM    8  N1  UNL     1      24.470   5.201  51.744  1.00  0.00    -0.377 N 
HETATM    9  H12 UNL     1      25.234   5.463  52.398  1.00  0.00     0.160 HD
BRANCH   8  10
HETATM   10  C9  UNL     1      23.858   5.847  50.568  1.00  0.00     0.125 C 
BRANCH  10  11
HETATM   11  C8  UNL     1      24.324   5.035  49.391  1.00  0.00     0.058 C 
BRANCH  11  12
HETATM   12  C7  UNL     1      25.663   5.456  48.952  1.00  0.00    -0.051 A 
HETATM   13  C2  UNL     1      26.712   4.585  49.018  1.00  0.00    -0.056 A 
HETATM   14  C1  UNL     1      26.621   3.207  49.511  1.00  0.00     0.049 C 
HETATM   15  C3  UNL     1      27.969   5.013  48.593  1.00  0.00     0.007 A 
HETATM   16  C4  UNL     1      28.096   6.300  48.123  1.00  0.00     0.001 A 
HETATM   17  C5  UNL     1      27.057   7.209  48.043  1.00  0.00     0.001 A 
HETATM   18  C6  UNL     1      25.814   6.737  48.479  1.00  0.00     0.007 A 
ENDBRANCH  11  12
ENDBRANCH  10  11
ENDBRANCH   8  10
ENDBRANCH   1   8
BRANCH   5  19
HETATM   19  N4  UNL     1      26.631   2.357  52.917  1.00  0.00    -0.341 N 
HETATM   20  H13 UNL     1      27.080   3.230  52.605  1.00  0.00     0.167 HD
BRANCH  19  21
HETATM   21  C13 UNL     1      27.604   1.401  53.388  1.00  0.00     0.070 A 
HETATM   22  C14 UNL     1      28.647   1.292  54.220  1.00  0.00     0.011 A 
HETATM   23  C15 UNL     1      29.220  -0.097  54.203  1.00  0.00     0.084 A 
HETATM   24  C16 UNL     1      28.343  -0.760  53.229  1.00  0.00     0.056 A 
HETATM   25 CL1  UNL     1      28.771  -2.434  52.983  1.00  0.00    -0.085 Cl
HETATM   26  C17 UNL     1      27.433   0.088  52.771  1.00  0.00     0.160 A 
HETATM   27  F1  UNL     1      26.599  -0.485  51.867  1.00  0.00    -0.202 F 
ENDBRANCH  19  21
ENDBRANCH   5  19
TORSDOF 6
ENDMDL
MODEL 2
REMARK VINA RESULT:      -8.5      1.449      1.873
REMARK  6 active torsions:
REMARK  status: ('A' for Active; 'I' for Inactive)
REMARK    1  A    between atoms: C7_7  and  C8_8 
REMARK    2  A    between atoms: C8_8  and  C9_9 
REMARK    3  A    between atoms: C9_9  and  N1_10 
REMARK    4  A    between atoms: N1_10  and  C10_11 
REMARK    5  A    between atoms: C12_15  and  N4_16 
REMARK    6  A    between atoms: N4_16  and  C13_17 
ROOT
HETATM    1  C10 UNL     1      23.370   5.601  51.553  1.00  0.00     0.118 C 
HETATM    2  N2  UNL     1      22.084   5.183  51.166  1.00  0.00    -0.240 NA
HETATM    3  C11 UNL     1      21.982   3.959  52.145  1.00  0.00     0.173 A 
HETATM    4  N3  UNL     1      22.489   2.732  52.633  1.00  0.00    -0.239 NA
HETATM    5  C12 UNL     1      24.012   3.100  52.660  1.00  0.00     0.123 A 
HETATM    6  C18 UNL     1      23.739   4.261  52.179  1.00  0.00     0.131 A 
HETATM    7  C19 UNL     1      22.885   3.478  51.088  1.00  0.00     0.089 A 
ENDROOT
BRANCH   1   8
HETATM    8  N1  UNL     1      24.501   6.530  51.726  1.00  0.00    -0.377 N 
HETATM    9  H12 UNL     1      25.090   6.609  52.579  1.00  0.00     0.160 HD
BRANCH   8  10
HETATM   10  C9  UNL     1      24.483   7.221  50.423  1.00  0.00     0.125 C 
BRANCH  10  11
HETATM   11  C8  UNL     1      24.708   6.137  49.405  1.00  0.00     0.058 C 
BRANCH  11  12
HETATM   12  C7  UNL     1      26.090   6.163  48.899  1.00  0.00    -0.051 A 
HETATM   13  C2  UNL     1      26.863   5.040  48.961  1.00  0.00    -0.056 A 
HETATM   14  C1  UNL     1      26.423   3.754  49.511  1.00  0.00     0.049 C 
HETATM   15  C3  UNL     1      28.168   5.094  48.472  1.00  0.00     0.007 A 
HETATM   16  C4  UNL     1      28.619   6.284  47.948  1.00  0.00     0.001 A 
HETATM   17  C5  UNL     1      27.865   7.440  47.870  1.00  0.00     0.001 A 
HETATM   18  C6  UNL     1      26.562   7.339  48.371  1.00  0.00     0.007 A 
ENDBRANCH  11  12
ENDBRANCH  10  11
ENDBRANCH   8  10
ENDBRANCH   1   8
BRANCH   5  19
HETATM   19  N4  UNL     1      25.490   3.091  52.877  1.00  0.00    -0.341 N 
HETATM   20  H13 UNL     1      26.174   3.837  53.065  1.00  0.00     0.167 HD
BRANCH  19  21
HETATM   21  C13 UNL     1      26.126   1.799  52.788  1.00  0.00     0.070 A 
HETATM   22  C14 UNL     1      25.893   0.541  52.392  1.00  0.00     0.011 A 
HETATM   23  C15 UNL     1      27.094  -0.335  52.610  1.00  0.00     0.084 A 
HETATM   24  C16 UNL     1      28.046   0.619  53.195  1.00  0.00     0.056 A 
HETATM   25 CL1  UNL     1      29.581  -0.122  53.571  1.00  0.00    -0.085 Cl
HETATM   26  C17 UNL     1      27.496   1.822  53.293  1.00  0.00     0.160 A 
HETATM   27  F1  UNL     1      28.344   2.736  53.828  1.00  0.00    -0.202 F 
ENDBRANCH  19  21
ENDBRANCH   5  19
TORSDOF 6
ENDMDL
MODEL 3
REMARK VINA RESULT:      -8.5      2.305      3.668
REMARK  6 active torsions:
REMARK  status: ('A' for Active; 'I' for Inactive)
REMARK    1  A    between atoms: C7_7  and  C8_8 
REMARK    2  A    between atoms: C8_8  and  C9_9 
REMARK    3  A    between atoms: C9_9  and  N1_10 
REMARK    4  A    between atoms: N1_10  and  C10_11 
REMARK    5  A    between atoms: C12_15  and  N4_16 
REMARK    6  A    between atoms: N4_16  and  C13_17 
ROOT
HETATM    1  C10 UNL     1      21.178  -0.030  52.690  1.00  0.00     0.118 C 
HETATM    2  N2  UNL     1      20.291  -0.488  53.681  1.00  0.00    -0.240 NA
HETATM    3  C11 UNL     1      21.325  -0.516  54.862  1.00  0.00     0.173 A 
HETATM    4  N3  UNL     1      22.545  -0.972  55.414  1.00  0.00    -0.239 NA
HETATM    5  C12 UNL     1      23.445  -0.841  54.137  1.00  0.00     0.123 A 
HETATM    6  C18 UNL     1      22.427  -0.441  53.461  1.00  0.00     0.131 A 
HETATM    7  C19 UNL     1      21.676  -1.706  54.069  1.00  0.00     0.089 A 
ENDROOT
BRANCH   1   8
HETATM    8  N1  UNL     1      21.592   0.605  51.426  1.00  0.00    -0.377 N 
HETATM    9  H12 UNL     1      21.428   0.219  50.476  1.00  0.00     0.160 HD
BRANCH   8  10
HETATM   10  C9  UNL     1      22.247   1.824  51.940  1.00  0.00     0.125 C 
BRANCH  10  11
HETATM   11  C8  UNL     1      22.508   2.668  50.723  1.00  0.00     0.058 C 
BRANCH  11  12
HETATM   12  C7  UNL     1      23.950   2.886  50.528  1.00  0.00    -0.051 A 
HETATM   13  C2  UNL     1      24.388   3.773  49.588  1.00  0.00    -0.056 A 
HETATM   14  C1  UNL     1      23.513   4.562  48.715  1.00  0.00     0.049 C 
HETATM   15  C3  UNL     1      25.761   3.960  49.428  1.00  0.00     0.007 A 
HETATM   16  C4  UNL     1      26.615   3.237  50.228  1.00  0.00     0.001 A 
HETATM   17  C5  UNL     1      26.207   2.331  51.190  1.00  0.00     0.001 A 
HETATM   18  C6  UNL     1      24.822   2.176  51.316  1.00  0.00     0.007 A 
ENDBRANCH  11  12
ENDBRANCH  10  11
ENDBRANCH   8  10
ENDBRANCH   1   8
BRANCH   5  19
HETATM   19  N4  UNL     1      24.599  -0.802  53.190  1.00  0.00    -0.341 N 
HETATM   20  H13 UNL     1      24.688  -1.019  52.187  1.00  0.00     0.167 HD
BRANCH  19  21
HETATM   21  C13 UNL     1      25.865  -0.412  53.761  1.00  0.00     0.070 A 
HETATM   22  C14 UNL     1      26.386   0.345  54.734  1.00  0.00     0.011 A 
HETATM   23  C15 UNL     1      27.887   0.270  54.747  1.00  0.00     0.084 A 
HETATM   24  C16 UNL     1      28.139  -0.647  53.626  1.00  0.00     0.056 A 
HETATM   25 CL1  UNL     1      29.842  -0.939  53.379  1.00  0.00    -0.085 Cl
HETATM   26  C17 UNL     1      26.996  -1.029  53.073  1.00  0.00     0.160 A 
HETATM   27  F1  UNL     1      27.183  -1.880  52.033  1.00  0.00    -0.202 F 
ENDBRANCH  19  21
ENDBRANCH   5  19
TORSDOF 6
ENDMDL
MODEL 4
REMARK VINA RESULT:      -8.4      2.937      4.631
REMARK  6 active torsions:
REMARK  status: ('A' for Active; 'I' for Inactive)
REMARK    1  A    between atoms: C7_7  and  C8_8 
REMARK    2  A    between atoms: C8_8  and  C9_9 
REMARK    3  A    between atoms: C9_9  and  N1_10 
REMARK    4  A    between atoms: N1_10  and  C10_11 
REMARK    5  A    between atoms: C12_15  and  N4_16 
REMARK    6  A    between atoms: N4_16  and  C13_17 
ROOT
HETATM    1  C10 UNL     1      26.773   2.174  53.232  1.00  0.00     0.118 C 
HETATM    2  N2  UNL     1      27.748   1.875  54.202  1.00  0.00    -0.240 NA
HETATM    3  C11 UNL     1      27.702   0.313  54.039  1.00  0.00     0.173 A 
HETATM    4  N3  UNL     1      26.978  -0.902  54.055  1.00  0.00    -0.239 NA
HETATM    5  C12 UNL     1      25.685  -0.415  53.314  1.00  0.00     0.123 A 
HETATM    6  C18 UNL     1      26.174   0.772  53.241  1.00  0.00     0.131 A 
HETATM    7  C19 UNL     1      26.476   0.616  54.795  1.00  0.00     0.089 A 
ENDROOT
BRANCH   1   8
HETATM    8  N1  UNL     1      26.046   2.991  52.244  1.00  0.00    -0.377 N 
HETATM    9  H12 UNL     1      25.233   3.605  52.452  1.00  0.00     0.160 HD
BRANCH   8  10
HETATM   10  C9  UNL     1      26.790   2.653  51.016  1.00  0.00     0.125 C 
BRANCH  10  11
HETATM   11  C8  UNL     1      25.873   3.034  49.887  1.00  0.00     0.058 C 
BRANCH  11  12
HETATM   12  C7  UNL     1      26.256   4.331  49.308  1.00  0.00    -0.051 A 
HETATM   13  C2  UNL     1      25.329   5.324  49.179  1.00  0.00    -0.056 A 
HETATM   14  C1  UNL     1      23.923   5.210  49.581  1.00  0.00     0.049 C 
HETATM   15  C3  UNL     1      25.721   6.543  48.627  1.00  0.00     0.007 A 
HETATM   16  C4  UNL     1      27.032   6.690  48.236  1.00  0.00     0.001 A 
HETATM   17  C5  UNL     1      27.998   5.707  48.351  1.00  0.00     0.001 A 
HETATM   18  C6  UNL     1      27.559   4.501  48.910  1.00  0.00     0.007 A 
ENDBRANCH  11  12
ENDBRANCH  10  11
ENDBRANCH   8  10
ENDBRANCH   1   8
BRANCH   5  19
HETATM   19  N4  UNL     1      24.366  -0.351  52.617  1.00  0.00    -0.341 N 
HETATM   20  H13 UNL     1      24.095  -0.117  51.652  1.00  0.00     0.167 HD
BRANCH  19  21
HETATM   21  C13 UNL     1      23.213  -0.646  53.434  1.00  0.00     0.070 A 
HETATM   22  C14 UNL     1      22.877  -1.044  54.667  1.00  0.00     0.011 A 
HETATM   23  C15 UNL     1      21.386  -1.144  54.826  1.00  0.00     0.084 A 
HETATM   24  C16 UNL     1      20.926  -0.743  53.489  1.00  0.00     0.056 A 
HETATM   25 CL1  UNL     1      19.186  -0.763  53.353  1.00  0.00    -0.085 Cl
HETATM   26  C17 UNL     1      21.959  -0.463  52.707  1.00  0.00     0.160 A 
HETATM   27  F1  UNL     1      21.579  -0.086  51.460  1.00  0.00    -0.202 F 
ENDBRANCH  19  21
ENDBRANCH   5  19
TORSDOF 6
ENDMDL
MODEL 5
REMARK VINA RESULT:      -8.3      3.055      7.068
REMARK  6 active torsions:
REMARK  status: ('A' for Active; 'I' for Inactive)
REMARK    1  A    between atoms: C7_7  and  C8_8 
REMARK    2  A    between atoms: C8_8  and  C9_9 
REMARK    3  A    between atoms: C9_9  and  N1_10 
REMARK    4  A    between atoms: N1_10  and  C10_11 
REMARK    5  A    between atoms: C12_15  and  N4_16 
REMARK    6  A    between atoms: N4_16  and  C13_17 
ROOT
HETATM    1  C10 UNL     1      27.376  -0.418  54.136  1.00  0.00     0.118 C 
HETATM    2  N2  UNL     1      28.428  -0.059  54.997  1.00  0.00    -0.240 NA
HETATM    3  C11 UNL     1      28.403   1.482  54.694  1.00  0.00     0.173 A 
HETATM    4  N3  UNL     1      28.481   2.553  53.773  1.00  0.00    -0.239 NA
HETATM    5  C12 UNL     1      27.618   1.935  52.620  1.00  0.00     0.123 A 
HETATM    6  C18 UNL     1      27.471   0.858  53.307  1.00  0.00     0.131 A 
HETATM    7  C19 UNL     1      29.049   0.908  53.503  1.00  0.00     0.089 A 
ENDROOT
BRANCH   1   8
HETATM    8  N1  UNL     1      26.274  -1.242  53.608  1.00  0.00    -0.377 N 
HETATM    9  H12 UNL     1      26.385  -2.148  53.110  1.00  0.00     0.160 HD
BRANCH   8  10
HETATM   10  C9  UNL     1      25.113  -0.414  53.986  1.00  0.00     0.125 C 
BRANCH  10  11
HETATM   11  C8  UNL     1      24.257  -0.356  52.751  1.00  0.00     0.058 C 
BRANCH  11  12
HETATM   12  C7  UNL     1      22.827  -0.394  53.095  1.00  0.00    -0.051 A 
HETATM   13  C2  UNL     1      21.916   0.253  52.311  1.00  0.00    -0.056 A 
HETATM   14  C1  UNL     1      22.249   1.018  51.105  1.00  0.00     0.049 C 
HETATM   15  C3  UNL     1      20.567   0.197  52.662  1.00  0.00     0.007 A 
HETATM   16  C4  UNL     1      20.215  -0.511  53.787  1.00  0.00     0.001 A 
HETATM   17  C5  UNL     1      21.109  -1.177  54.605  1.00  0.00     0.001 A 
HETATM   18  C6  UNL     1      22.450  -1.095  54.215  1.00  0.00     0.007 A 
ENDBRANCH  11  12
ENDBRANCH  10  11
ENDBRANCH   8  10
ENDBRANCH   1   8
BRANCH   5  19
HETATM   19  N4  UNL     1      26.835   1.722  51.366  1.00  0.00    -0.341 N 
HETATM   20  H13 UNL     1      26.709   0.907  50.749  1.00  0.00     0.167 HD
BRANCH  19  21
HETATM   21  C13 UNL     1      26.119   2.874  50.873  1.00  0.00     0.070 A 
HETATM   22  C14 UNL     1      26.117   3.754  49.864  1.00  0.00     0.011 A 
HETATM   23  C15 UNL     1      25.004   4.753  50.007  1.00  0.00     0.084 A 
HETATM   24  C16 UNL     1      24.375   4.306  51.258  1.00  0.00     0.056 A 
HETATM   25 CL1  UNL     1      23.011   5.300  51.706  1.00  0.00    -0.085 Cl
HETATM   26  C17 UNL     1      25.006   3.247  51.743  1.00  0.00     0.160 A 
HETATM   27  F1  UNL     1      24.456   2.800  52.900  1.00  0.00    -0.202 F 
ENDBRANCH  19  21
ENDBRANCH   5  19
TORSDOF 6
ENDMDL
MODEL 6
REMARK VINA RESULT:      -8.2      0.786      1.630
REMARK  6 active torsions:
REMARK  status: ('A' for Active; 'I' for Inactive)
REMARK    1  A    between atoms: C7_7  and  C8_8 
REMARK    2  A    between atoms: C8_8  and  C9_9 
REMARK    3  A    between atoms: C9_9  and  N1_10 
REMARK    4  A    between atoms: N1_10  and  C10_11 
REMARK    5  A    between atoms: C12_15  and  N4_16 
REMARK    6  A    between atoms: N4_16  and  C13_17 
ROOT
HETATM    1  C10 UNL     1      23.901   3.721  51.499  1.00  0.00     0.118 C 
HETATM    2  N2  UNL     1      22.754   2.908  51.497  1.00  0.00    -0.240 NA
HETATM    3  C11 UNL     1      23.151   2.020  52.730  1.00  0.00     0.173 A 
HETATM    4  N3  UNL     1      24.057   1.142  53.369  1.00  0.00    -0.239 NA
HETATM    5  C12 UNL     1      25.394   1.868  52.991  1.00  0.00     0.123 A 
HETATM    6  C18 UNL     1      24.730   2.743  52.324  1.00  0.00     0.131 A 
HETATM    7  C19 UNL     1      24.001   1.502  51.646  1.00  0.00     0.089 A 
ENDROOT
BRANCH   1   8
HETATM    8  N1  UNL     1      24.723   4.912  51.214  1.00  0.00    -0.377 N 
HETATM    9  H12 UNL     1      24.610   5.843  51.661  1.00  0.00     0.160 HD
BRANCH   8  10
HETATM   10  C9  UNL     1      25.634   4.369  50.188  1.00  0.00     0.125 C 
BRANCH  10  11
HETATM   11  C8  UNL     1      25.433   5.247  48.984  1.00  0.00     0.058 C 
BRANCH  11  12
HETATM   12  C7  UNL     1      26.710   5.808  48.517  1.00  0.00    -0.051 A 
HETATM   13  C2  UNL     1      26.758   7.074  48.008  1.00  0.00    -0.056 A 
HETATM   14  C1  UNL     1      25.599   7.963  47.876  1.00  0.00     0.049 C 
HETATM   15  C3  UNL     1      27.983   7.579  47.575  1.00  0.00     0.007 A 
HETATM   16  C4  UNL     1      29.094   6.775  47.682  1.00  0.00     0.001 A 
HETATM   17  C5  UNL     1      29.084   5.489  48.191  1.00  0.00     0.001 A 
HETATM   18  C6  UNL     1      27.834   5.024  48.614  1.00  0.00     0.007 A 
ENDBRANCH  11  12
ENDBRANCH  10  11
ENDBRANCH   8  10
ENDBRANCH   1   8
BRANCH   5  19
HETATM   19  N4  UNL     1      26.825   2.284  52.890  1.00  0.00    -0.341 N 
HETATM   20  H13 UNL     1      27.283   3.128  52.518  1.00  0.00     0.167 HD
BRANCH  19  21
HETATM   21  C13 UNL     1      27.790   1.330  53.379  1.00  0.00     0.070 A 
HETATM   22  C14 UNL     1      28.833   1.228  54.212  1.00  0.00     0.011 A 
HETATM   23  C15 UNL     1      29.395  -0.166  54.223  1.00  0.00     0.084 A 
HETATM   24  C16 UNL     1      28.510  -0.841  53.263  1.00  0.00     0.056 A 
HETATM   25 CL1  UNL     1      28.923  -2.523  53.051  1.00  0.00    -0.085 Cl
HETATM   26  C17 UNL     1      27.606   0.006  52.790  1.00  0.00     0.160 A 
HETATM   27  F1  UNL     1      26.765  -0.578  51.899  1.00  0.00    -0.202 F 
ENDBRANCH  19  21
ENDBRANCH   5  19
TORSDOF 6
ENDMDL
MODEL 7
REMARK VINA RESULT:      -8.1      2.400      5.819
REMARK  6 active torsions:
REMARK  status: ('A' for Active; 'I' for Inactive)
REMARK    1  A    between atoms: C7_7  and  C8_8 
REMARK    2  A    between atoms: C8_8  and  C9_9 
REMARK    3  A    between atoms: C9_9  and  N1_10 
REMARK    4  A    between atoms: N1_10  and  C10_11 
REMARK    5  A    between atoms: C12_15  and  N4_16 
REMARK    6  A    between atoms: N4_16  and  C13_17 
ROOT
HETATM    1  C10 UNL     1      23.657   3.943  50.862  1.00  0.00     0.118 C 
HETATM    2  N2  UNL     1      23.802   4.559  49.605  1.00  0.00    -0.240 NA
HETATM    3  C11 UNL     1      25.080   3.766  49.154  1.00  0.00     0.173 A 
HETATM    4  N3  UNL     1      26.420   3.370  49.374  1.00  0.00    -0.239 NA
HETATM    5  C12 UNL     1      26.330   3.079  50.912  1.00  0.00     0.123 A 
HETATM    6  C18 UNL     1      25.097   3.444  50.908  1.00  0.00     0.131 A 
HETATM    7  C19 UNL     1      25.604   4.736  50.129  1.00  0.00     0.089 A 
ENDROOT
BRANCH   1   8
HETATM    8  N1  UNL     1      22.963   3.494  52.082  1.00  0.00    -0.377 N 
HETATM    9  H12 UNL     1      22.693   4.102  52.880  1.00  0.00     0.160 HD
BRANCH   8  10
HETATM   10  C9  UNL     1      22.823   2.053  51.796  1.00  0.00     0.125 C 
BRANCH  10  11
HETATM   11  C8  UNL     1      23.241   1.362  53.064  1.00  0.00     0.058 C 
BRANCH  11  12
HETATM   12  C7  UNL     1      22.268   0.327  53.450  1.00  0.00    -0.051 A 
HETATM   13  C2  UNL     1      22.660  -0.727  54.223  1.00  0.00    -0.056 A 
HETATM   14  C1  UNL     1      24.022  -0.933  54.725  1.00  0.00     0.049 C 
HETATM   15  C3  UNL     1      21.715  -1.691  54.574  1.00  0.00     0.007 A 
HETATM   16  C4  UNL     1      20.425  -1.535  54.122  1.00  0.00     0.001 A 
HETATM   17  C5  UNL     1      19.993  -0.481  53.338  1.00  0.00     0.001 A 
HETATM   18  C6  UNL     1      20.974   0.462  53.011  1.00  0.00     0.007 A 
ENDBRANCH  11  12
ENDBRANCH  10  11
ENDBRANCH   8  10
ENDBRANCH   1   8
BRANCH   5  19
HETATM   19  N4  UNL     1      26.621   2.656  52.314  1.00  0.00    -0.341 N 
HETATM   20  H13 UNL     1      26.642   3.166  53.208  1.00  0.00     0.167 HD
BRANCH  19  21
HETATM   21  C13 UNL     1      26.971   1.268  52.488  1.00  0.00     0.070 A 
HETATM   22  C14 UNL     1      26.513   0.033  52.245  1.00  0.00     0.011 A 
HETATM   23  C15 UNL     1      27.471  -1.015  52.735  1.00  0.00     0.084 A 
HETATM   24  C16 UNL     1      28.544  -0.185  53.299  1.00  0.00     0.056 A 
HETATM   25 CL1  UNL     1      29.840  -1.143  53.970  1.00  0.00    -0.085 Cl
HETATM   26  C17 UNL     1      28.258   1.102  53.158  1.00  0.00     0.160 A 
HETATM   27  F1  UNL     1      29.226   1.906  53.665  1.00  0.00    -0.202 F 
ENDBRANCH  19  21
ENDBRANCH   5  19
TORSDOF 6
ENDMDL
MODEL 8
REMARK VINA RESULT:      -8.1      3.908      6.788
REMARK  6 active torsions:
REMARK  status: ('A' for Active; 'I' for Inactive)
REMARK    1  A    between atoms: C7_7  and  C8_8 
REMARK    2  A    between atoms: C8_8  and  C9_9 
REMARK    3  A    between atoms: C9_9  and  N1_10 
REMARK    4  A    between atoms: N1_10  and  C10_11 
REMARK    5  A    between atoms: C12_15  and  N4_16 
REMARK    6  A    between atoms: N4_16  and  C13_17 
ROOT
HETATM    1  C10 UNL     1      22.933  -0.367  54.033  1.00  0.00     0.118 C 
HETATM    2  N2  UNL     1      22.403  -1.376  54.857  1.00  0.00    -0.240 NA
HETATM    3  C11 UNL     1      21.011  -1.493  54.140  1.00  0.00     0.173 A 
HETATM    4  N3  UNL     1      19.806  -0.899  53.696  1.00  0.00    -0.239 NA
HETATM    5  C12 UNL     1      20.395   0.444  53.143  1.00  0.00     0.123 A 
HETATM    6  C18 UNL     1      21.571   0.082  53.518  1.00  0.00     0.131 A 
HETATM    7  C19 UNL     1      20.894  -0.249  54.919  1.00  0.00     0.089 A 
ENDROOT
BRANCH   1   8
HETATM    8  N1  UNL     1      23.975   0.451  53.387  1.00  0.00    -0.377 N 
HETATM    9  H12 UNL     1      23.810   1.336  52.868  1.00  0.00     0.160 HD
BRANCH   8  10
HETATM   10  C9  UNL     1      25.175  -0.349  53.697  1.00  0.00     0.125 C 
BRANCH  10  11
HETATM   11  C8  UNL     1      26.119  -0.095  52.554  1.00  0.00     0.058 C 
BRANCH  11  12
HETATM   12  C7  UNL     1      27.512  -0.351  52.950  1.00  0.00    -0.051 A 
HETATM   13  C2  UNL     1      28.319   0.683  53.328  1.00  0.00    -0.056 A 
HETATM   14  C1  UNL     1      27.905   2.089  53.376  1.00  0.00     0.049 C 
HETATM   15  C3  UNL     1      29.635   0.408  53.700  1.00  0.00     0.007 A 
HETATM   16  C4  UNL     1      30.062  -0.899  53.668  1.00  0.00     0.001 A 
HETATM   17  C5  UNL     1      29.274  -1.971  53.290  1.00  0.00     0.001 A 
HETATM   18  C6  UNL     1      27.962  -1.649  52.926  1.00  0.00     0.007 A 
ENDBRANCH  11  12
ENDBRANCH  10  11
ENDBRANCH   8  10
ENDBRANCH   1   8
BRANCH   5  19
HETATM   19  N4  UNL     1      20.574   1.770  52.479  1.00  0.00    -0.341 N 
HETATM   20  H13 UNL     1      20.316   2.729  52.751  1.00  0.00     0.167 HD
BRANCH  19  21
HETATM   21  C13 UNL     1      21.208   1.739  51.183  1.00  0.00     0.070 A 
HETATM   22  C14 UNL     1      21.107   1.158  49.981  1.00  0.00     0.011 A 
HETATM   23  C15 UNL     1      22.184   1.635  49.048  1.00  0.00     0.084 A 
HETATM   24  C16 UNL     1      22.915   2.576  49.908  1.00  0.00     0.056 A 
HETATM   25 CL1  UNL     1      24.266   3.313  49.084  1.00  0.00    -0.085 Cl
HETATM   26  C17 UNL     1      22.361   2.632  51.111  1.00  0.00     0.160 A 
HETATM   27  F1  UNL     1      23.006   3.492  51.938  1.00  0.00    -0.202 F 
ENDBRANCH  19  21
ENDBRANCH   5  19
TORSDOF 6
ENDMDL
MODEL 9
REMARK VINA RESULT:      -8.0      2.129      5.468
REMARK  6 active torsions:
REMARK  status: ('A' for Active; 'I' for Inactive)
REMARK    1  A    between atoms: C7_7  and  C8_8 
REMARK    2  A    between atoms: C8_8  and  C9_9 
REMARK    3  A    between atoms: C9_9  and  N1_10 
REMARK    4  A    between atoms: N1_10  and  C10_11 
REMARK    5  A    between atoms: C12_15  and  N4_16 
REMARK    6  A    between atoms: N4_16  and  C13_17 
ROOT
HETATM    1  C10 UNL     1      23.383   3.453  51.094  1.00  0.00     0.118 C 
HETATM    2  N2  UNL     1      23.584   3.936  49.788  1.00  0.00    -0.240 NA
HETATM    3  C11 UNL     1      24.946   3.199  49.523  1.00  0.00     0.173 A 
HETATM    4  N3  UNL     1      26.288   2.935  49.882  1.00  0.00    -0.239 NA
HETATM    5  C12 UNL     1      26.097   2.810  51.433  1.00  0.00     0.123 A 
HETATM    6  C18 UNL     1      24.846   3.076  51.299  1.00  0.00     0.131 A 
HETATM    7  C19 UNL     1      25.323   4.309  50.414  1.00  0.00     0.089 A 
ENDROOT
BRANCH   1   8
HETATM    8  N1  UNL     1      22.627   3.089  52.306  1.00  0.00    -0.377 N 
HETATM    9  H12 UNL     1      22.926   3.281  53.282  1.00  0.00     0.160 HD
BRANCH   8  10
HETATM   10  C9  UNL     1      21.453   2.431  51.702  1.00  0.00     0.125 C 
BRANCH  10  11
HETATM   11  C8  UNL     1      21.913   1.038  51.374  1.00  0.00     0.058 C 
BRANCH  11  12
HETATM   12  C7  UNL     1      22.077   0.232  52.594  1.00  0.00    -0.051 A 
HETATM   13  C2  UNL     1      20.986  -0.307  53.211  1.00  0.00    -0.056 A 
HETATM   14  C1  UNL     1      19.603  -0.146  52.749  1.00  0.00     0.049 C 
HETATM   15  C3  UNL     1      21.172  -1.068  54.365  1.00  0.00     0.007 A 
HETATM   16  C4  UNL     1      22.455  -1.241  54.830  1.00  0.00     0.001 A 
HETATM   17  C5  UNL     1      23.583  -0.711  54.232  1.00  0.00     0.001 A 
HETATM   18  C6  UNL     1      23.349   0.044  53.078  1.00  0.00     0.007 A 
ENDBRANCH  11  12
ENDBRANCH  10  11
ENDBRANCH   8  10
ENDBRANCH   1   8
BRANCH   5  19
HETATM   19  N4  UNL     1      26.304   2.569  52.892  1.00  0.00    -0.341 N 
HETATM   20  H13 UNL     1      25.761   2.828  53.728  1.00  0.00     0.167 HD
BRANCH  19  21
HETATM   21  C13 UNL     1      27.507   1.854  53.243  1.00  0.00     0.070 A 
HETATM   22  C14 UNL     1      28.726   2.046  53.762  1.00  0.00     0.011 A 
HETATM   23  C15 UNL     1      29.500   0.761  53.840  1.00  0.00     0.084 A 
HETATM   24  C16 UNL     1      28.532  -0.193  53.281  1.00  0.00     0.056 A 
HETATM   25 CL1  UNL     1      29.158  -1.822  53.235  1.00  0.00    -0.085 Cl
HETATM   26  C17 UNL     1      27.410   0.427  52.946  1.00  0.00     0.160 A 
HETATM   27  F1  UNL     1      26.485  -0.419  52.426  1.00  0.00    -0.202 F 
ENDBRANCH  19  21
ENDBRANCH   5  19
TORSDOF 6
ENDMDL
