MODEL 1
REMARK VINA RESULT:      -8.8      0.000      0.000
REMARK  3 active torsions:
REMARK  status: ('A' for Active; 'I' for Inactive)
REMARK       I    between atoms: C1_2  and  N1_3 
REMARK       I    between atoms: C1_2  and  N2_5 
REMARK    1  A    between atoms: N2_5  and  C2_6 
REMARK    2  A    between atoms: C12_17  and  N4_18 
REMARK    3  A    between atoms: N4_18  and  C13_19 
ROOT
HETATM    1  C2  UNL     1      22.176   2.003  51.397  1.00  0.00     0.119 C 
HETATM    2  C3  UNL     1      21.956   1.246  50.087  1.00  0.00     0.056 C 
HETATM    3  C4  UNL     1      20.486   0.879  50.140  1.00  0.00    -0.028 C 
HETATM    4  C5  UNL     1      19.805   0.867  51.285  1.00  0.00    -0.026 C 
HETATM    5  C6  UNL     1      20.358   1.200  52.658  1.00  0.00     0.063 C 
HETATM    6  C7  UNL     1      21.872   1.130  52.553  1.00  0.00    -0.043 C 
HETATM    7  C8  UNL     1      22.360   0.294  53.491  1.00  0.00    -0.007 A 
HETATM    8  C9  UNL     1      21.510  -0.370  54.516  1.00  0.00     0.189 A 
HETATM    9  N3  UNL     1      22.266  -1.186  55.399  1.00  0.00    -0.297 NA
HETATM   10  C10 UNL     1      23.491  -1.438  55.424  1.00  0.00     0.113 A 
HETATM   11  C11 UNL     1      24.369  -0.839  54.427  1.00  0.00     0.049 A 
HETATM   12  C12 UNL     1      23.773  -0.046  53.557  1.00  0.00     0.042 A 
ENDROOT
BRANCH  12  13
HETATM   13  N4  UNL     1      24.745   0.417  52.649  1.00  0.00    -0.356 N 
HETATM   14  H13 UNL     1      24.280   0.555  51.706  1.00  0.00     0.166 HD
BRANCH  13  15
HETATM   15  C13 UNL     1      26.119   0.627  53.007  1.00  0.00     0.033 A 
HETATM   16  C14 UNL     1      26.371   1.967  53.319  1.00  0.00     0.029 A 
HETATM   17  C15 UNL     1      27.633   2.390  53.684  1.00  0.00     0.004 A 
HETATM   18  C16 UNL     1      28.640   1.433  53.730  1.00  0.00     0.019 A 
HETATM   19  C17 UNL     1      28.416   0.107  53.428  1.00  0.00     0.013 A 
HETATM   20 BR1  UNL     1      29.779  -1.224  53.482  1.00  0.00    -0.051 Br
HETATM   21  C18 UNL     1      27.147  -0.272  53.069  1.00  0.00     0.048 A 
ENDBRANCH  13  15
ENDBRANCH  12  13
BRANCH   1  22
HETATM   22  N2  UNL     1      23.355   2.792  51.428  1.00  0.00    -0.332 N 
HETATM   23  C1  UNL     1      23.291   4.192  51.062  1.00  0.00     0.350 C 
HETATM   24  O1  UNL     1      22.181   4.707  50.719  1.00  0.00    -0.244 OA
HETATM   25  N1  UNL     1      24.422   5.091  51.054  1.00  0.00    -0.147 NA
HETATM   26  S1  UNL     1      24.185   6.666  50.999  1.00  0.00     0.074 SA
HETATM   27  H1  UNL     1      24.382   2.648  51.643  1.00  0.00     0.165 HD
ENDBRANCH   1  22
TORSDOF 3
ENDMDL
MODEL 2
REMARK VINA RESULT:      -8.2      3.456      4.764
REMARK  3 active torsions:
REMARK  status: ('A' for Active; 'I' for Inactive)
REMARK       I    between atoms: C1_2  and  N1_3 
REMARK       I    between atoms: C1_2  and  N2_5 
REMARK    1  A    between atoms: N2_5  and  C2_6 
REMARK    2  A    between atoms: C12_17  and  N4_18 
REMARK    3  A    between atoms: N4_18  and  C13_19 
ROOT
HETATM    1  C2  UNL     1      22.327   2.585  50.617  1.00  0.00     0.119 C 
HETATM    2  C3  UNL     1      22.015   1.423  49.673  1.00  0.00     0.056 C 
HETATM    3  C4  UNL     1      21.381   0.393  50.587  1.00  0.00    -0.028 C 
HETATM    4  C5  UNL     1      21.546   0.429  51.908  1.00  0.00    -0.026 C 
HETATM    5  C6  UNL     1      22.354   1.455  52.681  1.00  0.00     0.063 C 
HETATM    6  C7  UNL     1      23.261   2.149  51.679  1.00  0.00    -0.043 C 
HETATM    7  C8  UNL     1      24.542   2.075  52.091  1.00  0.00    -0.007 A 
HETATM    8  C9  UNL     1      24.951   1.473  53.389  1.00  0.00     0.189 A 
HETATM    9  N3  UNL     1      26.354   1.535  53.596  1.00  0.00    -0.297 NA
HETATM   10  C10 UNL     1      27.265   1.982  52.864  1.00  0.00     0.113 A 
HETATM   11  C11 UNL     1      26.928   2.557  51.568  1.00  0.00     0.049 A 
HETATM   12  C12 UNL     1      25.642   2.565  51.272  1.00  0.00     0.042 A 
ENDROOT
BRANCH  12  13
HETATM   13  N4  UNL     1      25.490   3.113  49.984  1.00  0.00    -0.356 N 
HETATM   14  H13 UNL     1      24.971   2.412  49.382  1.00  0.00     0.166 HD
BRANCH  13  15
HETATM   15  C13 UNL     1      25.994   4.406  49.616  1.00  0.00     0.033 A 
HETATM   16  C14 UNL     1      27.179   4.307  48.881  1.00  0.00     0.029 A 
HETATM   17  C15 UNL     1      27.838   5.434  48.432  1.00  0.00     0.004 A 
HETATM   18  C16 UNL     1      27.276   6.668  48.738  1.00  0.00     0.019 A 
HETATM   19  C17 UNL     1      26.109   6.791  49.462  1.00  0.00     0.013 A 
HETATM   20 BR1  UNL     1      25.319   8.470  49.897  1.00  0.00    -0.051 Br
HETATM   21  C18 UNL     1      25.486   5.645  49.890  1.00  0.00     0.048 A 
ENDBRANCH  13  15
ENDBRANCH  12  13
BRANCH   1  22
HETATM   22  N2  UNL     1      22.564   3.823  49.965  1.00  0.00    -0.332 N 
HETATM   23  C1  UNL     1      21.797   4.991  50.344  1.00  0.00     0.350 C 
HETATM   24  O1  UNL     1      20.918   4.903  51.259  1.00  0.00    -0.244 OA
HETATM   25  N1  UNL     1      21.948   6.300  49.752  1.00  0.00    -0.147 NA
HETATM   26  S1  UNL     1      21.333   7.578  50.480  1.00  0.00     0.074 SA
HETATM   27  H1  UNL     1      23.186   4.187  49.189  1.00  0.00     0.165 HD
ENDBRANCH   1  22
TORSDOF 3
ENDMDL
MODEL 3
REMARK VINA RESULT:      -7.9      4.011      6.066
REMARK  3 active torsions:
REMARK  status: ('A' for Active; 'I' for Inactive)
REMARK       I    between atoms: C1_2  and  N1_3 
REMARK       I    between atoms: C1_2  and  N2_5 
REMARK    1  A    between atoms: N2_5  and  C2_6 
REMARK    2  A    between atoms: C12_17  and  N4_18 
REMARK    3  A    between atoms: N4_18  and  C13_19 
ROOT
HETATM    1  C2  UNL     1      23.154   1.172  51.810  1.00  0.00     0.119 C 
HETATM    2  C3  UNL     1      22.461   1.816  53.012  1.00  0.00     0.056 C 
HETATM    3  C4  UNL     1      21.151   1.059  53.106  1.00  0.00    -0.028 C 
HETATM    4  C5  UNL     1      20.661   0.373  52.076  1.00  0.00    -0.026 C 
HETATM    5  C6  UNL     1      21.297   0.240  50.705  1.00  0.00     0.063 C 
HETATM    6  C7  UNL     1      22.334   1.344  50.590  1.00  0.00    -0.043 C 
HETATM    7  C8  UNL     1      22.106   2.076  49.481  1.00  0.00    -0.007 A 
HETATM    8  C9  UNL     1      21.039   1.755  48.495  1.00  0.00     0.189 A 
HETATM    9  N3  UNL     1      21.018   2.667  47.406  1.00  0.00    -0.297 NA
HETATM   10  C10 UNL     1      21.722   3.676  47.177  1.00  0.00     0.113 A 
HETATM   11  C11 UNL     1      22.763   4.056  48.123  1.00  0.00     0.049 A 
HETATM   12  C12 UNL     1      22.884   3.267  49.174  1.00  0.00     0.042 A 
ENDROOT
BRANCH  12  13
HETATM   13  N4  UNL     1      23.898   3.789  50.000  1.00  0.00    -0.356 N 
HETATM   14  H13 UNL     1      23.675   3.532  51.004  1.00  0.00     0.166 HD
BRANCH  13  15
HETATM   15  C13 UNL     1      25.010   4.546  49.497  1.00  0.00     0.033 A 
HETATM   16  C14 UNL     1      26.168   3.768  49.414  1.00  0.00     0.029 A 
HETATM   17  C15 UNL     1      27.358   4.302  48.962  1.00  0.00     0.004 A 
HETATM   18  C16 UNL     1      27.356   5.641  48.591  1.00  0.00     0.019 A 
HETATM   19  C17 UNL     1      26.227   6.429  48.663  1.00  0.00     0.013 A 
HETATM   20 BR1  UNL     1      26.199   8.268  48.162  1.00  0.00    -0.051 Br
HETATM   21  C18 UNL     1      25.065   5.858  49.119  1.00  0.00     0.048 A 
ENDBRANCH  13  15
ENDBRANCH  12  13
BRANCH   1  22
HETATM   22  N2  UNL     1      24.549   1.417  51.736  1.00  0.00    -0.332 N 
HETATM   23  C1  UNL     1      25.466   0.572  52.473  1.00  0.00     0.350 C 
HETATM   24  O1  UNL     1      25.018  -0.385  53.179  1.00  0.00    -0.244 OA
HETATM   25  N1  UNL     1      26.902   0.727  52.476  1.00  0.00    -0.147 NA
HETATM   26  S1  UNL     1      27.828  -0.458  53.007  1.00  0.00     0.074 SA
HETATM   27  H1  UNL     1      25.192   2.118  51.270  1.00  0.00     0.165 HD
ENDBRANCH   1  22
TORSDOF 3
ENDMDL
MODEL 4
REMARK VINA RESULT:      -7.8      3.099      5.559
REMARK  3 active torsions:
REMARK  status: ('A' for Active; 'I' for Inactive)
REMARK       I    between atoms: C1_2  and  N1_3 
REMARK       I    between atoms: C1_2  and  N2_5 
REMARK    1  A    between atoms: N2_5  and  C2_6 
REMARK    2  A    between atoms: C12_17  and  N4_18 
REMARK    3  A    between atoms: N4_18  and  C13_19 
ROOT
HETATM    1  C2  UNL     1      25.313   1.543  52.504  1.00  0.00     0.119 C 
HETATM    2  C3  UNL     1      25.896   2.158  53.777  1.00  0.00     0.056 C 
HETATM    3  C4  UNL     1      26.484   0.965  54.503  1.00  0.00    -0.028 C 
HETATM    4  C5  UNL     1      26.108  -0.282  54.225  1.00  0.00    -0.026 C 
HETATM    5  C6  UNL     1      25.080  -0.697  53.189  1.00  0.00     0.063 C 
HETATM    6  C7  UNL     1      24.275   0.545  52.844  1.00  0.00    -0.043 C 
HETATM    7  C8  UNL     1      22.960   0.301  53.013  1.00  0.00    -0.007 A 
HETATM    8  C9  UNL     1      22.417  -1.032  53.392  1.00  0.00     0.189 A 
HETATM    9  N3  UNL     1      21.000  -1.031  53.487  1.00  0.00    -0.297 NA
HETATM   10  C10 UNL     1      20.175  -0.104  53.328  1.00  0.00     0.113 A 
HETATM   11  C11 UNL     1      20.650   1.230  52.983  1.00  0.00     0.049 A 
HETATM   12  C12 UNL     1      21.959   1.346  52.856  1.00  0.00     0.042 A 
ENDROOT
BRANCH  12  13
HETATM   13  N4  UNL     1      22.253   2.691  52.561  1.00  0.00    -0.356 N 
HETATM   14  H13 UNL     1      22.781   3.104  53.383  1.00  0.00     0.166 HD
BRANCH  13  15
HETATM   15  C13 UNL     1      21.860   3.333  51.339  1.00  0.00     0.033 A 
HETATM   16  C14 UNL     1      21.184   4.532  51.581  1.00  0.00     0.029 A 
HETATM   17  C15 UNL     1      20.710   5.308  50.542  1.00  0.00     0.004 A 
HETATM   18  C16 UNL     1      20.933   4.850  49.249  1.00  0.00     0.019 A 
HETATM   19  C17 UNL     1      21.597   3.671  48.985  1.00  0.00     0.013 A 
HETATM   20 BR1  UNL     1      21.914   3.020  47.222  1.00  0.00    -0.051 Br
HETATM   21  C18 UNL     1      22.051   2.930  50.047  1.00  0.00     0.048 A 
ENDBRANCH  13  15
ENDBRANCH  12  13
BRANCH   1  22
HETATM   22  N2  UNL     1      25.051   2.476  51.468  1.00  0.00    -0.332 N 
HETATM   23  C1  UNL     1      26.151   3.167  50.829  1.00  0.00     0.350 C 
HETATM   24  O1  UNL     1      27.345   2.933  51.196  1.00  0.00    -0.244 OA
HETATM   25  N1  UNL     1      26.007   4.136  49.768  1.00  0.00    -0.147 NA
HETATM   26  S1  UNL     1      27.273   4.553  48.894  1.00  0.00     0.074 SA
HETATM   27  H1  UNL     1      24.201   2.878  50.980  1.00  0.00     0.165 HD
ENDBRANCH   1  22
TORSDOF 3
ENDMDL
MODEL 5
REMARK VINA RESULT:      -7.5      3.507      4.661
REMARK  3 active torsions:
REMARK  status: ('A' for Active; 'I' for Inactive)
REMARK       I    between atoms: C1_2  and  N1_3 
REMARK       I    between atoms: C1_2  and  N2_5 
REMARK    1  A    between atoms: N2_5  and  C2_6 
REMARK    2  A    between atoms: C12_17  and  N4_18 
REMARK    3  A    between atoms: N4_18  and  C13_19 
ROOT
HETATM    1  C2  UNL     1      21.946   3.705  49.536  1.00  0.00     0.119 C 
HETATM    2  C3  UNL     1      22.720   3.645  48.218  1.00  0.00     0.056 C 
HETATM    3  C4  UNL     1      22.296   2.316  47.625  1.00  0.00    -0.028 C 
HETATM    4  C5  UNL     1      21.762   1.352  48.372  1.00  0.00    -0.026 C 
HETATM    5  C6  UNL     1      21.501   1.418  49.865  1.00  0.00     0.063 C 
HETATM    6  C7  UNL     1      22.327   2.572  50.407  1.00  0.00    -0.043 C 
HETATM    7  C8  UNL     1      23.108   2.143  51.419  1.00  0.00    -0.007 A 
HETATM    8  C9  UNL     1      23.065   0.754  51.953  1.00  0.00     0.189 A 
HETATM    9  N3  UNL     1      23.972   0.561  53.029  1.00  0.00    -0.297 NA
HETATM   10  C10 UNL     1      24.786   1.350  53.557  1.00  0.00     0.113 A 
HETATM   11  C11 UNL     1      24.892   2.715  53.058  1.00  0.00     0.049 A 
HETATM   12  C12 UNL     1      24.083   3.013  52.059  1.00  0.00     0.042 A 
ENDROOT
BRANCH  12  13
HETATM   13  N4  UNL     1      24.335   4.344  51.672  1.00  0.00    -0.356 N 
HETATM   14  H13 UNL     1      23.732   4.983  52.266  1.00  0.00     0.166 HD
BRANCH  13  15
HETATM   15  C13 UNL     1      25.256   4.698  50.629  1.00  0.00     0.033 A 
HETATM   16  C14 UNL     1      26.040   3.608  50.241  1.00  0.00     0.029 A 
HETATM   17  C15 UNL     1      26.997   3.731  49.255  1.00  0.00     0.004 A 
HETATM   18  C16 UNL     1      27.150   4.980  48.665  1.00  0.00     0.019 A 
HETATM   19  C17 UNL     1      26.389   6.070  49.030  1.00  0.00     0.013 A 
HETATM   20 BR1  UNL     1      26.580   7.793  48.239  1.00  0.00    -0.051 Br
HETATM   21  C18 UNL     1      25.449   5.904  50.015  1.00  0.00     0.048 A 
ENDBRANCH  13  15
ENDBRANCH  12  13
BRANCH   1  22
HETATM   22  N2  UNL     1      21.851   5.002  50.103  1.00  0.00    -0.332 N 
HETATM   23  C1  UNL     1      20.991   5.993  49.489  1.00  0.00     0.350 C 
HETATM   24  O1  UNL     1      20.324   5.695  48.448  1.00  0.00    -0.244 OA
HETATM   25  N1  UNL     1      20.817   7.342  49.974  1.00  0.00    -0.147 NA
HETATM   26  S1  UNL     1      19.589   8.220  49.459  1.00  0.00     0.074 SA
HETATM   27  H1  UNL     1      22.280   5.528  50.916  1.00  0.00     0.165 HD
ENDBRANCH   1  22
TORSDOF 3
ENDMDL
MODEL 6
REMARK VINA RESULT:      -7.2      3.085      4.492
REMARK  3 active torsions:
REMARK  status: ('A' for Active; 'I' for Inactive)
REMARK       I    between atoms: C1_2  and  N1_3 
REMARK       I    between atoms: C1_2  and  N2_5 
REMARK    1  A    between atoms: N2_5  and  C2_6 
REMARK    2  A    between atoms: C12_17  and  N4_18 
REMARK    3  A    between atoms: N4_18  and  C13_19 
ROOT
HETATM    1  C2  UNL     1      22.234   0.579  53.156  1.00  0.00     0.119 C 
HETATM    2  C3  UNL     1      21.674  -0.598  52.356  1.00  0.00     0.056 C 
HETATM    3  C4  UNL     1      21.500  -1.680  53.404  1.00  0.00    -0.028 C 
HETATM    4  C5  UNL     1      22.143  -1.639  54.569  1.00  0.00    -0.026 C 
HETATM    5  C6  UNL     1      23.108  -0.559  55.021  1.00  0.00     0.063 C 
HETATM    6  C7  UNL     1      23.524   0.209  53.778  1.00  0.00    -0.043 C 
HETATM    7  C8  UNL     1      24.869   0.232  53.681  1.00  0.00    -0.007 A 
HETATM    8  C9  UNL     1      25.773  -0.344  54.713  1.00  0.00     0.189 A 
HETATM    9  N3  UNL     1      27.145  -0.174  54.384  1.00  0.00    -0.297 NA
HETATM   10  C10 UNL     1      27.682   0.346  53.382  1.00  0.00     0.113 A 
HETATM   11  C11 UNL     1      26.846   0.902  52.326  1.00  0.00     0.049 A 
HETATM   12  C12 UNL     1      25.546   0.811  52.530  1.00  0.00     0.042 A 
ENDROOT
BRANCH  12  13
HETATM   13  N4  UNL     1      24.886   1.355  51.411  1.00  0.00    -0.356 N 
HETATM   14  H13 UNL     1      24.199   0.634  51.047  1.00  0.00     0.166 HD
BRANCH  13  15
HETATM   15  C13 UNL     1      25.162   2.666  50.896  1.00  0.00     0.033 A 
HETATM   16  C14 UNL     1      26.237   2.654  50.002  1.00  0.00     0.029 A 
HETATM   17  C15 UNL     1      26.675   3.813  49.394  1.00  0.00     0.004 A 
HETATM   18  C16 UNL     1      26.005   4.990  49.705  1.00  0.00     0.019 A 
HETATM   19  C17 UNL     1      24.943   5.028  50.584  1.00  0.00     0.013 A 
HETATM   20 BR1  UNL     1      24.009   6.629  51.029  1.00  0.00    -0.051 Br
HETATM   21  C18 UNL     1      24.540   3.853  51.166  1.00  0.00     0.048 A 
ENDBRANCH  13  15
ENDBRANCH  12  13
BRANCH   1  22
HETATM   22  N2  UNL     1      22.123   1.836  52.506  1.00  0.00    -0.332 N 
HETATM   23  C1  UNL     1      20.831   2.288  52.034  1.00  0.00     0.350 C 
HETATM   24  O1  UNL     1      19.803   1.559  52.206  1.00  0.00    -0.244 OA
HETATM   25  N1  UNL     1      20.597   3.543  51.360  1.00  0.00    -0.147 NA
HETATM   26  S1  UNL     1      19.111   4.104  51.217  1.00  0.00     0.074 SA
HETATM   27  H1  UNL     1      22.772   2.619  52.214  1.00  0.00     0.165 HD
ENDBRANCH   1  22
TORSDOF 3
ENDMDL
MODEL 7
REMARK VINA RESULT:      -7.2      3.916      5.882
REMARK  3 active torsions:
REMARK  status: ('A' for Active; 'I' for Inactive)
REMARK       I    between atoms: C1_2  and  N1_3 
REMARK       I    between atoms: C1_2  and  N2_5 
REMARK    1  A    between atoms: N2_5  and  C2_6 
REMARK    2  A    between atoms: C12_17  and  N4_18 
REMARK    3  A    between atoms: N4_18  and  C13_19 
ROOT
HETATM    1  C2  UNL     1      20.472   2.918  50.151  1.00  0.00     0.119 C 
HETATM    2  C3  UNL     1      20.812   3.588  48.819  1.00  0.00     0.056 C 
HETATM    3  C4  UNL     1      21.224   2.425  47.939  1.00  0.00    -0.028 C 
HETATM    4  C5  UNL     1      21.596   1.254  48.451  1.00  0.00    -0.026 C 
HETATM    5  C6  UNL     1      21.668   0.904  49.926  1.00  0.00     0.063 C 
HETATM    6  C7  UNL     1      21.657   2.217  50.691  1.00  0.00    -0.043 C 
HETATM    7  C8  UNL     1      22.719   2.274  51.520  1.00  0.00    -0.007 A 
HETATM    8  C9  UNL     1      23.683   1.154  51.693  1.00  0.00     0.189 A 
HETATM    9  N3  UNL     1      24.701   1.458  52.636  1.00  0.00    -0.297 NA
HETATM   10  C10 UNL     1      24.911   2.499  53.298  1.00  0.00     0.113 A 
HETATM   11  C11 UNL     1      24.016   3.639  53.148  1.00  0.00     0.049 A 
HETATM   12  C12 UNL     1      23.019   3.465  52.301  1.00  0.00     0.042 A 
ENDROOT
BRANCH  12  13
HETATM   13  N4  UNL     1      22.278   4.661  52.244  1.00  0.00    -0.356 N 
HETATM   14  H13 UNL     1      21.401   4.538  52.828  1.00  0.00     0.166 HD
BRANCH  13  15
HETATM   15  C13 UNL     1      22.694   5.808  51.488  1.00  0.00     0.033 A 
HETATM   16  C14 UNL     1      21.600   6.547  51.027  1.00  0.00     0.029 A 
HETATM   17  C15 UNL     1      21.775   7.688  50.272  1.00  0.00     0.004 A 
HETATM   18  C16 UNL     1      23.081   8.074  49.989  1.00  0.00     0.019 A 
HETATM   19  C17 UNL     1      24.176   7.363  50.433  1.00  0.00     0.013 A 
HETATM   20 BR1  UNL     1      25.974   7.868  50.058  1.00  0.00    -0.051 Br
HETATM   21  C18 UNL     1      23.956   6.233  51.181  1.00  0.00     0.048 A 
ENDBRANCH  13  15
ENDBRANCH  12  13
BRANCH   1  22
HETATM   22  N2  UNL     1      19.691   3.716  51.027  1.00  0.00    -0.332 N 
HETATM   23  C1  UNL     1      18.255   3.538  51.071  1.00  0.00     0.350 C 
HETATM   24  O1  UNL     1      17.701   2.668  50.328  1.00  0.00    -0.244 OA
HETATM   25  N1  UNL     1      17.360   4.291  51.919  1.00  0.00    -0.147 NA
HETATM   26  S1  UNL     1      15.872   3.774  52.162  1.00  0.00     0.074 SA
HETATM   27  H1  UNL     1      19.857   4.500  51.719  1.00  0.00     0.165 HD
ENDBRANCH   1  22
TORSDOF 3
ENDMDL
MODEL 8
REMARK VINA RESULT:      -7.2      3.150      5.735
REMARK  3 active torsions:
REMARK  status: ('A' for Active; 'I' for Inactive)
REMARK       I    between atoms: C1_2  and  N1_3 
REMARK       I    between atoms: C1_2  and  N2_5 
REMARK    1  A    between atoms: N2_5  and  C2_6 
REMARK    2  A    between atoms: C12_17  and  N4_18 
REMARK    3  A    between atoms: N4_18  and  C13_19 
ROOT
HETATM    1  C2  UNL     1      24.360   3.995  49.400  1.00  0.00     0.119 C 
HETATM    2  C3  UNL     1      24.353   5.516  49.565  1.00  0.00     0.056 C 
HETATM    3  C4  UNL     1      25.719   5.928  49.053  1.00  0.00    -0.028 C 
HETATM    4  C5  UNL     1      26.726   5.062  48.961  1.00  0.00    -0.026 C 
HETATM    5  C6  UNL     1      26.678   3.591  49.333  1.00  0.00     0.063 C 
HETATM    6  C7  UNL     1      25.449   3.396  50.204  1.00  0.00    -0.043 C 
HETATM    7  C8  UNL     1      25.798   2.810  51.367  1.00  0.00    -0.007 A 
HETATM    8  C9  UNL     1      27.182   2.354  51.670  1.00  0.00     0.189 A 
HETATM    9  N3  UNL     1      27.284   1.752  52.952  1.00  0.00    -0.297 NA
HETATM   10  C10 UNL     1      26.419   1.577  53.839  1.00  0.00     0.113 A 
HETATM   11  C11 UNL     1      25.053   2.029  53.610  1.00  0.00     0.049 A 
HETATM   12  C12 UNL     1      24.836   2.597  52.439  1.00  0.00     0.042 A 
ENDROOT
BRANCH  12  13
HETATM   13  N4  UNL     1      23.490   3.006  52.391  1.00  0.00    -0.356 N 
HETATM   14  H13 UNL     1      23.465   4.042  52.166  1.00  0.00     0.166 HD
BRANCH  13  15
HETATM   15  C13 UNL     1      22.389   2.118  52.634  1.00  0.00     0.033 A 
HETATM   16  C14 UNL     1      21.180   2.661  52.190  1.00  0.00     0.029 A 
HETATM   17  C15 UNL     1      19.992   1.974  52.332  1.00  0.00     0.004 A 
HETATM   18  C16 UNL     1      20.046   0.722  52.933  1.00  0.00     0.019 A 
HETATM   19  C17 UNL     1      21.226   0.164  53.379  1.00  0.00     0.013 A 
HETATM   20 BR1  UNL     1      21.327  -1.549  54.208  1.00  0.00    -0.051 Br
HETATM   21  C18 UNL     1      22.384   0.882  53.218  1.00  0.00     0.048 A 
ENDBRANCH  13  15
ENDBRANCH  12  13
BRANCH   1  22
HETATM   22  N2  UNL     1      23.075   3.395  49.434  1.00  0.00    -0.332 N 
HETATM   23  C1  UNL     1      22.117   3.690  48.389  1.00  0.00     0.350 C 
HETATM   24  O1  UNL     1      22.432   4.482  47.446  1.00  0.00    -0.244 OA
HETATM   25  N1  UNL     1      20.783   3.142  48.320  1.00  0.00    -0.147 NA
HETATM   26  S1  UNL     1      19.955   3.233  46.961  1.00  0.00     0.074 SA
HETATM   27  H1  UNL     1      22.540   2.740  50.072  1.00  0.00     0.165 HD
ENDBRANCH   1  22
TORSDOF 3
ENDMDL
MODEL 9
REMARK VINA RESULT:      -7.0      3.848      6.465
REMARK  3 active torsions:
REMARK  status: ('A' for Active; 'I' for Inactive)
REMARK       I    between atoms: C1_2  and  N1_3 
REMARK       I    between atoms: C1_2  and  N2_5 
REMARK    1  A    between atoms: N2_5  and  C2_6 
REMARK    2  A    between atoms: C12_17  and  N4_18 
REMARK    3  A    between atoms: N4_18  and  C13_19 
ROOT
HETATM    1  C2  UNL     1      22.821   2.206  50.722  1.00  0.00     0.119 C 
HETATM    2  C3  UNL     1      21.688   2.468  51.715  1.00  0.00     0.056 C 
HETATM    3  C4  UNL     1      20.644   1.439  51.332  1.00  0.00    -0.028 C 
HETATM    4  C5  UNL     1      20.643   0.850  50.138  1.00  0.00    -0.026 C 
HETATM    5  C6  UNL     1      21.637   1.096  49.018  1.00  0.00     0.063 C 
HETATM    6  C7  UNL     1      22.344   2.403  49.335  1.00  0.00    -0.043 C 
HETATM    7  C8  UNL     1      22.242   3.247  48.289  1.00  0.00    -0.007 A 
HETATM    8  C9  UNL     1      21.601   2.876  46.998  1.00  0.00     0.189 A 
HETATM    9  N3  UNL     1      21.639   3.935  46.052  1.00  0.00    -0.297 NA
HETATM   10  C10 UNL     1      22.092   5.096  46.150  1.00  0.00     0.113 A 
HETATM   11  C11 UNL     1      22.706   5.526  47.400  1.00  0.00     0.049 A 
HETATM   12  C12 UNL     1      22.739   4.614  48.353  1.00  0.00     0.042 A 
ENDROOT
BRANCH  12  13
HETATM   13  N4  UNL     1      23.323   5.194  49.495  1.00  0.00    -0.356 N 
HETATM   14  H13 UNL     1      22.715   4.965  50.333  1.00  0.00     0.166 HD
BRANCH  13  15
HETATM   15  C13 UNL     1      24.533   5.966  49.454  1.00  0.00     0.033 A 
HETATM   16  C14 UNL     1      24.358   7.230  50.025  1.00  0.00     0.029 A 
HETATM   17  C15 UNL     1      25.396   8.138  50.083  1.00  0.00     0.004 A 
HETATM   18  C16 UNL     1      26.619   7.745  49.552  1.00  0.00     0.019 A 
HETATM   19  C17 UNL     1      26.816   6.505  48.983  1.00  0.00     0.013 A 
HETATM   20 BR1  UNL     1      28.481   5.943  48.247  1.00  0.00    -0.051 Br
HETATM   21  C18 UNL     1      25.757   5.632  48.946  1.00  0.00     0.048 A 
ENDBRANCH  13  15
ENDBRANCH  12  13
BRANCH   1  22
HETATM   22  N2  UNL     1      24.073   2.759  51.099  1.00  0.00    -0.332 N 
HETATM   23  C1  UNL     1      25.029   1.944  51.820  1.00  0.00     0.350 C 
HETATM   24  O1  UNL     1      24.744   0.739  52.108  1.00  0.00    -0.244 OA
HETATM   25  N1  UNL     1      26.329   2.396  52.257  1.00  0.00    -0.147 NA
HETATM   26  S1  UNL     1      27.432   1.335  52.702  1.00  0.00     0.074 SA
HETATM   27  H1  UNL     1      24.565   3.693  51.022  1.00  0.00     0.165 HD
ENDBRANCH   1  22
TORSDOF 3
ENDMDL
