MODEL 1
REMARK VINA RESULT:      -7.2      0.000      0.000
REMARK  5 active torsions:
REMARK  status: ('A' for Active; 'I' for Inactive)
REMARK    1  A    between atoms: C2_2  and  C3_3 
REMARK    2  A    between atoms: C2_2  and  N1_5 
REMARK    3  A    between atoms: N1_5  and  C5_6 
REMARK    4  A    between atoms: C5_6  and  C6_7 
REMARK    5  A    between atoms: C12_16  and  C13_17 
ROOT
HETATM    1  C6  UNL     1      25.584   0.173  52.420  1.00  0.00    -0.004 C 
HETATM    2  C7  UNL     1      24.565  -0.403  53.121  1.00  0.00     0.047 C 
HETATM    3  C8  UNL     1      23.139  -0.092  53.400  1.00  0.00     0.097 C 
HETATM    4  N2  UNL     1      21.931   0.434  53.464  1.00  0.00    -0.258 NA
HETATM    5  C9  UNL     1      21.683   1.647  52.747  1.00  0.00     0.227 C 
HETATM    6  N3  UNL     1      21.592   2.839  52.313  1.00  0.00    -0.264 NA
HETATM    7  C10 UNL     1      20.948   3.253  51.077  1.00  0.00     0.271 C 
HETATM    8  N4  UNL     1      21.881   4.037  50.257  1.00  0.00    -0.375 N 
HETATM    9  C11 UNL     1      23.030   3.181  49.962  1.00  0.00     0.011 C 
HETATM   10  C12 UNL     1      23.036   2.852  48.654  1.00  0.00     0.029 C 
HETATM   11  C14 UNL     1      24.244   2.456  50.446  1.00  0.00     0.122 C 
HETATM   12  C15 UNL     1      24.822   2.361  51.677  1.00  0.00     0.034 C 
HETATM   13 CL1  UNL     1      24.905   2.749  53.446  1.00  0.00    -0.124 Cl
HETATM   14  C16 UNL     1      25.996   1.416  51.600  1.00  0.00     0.034 C 
HETATM   15  H16 UNL     1      21.969   4.985  49.849  1.00  0.00     0.161 HD
ENDROOT
BRANCH   1  16
HETATM   16  C5  UNL     1      26.740  -0.718  52.583  1.00  0.00     0.130 C 
BRANCH  16  17
HETATM   17  N1  UNL     1      27.576  -0.213  53.671  1.00  0.00    -0.393 N 
HETATM   18  H8  UNL     1      27.230   0.078  54.623  1.00  0.00     0.159 HD
BRANCH  17  19
HETATM   19  C2  UNL     1      28.968   0.056  53.880  1.00  0.00    -0.005 C 
HETATM   20  C1  UNL     1      29.916  -0.858  53.645  1.00  0.00     0.037 C 
BRANCH  19  21
HETATM   21  C3  UNL     1      29.372   1.392  54.374  1.00  0.00     0.051 C 
HETATM   22  C4  UNL     1      28.638   2.498  53.671  1.00  0.00     0.011 C 
ENDBRANCH  19  21
ENDBRANCH  17  19
ENDBRANCH  16  17
ENDBRANCH   1  16
BRANCH  10  23
HETATM   23  C13 UNL     1      21.996   3.323  47.705  1.00  0.00     0.251 C 
HETATM   24  F1  UNL     1      22.245   2.944  46.397  1.00  0.00    -0.251 F 
ENDBRANCH  10  23
TORSDOF 5
ENDMDL
MODEL 2
REMARK VINA RESULT:      -6.9      4.505      6.397
REMARK  5 active torsions:
REMARK  status: ('A' for Active; 'I' for Inactive)
REMARK    1  A    between atoms: C2_2  and  C3_3 
REMARK    2  A    between atoms: C2_2  and  N1_5 
REMARK    3  A    between atoms: N1_5  and  C5_6 
REMARK    4  A    between atoms: C5_6  and  C6_7 
REMARK    5  A    between atoms: C12_16  and  C13_17 
ROOT
HETATM    1  C6  UNL     1      25.701   5.594  49.761  1.00  0.00    -0.004 C 
HETATM    2  C7  UNL     1      24.708   6.088  50.556  1.00  0.00     0.047 C 
HETATM    3  C8  UNL     1      23.761   5.539  51.562  1.00  0.00     0.097 C 
HETATM    4  N2  UNL     1      23.070   4.782  52.391  1.00  0.00    -0.258 NA
HETATM    5  C9  UNL     1      23.397   3.391  52.469  1.00  0.00     0.227 C 
HETATM    6  N3  UNL     1      23.551   2.139  52.308  1.00  0.00    -0.264 NA
HETATM    7  C10 UNL     1      24.273   1.245  53.200  1.00  0.00     0.271 C 
HETATM    8  N4  UNL     1      25.297   0.504  52.452  1.00  0.00    -0.375 N 
HETATM    9  C11 UNL     1      26.215   1.486  51.876  1.00  0.00     0.011 C 
HETATM   10  C12 UNL     1      27.414   1.416  52.492  1.00  0.00     0.029 C 
HETATM   11  C14 UNL     1      26.461   2.588  50.896  1.00  0.00     0.122 C 
HETATM   12  C15 UNL     1      25.664   3.170  49.955  1.00  0.00     0.034 C 
HETATM   13 CL1  UNL     1      24.095   3.340  49.064  1.00  0.00    -0.124 Cl
HETATM   14  C16 UNL     1      26.416   4.304  49.304  1.00  0.00     0.034 C 
HETATM   15  H16 UNL     1      25.550  -0.472  52.212  1.00  0.00     0.161 HD
ENDROOT
BRANCH   1  16
HETATM   16  C5  UNL     1      26.227   6.743  49.012  1.00  0.00     0.130 C 
BRANCH  16  17
HETATM   17  N1  UNL     1      27.687   6.686  49.024  1.00  0.00    -0.393 N 
HETATM   18  H8  UNL     1      28.291   6.645  49.887  1.00  0.00     0.159 HD
BRANCH  17  19
HETATM   19  C2  UNL     1      28.740   6.666  48.051  1.00  0.00    -0.005 C 
HETATM   20  C1  UNL     1      28.888   7.632  47.138  1.00  0.00     0.037 C 
BRANCH  19  21
HETATM   21  C3  UNL     1      29.697   5.536  48.057  1.00  0.00     0.051 C 
HETATM   22  C4  UNL     1      31.064   5.958  48.517  1.00  0.00     0.011 C 
ENDBRANCH  19  21
ENDBRANCH  17  19
ENDBRANCH  16  17
ENDBRANCH   1  16
BRANCH  10  23
HETATM   23  C13 UNL     1      27.693   0.457  53.591  1.00  0.00     0.251 C 
HETATM   24  F1  UNL     1      28.261  -0.724  53.146  1.00  0.00    -0.251 F 
ENDBRANCH  10  23
TORSDOF 5
ENDMDL
MODEL 3
REMARK VINA RESULT:      -6.8      2.627      3.689
REMARK  5 active torsions:
REMARK  status: ('A' for Active; 'I' for Inactive)
REMARK    1  A    between atoms: C2_2  and  C3_3 
REMARK    2  A    between atoms: C2_2  and  N1_5 
REMARK    3  A    between atoms: N1_5  and  C5_6 
REMARK    4  A    between atoms: C5_6  and  C6_7 
REMARK    5  A    between atoms: C12_16  and  C13_17 
ROOT
HETATM    1  C6  UNL     1      22.750   0.969  52.534  1.00  0.00    -0.004 C 
HETATM    2  C7  UNL     1      22.002   0.427  51.530  1.00  0.00     0.047 C 
HETATM    3  C8  UNL     1      21.523   0.859  50.191  1.00  0.00     0.097 C 
HETATM    4  N2  UNL     1      21.257   1.505  49.072  1.00  0.00    -0.258 NA
HETATM    5  C9  UNL     1      21.798   2.819  48.905  1.00  0.00     0.227 C 
HETATM    6  N3  UNL     1      22.081   4.059  48.921  1.00  0.00    -0.264 NA
HETATM    7  C10 UNL     1      23.177   4.696  48.209  1.00  0.00     0.271 C 
HETATM    8  N4  UNL     1      24.007   5.467  49.143  1.00  0.00    -0.375 N 
HETATM    9  C11 UNL     1      24.532   4.532  50.138  1.00  0.00     0.011 C 
HETATM   10  C12 UNL     1      25.861   4.372  49.967  1.00  0.00     0.029 C 
HETATM   11  C14 UNL     1      24.280   3.619  51.295  1.00  0.00     0.122 C 
HETATM   12  C15 UNL     1      23.145   3.304  51.981  1.00  0.00     0.034 C 
HETATM   13 CL1  UNL     1      21.366   3.454  52.296  1.00  0.00    -0.124 Cl
HETATM   14  C16 UNL     1      23.467   2.251  53.011  1.00  0.00     0.034 C 
HETATM   15  H16 UNL     1      24.314   6.444  49.307  1.00  0.00     0.161 HD
ENDROOT
BRANCH   1  16
HETATM   16  C5  UNL     1      22.827  -0.060  53.579  1.00  0.00     0.130 C 
BRANCH  16  17
HETATM   17  N1  UNL     1      24.093  -0.778  53.443  1.00  0.00    -0.393 N 
HETATM   18  H8  UNL     1      24.200  -1.775  53.119  1.00  0.00     0.159 HD
BRANCH  17  19
HETATM   19  C2  UNL     1      25.483  -0.493  53.651  1.00  0.00    -0.005 C 
HETATM   20  C1  UNL     1      25.969  -0.139  54.845  1.00  0.00     0.037 C 
BRANCH  19  21
HETATM   21  C3  UNL     1      26.413  -0.595  52.503  1.00  0.00     0.051 C 
HETATM   22  C4  UNL     1      26.607   0.727  51.815  1.00  0.00     0.011 C 
ENDBRANCH  19  21
ENDBRANCH  17  19
ENDBRANCH  16  17
ENDBRANCH   1  16
BRANCH  10  23
HETATM   23  C13 UNL     1      26.620   5.073  48.900  1.00  0.00     0.251 C 
HETATM   24  F1  UNL     1      27.721   4.358  48.462  1.00  0.00    -0.251 F 
ENDBRANCH  10  23
TORSDOF 5
ENDMDL
MODEL 4
REMARK VINA RESULT:      -6.8      2.749      5.318
REMARK  5 active torsions:
REMARK  status: ('A' for Active; 'I' for Inactive)
REMARK    1  A    between atoms: C2_2  and  C3_3 
REMARK    2  A    between atoms: C2_2  and  N1_5 
REMARK    3  A    between atoms: N1_5  and  C5_6 
REMARK    4  A    between atoms: C5_6  and  C6_7 
REMARK    5  A    between atoms: C12_16  and  C13_17 
ROOT
HETATM    1  C6  UNL     1      25.908   2.275  51.137  1.00  0.00    -0.004 C 
HETATM    2  C7  UNL     1      26.662   1.159  51.357  1.00  0.00     0.047 C 
HETATM    3  C8  UNL     1      26.571  -0.050  52.216  1.00  0.00     0.097 C 
HETATM    4  N2  UNL     1      26.218  -0.992  53.069  1.00  0.00    -0.258 NA
HETATM    5  C9  UNL     1      24.981  -0.839  53.771  1.00  0.00     0.227 C 
HETATM    6  N3  UNL     1      24.020  -0.530  54.545  1.00  0.00    -0.264 NA
HETATM    7  C10 UNL     1      22.666  -1.056  54.479  1.00  0.00     0.271 C 
HETATM    8  N4  UNL     1      21.698   0.046  54.396  1.00  0.00    -0.375 N 
HETATM    9  C11 UNL     1      22.001   0.804  53.183  1.00  0.00     0.011 C 
HETATM   10  C12 UNL     1      21.026   0.623  52.269  1.00  0.00     0.029 C 
HETATM   11  C14 UNL     1      22.926   1.713  52.438  1.00  0.00     0.122 C 
HETATM   12  C15 UNL     1      24.115   2.288  52.780  1.00  0.00     0.034 C 
HETATM   13 CL1  UNL     1      25.473   2.598  53.939  1.00  0.00    -0.124 Cl
HETATM   14  C16 UNL     1      24.653   3.050  51.595  1.00  0.00     0.034 C 
HETATM   15  H16 UNL     1      20.899   0.438  54.928  1.00  0.00     0.161 HD
ENDROOT
BRANCH   1  16
HETATM   16  C5  UNL     1      26.627   3.053  50.119  1.00  0.00     0.130 C 
BRANCH  16  17
HETATM   17  N1  UNL     1      26.267   4.463  50.262  1.00  0.00    -0.393 N 
HETATM   18  H8  UNL     1      26.130   4.970  51.175  1.00  0.00     0.159 HD
BRANCH  17  19
HETATM   19  C2  UNL     1      25.993   5.564  49.386  1.00  0.00    -0.005 C 
HETATM   20  C1  UNL     1      26.935   6.113  48.612  1.00  0.00     0.037 C 
BRANCH  19  21
HETATM   21  C3  UNL     1      24.619   6.114  49.336  1.00  0.00     0.051 C 
HETATM   22  C4  UNL     1      23.698   5.254  48.518  1.00  0.00     0.011 C 
ENDBRANCH  19  21
ENDBRANCH  17  19
ENDBRANCH  16  17
ENDBRANCH   1  16
BRANCH  10  23
HETATM   23  C13 UNL     1      19.842  -0.237  52.522  1.00  0.00     0.251 C 
HETATM   24  F1  UNL     1      18.970  -0.286  51.449  1.00  0.00    -0.251 F 
ENDBRANCH  10  23
TORSDOF 5
ENDMDL
MODEL 5
REMARK VINA RESULT:      -6.7      3.588      5.183
REMARK  5 active torsions:
REMARK  status: ('A' for Active; 'I' for Inactive)
REMARK    1  A    between atoms: C2_2  and  C3_3 
REMARK    2  A    between atoms: C2_2  and  N1_5 
REMARK    3  A    between atoms: N1_5  and  C5_6 
REMARK    4  A    between atoms: C5_6  and  C6_7 
REMARK    5  A    between atoms: C12_16  and  C13_17 
ROOT
HETATM    1  C6  UNL     1      23.116   2.619  52.410  1.00  0.00    -0.004 C 
HETATM    2  C7  UNL     1      22.564   3.843  52.169  1.00  0.00     0.047 C 
HETATM    3  C8  UNL     1      21.322   4.358  51.535  1.00  0.00     0.097 C 
HETATM    4  N2  UNL     1      20.158   4.509  50.934  1.00  0.00    -0.258 NA
HETATM    5  C9  UNL     1      19.442   3.334  50.542  1.00  0.00     0.227 C 
HETATM    6  N3  UNL     1      18.981   2.283  49.993  1.00  0.00    -0.264 NA
HETATM    7  C10 UNL     1      17.850   1.499  50.461  1.00  0.00     0.271 C 
HETATM    8  N4  UNL     1      18.243   0.093  50.625  1.00  0.00    -0.375 N 
HETATM    9  C11 UNL     1      19.323   0.052  51.609  1.00  0.00     0.011 C 
HETATM   10  C12 UNL     1      18.887  -0.520  52.750  1.00  0.00     0.029 C 
HETATM   11  C14 UNL     1      20.739   0.369  51.971  1.00  0.00     0.122 C 
HETATM   12  C15 UNL     1      21.751   0.958  51.272  1.00  0.00     0.034 C 
HETATM   13 CL1  UNL     1      22.434   1.735  49.783  1.00  0.00    -0.124 Cl
HETATM   14  C16 UNL     1      22.953   1.101  52.171  1.00  0.00     0.034 C 
HETATM   15  H16 UNL     1      17.997  -0.844  50.256  1.00  0.00     0.161 HD
ENDROOT
BRANCH   1  16
HETATM   16  C5  UNL     1      24.385   2.878  53.102  1.00  0.00     0.130 C 
BRANCH  16  17
HETATM   17  N1  UNL     1      25.400   3.231  52.111  1.00  0.00    -0.393 N 
HETATM   18  H8  UNL     1      25.749   4.205  51.913  1.00  0.00     0.159 HD
BRANCH  17  19
HETATM   19  C2  UNL     1      26.212   2.536  51.155  1.00  0.00    -0.005 C 
HETATM   20  C1  UNL     1      26.792   1.363  51.429  1.00  0.00     0.037 C 
BRANCH  19  21
HETATM   21  C3  UNL     1      26.416   3.139  49.818  1.00  0.00     0.051 C 
HETATM   22  C4  UNL     1      25.456   4.265  49.556  1.00  0.00     0.011 C 
ENDBRANCH  19  21
ENDBRANCH  17  19
ENDBRANCH  16  17
ENDBRANCH   1  16
BRANCH  10  23
HETATM   23  C13 UNL     1      17.497  -1.014  52.917  1.00  0.00     0.251 C 
HETATM   24  F1  UNL     1      17.427  -2.386  53.079  1.00  0.00    -0.251 F 
ENDBRANCH  10  23
TORSDOF 5
ENDMDL
MODEL 6
REMARK VINA RESULT:      -6.7      7.419      8.779
REMARK  5 active torsions:
REMARK  status: ('A' for Active; 'I' for Inactive)
REMARK    1  A    between atoms: C2_2  and  C3_3 
REMARK    2  A    between atoms: C2_2  and  N1_5 
REMARK    3  A    between atoms: N1_5  and  C5_6 
REMARK    4  A    between atoms: C5_6  and  C6_7 
REMARK    5  A    between atoms: C12_16  and  C13_17 
ROOT
HETATM    1  C6  UNL     1      32.205   6.421  48.327  1.00  0.00    -0.004 C 
HETATM    2  C7  UNL     1      32.255   7.597  49.016  1.00  0.00     0.047 C 
HETATM    3  C8  UNL     1      31.288   8.650  49.420  1.00  0.00     0.097 C 
HETATM    4  N2  UNL     1      30.221   9.397  49.634  1.00  0.00    -0.258 NA
HETATM    5  C9  UNL     1      28.962   8.934  49.139  1.00  0.00     0.227 C 
HETATM    6  N3  UNL     1      27.934   8.609  48.464  1.00  0.00    -0.264 NA
HETATM    7  C10 UNL     1      26.734   7.975  48.984  1.00  0.00     0.271 C 
HETATM    8  N4  UNL     1      26.443   6.748  48.232  1.00  0.00    -0.375 N 
HETATM    9  C11 UNL     1      27.591   5.855  48.389  1.00  0.00     0.011 C 
HETATM   10  C12 UNL     1      27.252   4.797  49.154  1.00  0.00     0.029 C 
HETATM   11  C14 UNL     1      29.027   5.553  48.102  1.00  0.00     0.122 C 
HETATM   12  C15 UNL     1      29.974   6.216  47.380  1.00  0.00     0.034 C 
HETATM   13 CL1  UNL     1      30.526   7.594  46.339  1.00  0.00    -0.124 Cl
HETATM   14  C16 UNL     1      31.289   5.488  47.504  1.00  0.00     0.034 C 
HETATM   15  H16 UNL     1      25.697   6.344  47.635  1.00  0.00     0.161 HD
ENDROOT
BRANCH   1  16
HETATM   16  C5  UNL     1      33.577   5.896  48.324  1.00  0.00     0.130 C 
BRANCH  16  17
HETATM   17  N1  UNL     1      33.525   4.438  48.419  1.00  0.00    -0.393 N 
HETATM   18  H8  UNL     1      33.108   3.892  49.217  1.00  0.00     0.159 HD
BRANCH  17  19
HETATM   19  C2  UNL     1      33.941   3.324  47.618  1.00  0.00    -0.005 C 
HETATM   20  C1  UNL     1      34.982   3.394  46.782  1.00  0.00     0.037 C 
BRANCH  19  21
HETATM   21  C3  UNL     1      33.191   2.051  47.720  1.00  0.00     0.051 C 
HETATM   22  C4  UNL     1      32.112   1.948  46.679  1.00  0.00     0.011 C 
ENDBRANCH  19  21
ENDBRANCH  17  19
ENDBRANCH  16  17
ENDBRANCH   1  16
BRANCH  10  23
HETATM   23  C13 UNL     1      25.892   4.625  49.726  1.00  0.00     0.251 C 
HETATM   24  F1  UNL     1      25.185   3.593  49.136  1.00  0.00    -0.251 F 
ENDBRANCH  10  23
TORSDOF 5
ENDMDL
MODEL 7
REMARK VINA RESULT:      -6.6      2.886      4.142
REMARK  5 active torsions:
REMARK  status: ('A' for Active; 'I' for Inactive)
REMARK    1  A    between atoms: C2_2  and  C3_3 
REMARK    2  A    between atoms: C2_2  and  N1_5 
REMARK    3  A    between atoms: N1_5  and  C5_6 
REMARK    4  A    between atoms: C5_6  and  C6_7 
REMARK    5  A    between atoms: C12_16  and  C13_17 
ROOT
HETATM    1  C6  UNL     1      23.867   2.894  52.679  1.00  0.00    -0.004 C 
HETATM    2  C7  UNL     1      23.459   4.196  52.666  1.00  0.00     0.047 C 
HETATM    3  C8  UNL     1      22.439   4.997  51.942  1.00  0.00     0.097 C 
HETATM    4  N2  UNL     1      21.465   5.432  51.165  1.00  0.00    -0.258 NA
HETATM    5  C9  UNL     1      20.801   4.486  50.322  1.00  0.00     0.227 C 
HETATM    6  N3  UNL     1      20.428   3.670  49.420  1.00  0.00    -0.264 NA
HETATM    7  C10 UNL     1      19.175   2.933  49.398  1.00  0.00     0.271 C 
HETATM    8  N4  UNL     1      19.436   1.495  49.255  1.00  0.00    -0.375 N 
HETATM    9  C11 UNL     1      20.242   1.079  50.402  1.00  0.00     0.011 C 
HETATM   10  C12 UNL     1      19.512   0.295  51.220  1.00  0.00     0.029 C 
HETATM   11  C14 UNL     1      21.544   1.126  51.136  1.00  0.00     0.122 C 
HETATM   12  C15 UNL     1      22.727   1.747  50.863  1.00  0.00     0.034 C 
HETATM   13 CL1  UNL     1      23.792   2.786  49.828  1.00  0.00    -0.124 Cl
HETATM   14  C16 UNL     1      23.682   1.515  52.007  1.00  0.00     0.034 C 
HETATM   15  H16 UNL     1      19.235   0.716  48.601  1.00  0.00     0.161 HD
ENDROOT
BRANCH   1  16
HETATM   16  C5  UNL     1      24.943   2.818  53.675  1.00  0.00     0.130 C 
BRANCH  16  17
HETATM   17  N1  UNL     1      26.192   2.477  52.997  1.00  0.00    -0.393 N 
HETATM   18  H8  UNL     1      26.445   2.747  52.010  1.00  0.00     0.159 HD
BRANCH  17  19
HETATM   19  C2  UNL     1      27.393   1.761  53.315  1.00  0.00    -0.005 C 
HETATM   20  C1  UNL     1      28.562   2.379  53.513  1.00  0.00     0.037 C 
BRANCH  19  21
HETATM   21  C3  UNL     1      27.336   0.286  53.431  1.00  0.00     0.051 C 
HETATM   22  C4  UNL     1      26.858  -0.360  52.161  1.00  0.00     0.011 C 
ENDBRANCH  19  21
ENDBRANCH  17  19
ENDBRANCH  16  17
ENDBRANCH   1  16
BRANCH  10  23
HETATM   23  C13 UNL     1      18.097  -0.056  50.939  1.00  0.00     0.251 C 
HETATM   24  F1  UNL     1      17.592  -1.006  51.810  1.00  0.00    -0.251 F 
ENDBRANCH  10  23
TORSDOF 5
ENDMDL
MODEL 8
REMARK VINA RESULT:      -6.4      3.519      6.123
REMARK  5 active torsions:
REMARK  status: ('A' for Active; 'I' for Inactive)
REMARK    1  A    between atoms: C2_2  and  C3_3 
REMARK    2  A    between atoms: C2_2  and  N1_5 
REMARK    3  A    between atoms: N1_5  and  C5_6 
REMARK    4  A    between atoms: C5_6  and  C6_7 
REMARK    5  A    between atoms: C12_16  and  C13_17 
ROOT
HETATM    1  C6  UNL     1      22.932   4.357  50.748  1.00  0.00    -0.004 C 
HETATM    2  C7  UNL     1      21.709   4.474  51.342  1.00  0.00     0.047 C 
HETATM    3  C8  UNL     1      20.809   3.597  52.135  1.00  0.00     0.097 C 
HETATM    4  N2  UNL     1      20.244   2.609  52.802  1.00  0.00    -0.258 NA
HETATM    5  C9  UNL     1      20.959   1.376  52.920  1.00  0.00     0.227 C 
HETATM    6  N3  UNL     1      21.515   0.241  52.773  1.00  0.00    -0.264 NA
HETATM    7  C10 UNL     1      22.301  -0.463  53.774  1.00  0.00     0.271 C 
HETATM    8  N4  UNL     1      23.620  -0.809  53.229  1.00  0.00    -0.375 N 
HETATM    9  C11 UNL     1      24.283   0.441  52.859  1.00  0.00     0.011 C 
HETATM   10  C12 UNL     1      25.314   0.684  53.695  1.00  0.00     0.029 C 
HETATM   11  C14 UNL     1      24.354   1.636  51.962  1.00  0.00     0.122 C 
HETATM   12  C15 UNL     1      23.602   2.023  50.893  1.00  0.00     0.034 C 
HETATM   13 CL1  UNL     1      22.244   1.786  49.716  1.00  0.00    -0.124 Cl
HETATM   14  C16 UNL     1      24.077   3.374  50.419  1.00  0.00     0.034 C 
HETATM   15  H16 UNL     1      24.198  -1.646  53.027  1.00  0.00     0.161 HD
ENDROOT
BRANCH   1  16
HETATM   16  C5  UNL     1      23.208   5.662  50.134  1.00  0.00     0.130 C 
BRANCH  16  17
HETATM   17  N1  UNL     1      24.553   6.089  50.518  1.00  0.00    -0.393 N 
HETATM   18  H8  UNL     1      24.941   6.083  51.498  1.00  0.00     0.159 HD
BRANCH  17  19
HETATM   19  C2  UNL     1      25.714   6.604  49.853  1.00  0.00    -0.005 C 
HETATM   20  C1  UNL     1      26.178   7.838  50.079  1.00  0.00     0.037 C 
BRANCH  19  21
HETATM   21  C3  UNL     1      26.426   5.741  48.883  1.00  0.00     0.051 C 
HETATM   22  C4  UNL     1      27.588   6.449  48.247  1.00  0.00     0.011 C 
ENDBRANCH  19  21
ENDBRANCH  17  19
ENDBRANCH  16  17
ENDBRANCH   1  16
BRANCH  10  23
HETATM   23  C13 UNL     1      25.669  -0.228  54.812  1.00  0.00     0.251 C 
HETATM   24  F1  UNL     1      27.021  -0.221  55.106  1.00  0.00    -0.251 F 
ENDBRANCH  10  23
TORSDOF 5
ENDMDL
MODEL 9
REMARK VINA RESULT:      -6.4      1.626      2.376
REMARK  5 active torsions:
REMARK  status: ('A' for Active; 'I' for Inactive)
REMARK    1  A    between atoms: C2_2  and  C3_3 
REMARK    2  A    between atoms: C2_2  and  N1_5 
REMARK    3  A    between atoms: N1_5  and  C5_6 
REMARK    4  A    between atoms: C5_6  and  C6_7 
REMARK    5  A    between atoms: C12_16  and  C13_17 
ROOT
HETATM    1  C6  UNL     1      23.100   0.957  52.491  1.00  0.00    -0.004 C 
HETATM    2  C7  UNL     1      21.870   1.116  53.058  1.00  0.00     0.047 C 
HETATM    3  C8  UNL     1      20.728   2.054  52.906  1.00  0.00     0.097 C 
HETATM    4  N2  UNL     1      19.896   3.014  52.548  1.00  0.00    -0.258 NA
HETATM    5  C9  UNL     1      20.302   3.905  51.506  1.00  0.00     0.227 C 
HETATM    6  N3  UNL     1      20.810   4.810  50.770  1.00  0.00    -0.264 NA
HETATM    7  C10 UNL     1      20.547   5.010  49.354  1.00  0.00     0.271 C 
HETATM    8  N4  UNL     1      21.809   5.023  48.602  1.00  0.00    -0.375 N 
HETATM    9  C11 UNL     1      22.458   3.729  48.814  1.00  0.00     0.011 C 
HETATM   10  C12 UNL     1      22.435   3.008  47.674  1.00  0.00     0.029 C 
HETATM   11  C14 UNL     1      23.152   2.781  49.739  1.00  0.00     0.122 C 
HETATM   12  C15 UNL     1      23.503   2.877  51.052  1.00  0.00     0.034 C 
HETATM   13 CL1  UNL     1      23.588   3.766  52.630  1.00  0.00    -0.124 Cl
HETATM   14  C16 UNL     1      24.112   1.571  51.498  1.00  0.00     0.034 C 
HETATM   15  H16 UNL     1      22.361   5.656  47.995  1.00  0.00     0.161 HD
ENDROOT
BRANCH   1  16
HETATM   16  C5  UNL     1      23.697  -0.216  53.143  1.00  0.00     0.130 C 
BRANCH  16  17
HETATM   17  N1  UNL     1      24.985   0.168  53.718  1.00  0.00    -0.393 N 
HETATM   18  H8  UNL     1      25.124   0.869  54.492  1.00  0.00     0.159 HD
BRANCH  17  19
HETATM   19  C2  UNL     1      26.362  -0.177  53.519  1.00  0.00    -0.005 C 
HETATM   20  C1  UNL     1      26.736  -1.232  52.787  1.00  0.00     0.037 C 
BRANCH  19  21
HETATM   21  C3  UNL     1      27.408   0.663  54.146  1.00  0.00     0.051 C 
HETATM   22  C4  UNL     1      27.498   2.020  53.506  1.00  0.00     0.011 C 
ENDBRANCH  19  21
ENDBRANCH  17  19
ENDBRANCH  16  17
ENDBRANCH   1  16
BRANCH  10  23
HETATM   23  C13 UNL     1      21.822   3.514  46.420  1.00  0.00     0.251 C 
HETATM   24  F1  UNL     1      20.455   3.302  46.363  1.00  0.00    -0.251 F 
ENDBRANCH  10  23
TORSDOF 5
ENDMDL
