MODEL 1
REMARK VINA RESULT:      -8.8      0.000      0.000
REMARK  3 active torsions:
REMARK  status: ('A' for Active; 'I' for Inactive)
REMARK    1  A    between atoms: S1_1  and  N1_2 
REMARK    2  A    between atoms: N1_2  and  N2_3 
REMARK    3  A    between atoms: N2_3  and  N3_4 
ROOT
HETATM    1  N3  UNL     1      23.094   4.649  51.926  1.00  0.00    -0.267 N 
HETATM    2  C1  UNL     1      21.762   4.089  52.207  1.00  0.00     0.229 C 
HETATM    3  N4  UNL     1      20.795   3.882  51.287  1.00  0.00    -0.236 NA
HETATM    4  C2  UNL     1      19.548   3.300  51.868  1.00  0.00     0.234 C 
HETATM    5  N5  UNL     1      19.910   2.020  52.145  1.00  0.00    -0.242 NA
HETATM    6  C3  UNL     1      21.292   1.700  51.801  1.00  0.00     0.066 C 
HETATM    7  C4  UNL     1      21.564   1.064  52.865  1.00  0.00     0.015 C 
HETATM    8  C5  UNL     1      22.686   0.427  53.403  1.00  0.00     0.044 C 
HETATM    9  C6  UNL     1      23.795  -0.065  53.695  1.00  0.00    -0.021 C 
HETATM   10  C7  UNL     1      25.058  -0.664  54.098  1.00  0.00    -0.025 C 
HETATM   11  C8  UNL     1      26.327  -0.515  53.469  1.00  0.00     0.015 C 
HETATM   12  C9  UNL     1      26.962   0.260  52.218  1.00  0.00     0.009 C 
HETATM   13  C10 UNL     1      25.864   1.064  51.730  1.00  0.00     0.005 C 
HETATM   14  C11 UNL     1      25.868   2.148  50.738  1.00  0.00     0.041 C 
HETATM   15  C12 UNL     1      24.433   2.769  50.921  1.00  0.00    -0.030 C 
HETATM   16  C13 UNL     1      24.320   3.920  51.624  1.00  0.00     0.121 C 
HETATM   17  C14 UNL     1      23.093   2.389  50.409  1.00  0.00    -0.016 A 
HETATM   18  C15 UNL     1      23.639   2.557  49.088  1.00  0.00     0.013 A 
HETATM   19  C16 UNL     1      22.777   2.369  47.982  1.00  0.00     0.001 A 
HETATM   20  C17 UNL     1      21.318   2.007  48.013  1.00  0.00     0.001 A 
HETATM   21  C18 UNL     1      21.050   1.897  49.405  1.00  0.00     0.014 A 
HETATM   22  C19 UNL     1      21.846   2.066  50.448  1.00  0.00     0.003 A 
ENDROOT
BRANCH   1  23
HETATM   23  N2  UNL     1      22.839   5.987  52.094  1.00  0.00    -0.154 NA
HETATM   24  H3  UNL     1      22.270   6.293  52.897  1.00  0.00     0.168 HD
BRANCH  23  25
HETATM   25  N1  UNL     1      24.127   6.685  52.078  1.00  0.00    -0.185 NA
HETATM   26  H2  UNL     1      24.828   5.910  51.769  1.00  0.00     0.156 HD
BRANCH  25  27
HETATM   27  S1  UNL     1      23.935   7.804  50.673  1.00  0.00    -0.081 SA
HETATM   28  H1  UNL     1      22.888   8.684  51.007  1.00  0.00     0.120 HD
ENDBRANCH  25  27
ENDBRANCH  23  25
ENDBRANCH   1  23
TORSDOF 3
ENDMDL
MODEL 2
REMARK VINA RESULT:      -8.1      1.394      2.069
REMARK  3 active torsions:
REMARK  status: ('A' for Active; 'I' for Inactive)
REMARK    1  A    between atoms: S1_1  and  N1_2 
REMARK    2  A    between atoms: N1_2  and  N2_3 
REMARK    3  A    between atoms: N2_3  and  N3_4 
ROOT
HETATM    1  N3  UNL     1      22.670   5.103  51.627  1.00  0.00    -0.267 N 
HETATM    2  C1  UNL     1      21.222   5.137  51.368  1.00  0.00     0.229 C 
HETATM    3  N4  UNL     1      20.652   5.161  50.143  1.00  0.00    -0.236 NA
HETATM    4  C2  UNL     1      19.159   5.192  50.192  1.00  0.00     0.234 C 
HETATM    5  N5  UNL     1      18.842   3.933  50.593  1.00  0.00    -0.242 NA
HETATM    6  C3  UNL     1      19.995   3.066  50.817  1.00  0.00     0.066 C 
HETATM    7  C4  UNL     1      19.586   2.558  51.906  1.00  0.00     0.015 C 
HETATM    8  C5  UNL     1      20.077   1.643  52.842  1.00  0.00     0.044 C 
HETATM    9  C6  UNL     1      20.705   0.827  53.547  1.00  0.00    -0.021 C 
HETATM   10  C7  UNL     1      21.378  -0.128  54.414  1.00  0.00    -0.025 C 
HETATM   11  C8  UNL     1      22.729  -0.570  54.331  1.00  0.00     0.015 C 
HETATM   12  C9  UNL     1      24.025  -0.304  53.425  1.00  0.00     0.009 C 
HETATM   13  C10 UNL     1      23.604   0.762  52.544  1.00  0.00     0.005 C 
HETATM   14  C11 UNL     1      24.403   1.588  51.629  1.00  0.00     0.041 C 
HETATM   15  C12 UNL     1      23.386   2.723  51.233  1.00  0.00    -0.030 C 
HETATM   16  C13 UNL     1      23.510   3.930  51.832  1.00  0.00     0.121 C 
HETATM   17  C14 UNL     1      22.286   2.794  50.239  1.00  0.00    -0.016 A 
HETATM   18  C15 UNL     1      23.284   2.528  49.236  1.00  0.00     0.013 A 
HETATM   19  C16 UNL     1      22.876   2.499  47.882  1.00  0.00     0.001 A 
HETATM   20  C17 UNL     1      21.491   2.721  47.341  1.00  0.00     0.001 A 
HETATM   21  C18 UNL     1      20.724   2.947  48.517  1.00  0.00     0.014 A 
HETATM   22  C19 UNL     1      21.092   2.973  49.789  1.00  0.00     0.003 A 
ENDROOT
BRANCH   1  23
HETATM   23  N2  UNL     1      22.942   6.448  51.677  1.00  0.00    -0.154 NA
HETATM   24  H3  UNL     1      22.358   7.057  52.269  1.00  0.00     0.168 HD
BRANCH  23  25
HETATM   25  N1  UNL     1      24.359   6.597  52.024  1.00  0.00    -0.185 NA
HETATM   26  H2  UNL     1      24.685   5.570  52.188  1.00  0.00     0.156 HD
BRANCH  25  27
HETATM   27  S1  UNL     1      25.079   7.129  50.455  1.00  0.00    -0.081 SA
HETATM   28  H1  UNL     1      24.307   8.220  50.014  1.00  0.00     0.120 HD
ENDBRANCH  25  27
ENDBRANCH  23  25
ENDBRANCH   1  23
TORSDOF 3
ENDMDL
MODEL 3
REMARK VINA RESULT:      -7.3      6.509      8.234
REMARK  3 active torsions:
REMARK  status: ('A' for Active; 'I' for Inactive)
REMARK    1  A    between atoms: S1_1  and  N1_2 
REMARK    2  A    between atoms: N1_2  and  N2_3 
REMARK    3  A    between atoms: N2_3  and  N3_4 
ROOT
HETATM    1  N3  UNL     1      27.511   9.840  49.095  1.00  0.00    -0.267 N 
HETATM    2  C1  UNL     1      26.302  10.378  48.451  1.00  0.00     0.229 C 
HETATM    3  N4  UNL     1      26.250  10.899  47.206  1.00  0.00    -0.236 NA
HETATM    4  C2  UNL     1      24.883  11.366  46.823  1.00  0.00     0.234 C 
HETATM    5  N5  UNL     1      24.205  10.202  46.639  1.00  0.00    -0.242 NA
HETATM    6  C3  UNL     1      25.002   9.001  46.868  1.00  0.00     0.066 C 
HETATM    7  C4  UNL     1      24.125   8.369  47.533  1.00  0.00     0.015 C 
HETATM    8  C5  UNL     1      24.045   7.133  48.183  1.00  0.00     0.044 C 
HETATM    9  C6  UNL     1      24.194   6.009  48.702  1.00  0.00    -0.021 C 
HETATM   10  C7  UNL     1      24.298   4.700  49.328  1.00  0.00    -0.025 C 
HETATM   11  C8  UNL     1      25.470   3.909  49.494  1.00  0.00     0.015 C 
HETATM   12  C9  UNL     1      27.036   4.002  49.164  1.00  0.00     0.009 C 
HETATM   13  C10 UNL     1      27.188   5.340  48.638  1.00  0.00     0.005 C 
HETATM   14  C11 UNL     1      28.414   6.099  48.353  1.00  0.00     0.041 C 
HETATM   15  C12 UNL     1      27.856   7.550  48.107  1.00  0.00    -0.030 C 
HETATM   16  C13 UNL     1      27.973   8.457  49.105  1.00  0.00     0.121 C 
HETATM   17  C14 UNL     1      27.245   8.213  46.929  1.00  0.00    -0.016 A 
HETATM   18  C15 UNL     1      28.476   7.936  46.236  1.00  0.00     0.013 A 
HETATM   19  C16 UNL     1      28.609   8.394  44.905  1.00  0.00     0.001 A 
HETATM   20  C17 UNL     1      27.598   9.160  44.097  1.00  0.00     0.001 A 
HETATM   21  C18 UNL     1      26.505   9.285  44.998  1.00  0.00     0.014 A 
HETATM   22  C19 UNL     1      26.366   8.859  46.243  1.00  0.00     0.003 A 
ENDROOT
BRANCH   1  23
HETATM   23  N2  UNL     1      27.995  10.974  49.697  1.00  0.00    -0.154 NA
HETATM   24  H3  UNL     1      27.848  11.109  50.708  1.00  0.00     0.168 HD
BRANCH  23  25
HETATM   25  N1  UNL     1      29.420  11.075  49.365  1.00  0.00    -0.185 NA
HETATM   26  H2  UNL     1      29.554  10.304  48.607  1.00  0.00     0.156 HD
BRANCH  25  27
HETATM   27  S1  UNL     1      29.500  12.665  48.512  1.00  0.00    -0.081 SA
HETATM   28  H1  UNL     1      29.419  13.655  49.510  1.00  0.00     0.120 HD
ENDBRANCH  25  27
ENDBRANCH  23  25
ENDBRANCH   1  23
TORSDOF 3
ENDMDL
MODEL 4
REMARK VINA RESULT:      -7.3      9.885     12.421
REMARK  3 active torsions:
REMARK  status: ('A' for Active; 'I' for Inactive)
REMARK    1  A    between atoms: S1_1  and  N1_2 
REMARK    2  A    between atoms: N1_2  and  N2_3 
REMARK    3  A    between atoms: N2_3  and  N3_4 
ROOT
HETATM    1  N3  UNL     1      33.127   6.139  44.620  1.00  0.00    -0.267 N 
HETATM    2  C1  UNL     1      33.066   4.851  45.330  1.00  0.00     0.229 C 
HETATM    3  N4  UNL     1      34.042   4.352  46.120  1.00  0.00    -0.236 NA
HETATM    4  C2  UNL     1      33.698   3.022  46.708  1.00  0.00     0.234 C 
HETATM    5  N5  UNL     1      32.756   3.335  47.636  1.00  0.00    -0.242 NA
HETATM    6  C3  UNL     1      32.443   4.759  47.717  1.00  0.00     0.066 C 
HETATM    7  C4  UNL     1      31.183   4.627  47.784  1.00  0.00     0.015 C 
HETATM    8  C5  UNL     1      30.079   5.483  47.854  1.00  0.00     0.044 C 
HETATM    9  C6  UNL     1      29.250   6.414  47.896  1.00  0.00    -0.021 C 
HETATM   10  C7  UNL     1      28.230   7.450  47.953  1.00  0.00    -0.025 C 
HETATM   11  C8  UNL     1      28.405   8.850  47.760  1.00  0.00     0.015 C 
HETATM   12  C9  UNL     1      29.590   9.875  47.422  1.00  0.00     0.009 C 
HETATM   13  C10 UNL     1      30.722   9.009  47.178  1.00  0.00     0.005 C 
HETATM   14  C11 UNL     1      32.042   9.331  46.619  1.00  0.00     0.041 C 
HETATM   15  C12 UNL     1      32.646   7.902  46.351  1.00  0.00    -0.030 C 
HETATM   16  C13 UNL     1      32.638   7.433  45.082  1.00  0.00     0.121 C 
HETATM   17  C14 UNL     1      33.326   6.911  47.223  1.00  0.00    -0.016 A 
HETATM   18  C15 UNL     1      34.315   7.928  47.469  1.00  0.00     0.013 A 
HETATM   19  C16 UNL     1      35.418   7.597  48.291  1.00  0.00     0.001 A 
HETATM   20  C17 UNL     1      35.698   6.279  48.957  1.00  0.00     0.001 A 
HETATM   21  C18 UNL     1      34.587   5.484  48.563  1.00  0.00     0.014 A 
HETATM   22  C19 UNL     1      33.548   5.781  47.799  1.00  0.00     0.003 A 
ENDROOT
BRANCH   1  23
HETATM   23  N2  UNL     1      33.693   5.741  43.435  1.00  0.00    -0.154 NA
HETATM   24  H3  UNL     1      34.719   5.758  43.338  1.00  0.00     0.168 HD
BRANCH  23  25
HETATM   25  N1  UNL     1      33.168   4.409  43.123  1.00  0.00    -0.185 NA
HETATM   26  H2  UNL     1      32.098   4.514  43.302  1.00  0.00     0.156 HD
BRANCH  25  27
HETATM   27  S1  UNL     1      33.391   4.323  41.332  1.00  0.00    -0.081 SA
HETATM   28  H1  UNL     1      34.691   4.794  41.072  1.00  0.00     0.120 HD
ENDBRANCH  25  27
ENDBRANCH  23  25
ENDBRANCH   1  23
TORSDOF 3
ENDMDL
MODEL 5
REMARK VINA RESULT:      -7.3      6.911      9.895
REMARK  3 active torsions:
REMARK  status: ('A' for Active; 'I' for Inactive)
REMARK    1  A    between atoms: S1_1  and  N1_2 
REMARK    2  A    between atoms: N1_2  and  N2_3 
REMARK    3  A    between atoms: N2_3  and  N3_4 
ROOT
HETATM    1  N3  UNL     1      27.447   9.836  48.856  1.00  0.00    -0.267 N 
HETATM    2  C1  UNL     1      28.749   9.363  48.358  1.00  0.00     0.229 C 
HETATM    3  N4  UNL     1      29.378   8.241  48.769  1.00  0.00    -0.236 NA
HETATM    4  C2  UNL     1      30.687   8.018  48.083  1.00  0.00     0.234 C 
HETATM    5  N5  UNL     1      30.314   7.654  46.828  1.00  0.00    -0.242 NA
HETATM    6  C3  UNL     1      28.870   7.616  46.618  1.00  0.00     0.066 C 
HETATM    7  C4  UNL     1      28.871   8.193  45.488  1.00  0.00     0.015 C 
HETATM    8  C5  UNL     1      27.908   8.604  44.561  1.00  0.00     0.044 C 
HETATM    9  C6  UNL     1      26.898   8.897  43.891  1.00  0.00    -0.021 C 
HETATM   10  C7  UNL     1      25.763   9.263  43.056  1.00  0.00    -0.025 C 
HETATM   11  C8  UNL     1      24.383   9.221  43.403  1.00  0.00     0.015 C 
HETATM   12  C9  UNL     1      23.475   8.839  44.668  1.00  0.00     0.009 C 
HETATM   13  C10 UNL     1      24.444   8.565  45.705  1.00  0.00     0.005 C 
HETATM   14  C11 UNL     1      24.240   8.367  47.147  1.00  0.00     0.041 C 
HETATM   15  C12 UNL     1      25.713   8.424  47.700  1.00  0.00    -0.030 C 
HETATM   16  C13 UNL     1      26.128   9.566  48.296  1.00  0.00     0.121 C 
HETATM   17  C14 UNL     1      26.803   7.420  47.780  1.00  0.00    -0.016 A 
HETATM   18  C15 UNL     1      25.907   6.630  48.582  1.00  0.00     0.013 A 
HETATM   19  C16 UNL     1      26.383   5.402  49.098  1.00  0.00     0.001 A 
HETATM   20  C17 UNL     1      27.749   4.801  48.913  1.00  0.00     0.001 A 
HETATM   21  C18 UNL     1      28.407   5.761  48.096  1.00  0.00     0.014 A 
HETATM   22  C19 UNL     1      27.973   6.910  47.603  1.00  0.00     0.003 A 
ENDROOT
BRANCH   1  23
HETATM   23  N2  UNL     1      27.855  10.614  49.910  1.00  0.00    -0.154 NA
HETATM   24  H3  UNL     1      28.010  10.175  50.829  1.00  0.00     0.168 HD
BRANCH  23  25
HETATM   25  N1  UNL     1      29.051  11.345  49.479  1.00  0.00    -0.185 NA
HETATM   26  H2  UNL     1      29.355  10.815  48.577  1.00  0.00     0.156 HD
BRANCH  25  27
HETATM   27  S1  UNL     1      28.358  12.927  48.947  1.00  0.00    -0.081 SA
HETATM   28  H1  UNL     1      29.259  13.919  49.376  1.00  0.00     0.120 HD
ENDBRANCH  25  27
ENDBRANCH  23  25
ENDBRANCH   1  23
TORSDOF 3
ENDMDL
MODEL 6
REMARK VINA RESULT:      -7.3      3.494      5.182
REMARK  3 active torsions:
REMARK  status: ('A' for Active; 'I' for Inactive)
REMARK    1  A    between atoms: S1_1  and  N1_2 
REMARK    2  A    between atoms: N1_2  and  N2_3 
REMARK    3  A    between atoms: N2_3  and  N3_4 
ROOT
HETATM    1  N3  UNL     1      22.872   6.316  50.599  1.00  0.00    -0.267 N 
HETATM    2  C1  UNL     1      22.948   4.867  50.845  1.00  0.00     0.229 C 
HETATM    3  N4  UNL     1      22.128   3.942  50.299  1.00  0.00    -0.236 NA
HETATM    4  C2  UNL     1      22.446   2.548  50.735  1.00  0.00     0.234 C 
HETATM    5  N5  UNL     1      23.604   2.281  50.076  1.00  0.00    -0.242 NA
HETATM    6  C3  UNL     1      24.085   3.376  49.240  1.00  0.00     0.066 C 
HETATM    7  C4  UNL     1      25.305   3.296  49.583  1.00  0.00     0.015 C 
HETATM    8  C5  UNL     1      26.485   3.988  49.293  1.00  0.00     0.044 C 
HETATM    9  C6  UNL     1      27.401   4.743  48.910  1.00  0.00    -0.021 C 
HETATM   10  C7  UNL     1      28.517   5.582  48.501  1.00  0.00    -0.025 C 
HETATM   11  C8  UNL     1      28.461   6.800  47.766  1.00  0.00     0.015 C 
HETATM   12  C9  UNL     1      27.354   7.758  47.113  1.00  0.00     0.009 C 
HETATM   13  C10 UNL     1      26.106   7.161  47.534  1.00  0.00     0.005 C 
HETATM   14  C11 UNL     1      24.738   7.689  47.437  1.00  0.00     0.041 C 
HETATM   15  C12 UNL     1      23.931   6.687  48.346  1.00  0.00    -0.030 C 
HETATM   16  C13 UNL     1      23.596   7.086  49.595  1.00  0.00     0.121 C 
HETATM   17  C14 UNL     1      23.362   5.338  48.107  1.00  0.00    -0.016 A 
HETATM   18  C15 UNL     1      22.576   5.943  47.063  1.00  0.00     0.013 A 
HETATM   19  C16 UNL     1      21.661   5.125  46.360  1.00  0.00     0.001 A 
HETATM   20  C17 UNL     1      21.393   3.661  46.573  1.00  0.00     0.001 A 
HETATM   21  C18 UNL     1      22.288   3.327  47.627  1.00  0.00     0.014 A 
HETATM   22  C19 UNL     1      23.151   4.080  48.290  1.00  0.00     0.003 A 
ENDROOT
BRANCH   1  23
HETATM   23  N2  UNL     1      22.009   6.691  51.597  1.00  0.00    -0.154 NA
HETATM   24  H3  UNL     1      22.383   6.898  52.535  1.00  0.00     0.168 HD
BRANCH  23  25
HETATM   25  N1  UNL     1      21.221   7.821  51.096  1.00  0.00    -0.185 NA
HETATM   26  H2  UNL     1      21.949   8.401  50.529  1.00  0.00     0.156 HD
BRANCH  25  27
HETATM   27  S1  UNL     1      20.137   7.024  49.890  1.00  0.00    -0.081 SA
HETATM   28  H1  UNL     1      19.805   8.010  48.943  1.00  0.00     0.120 HD
ENDBRANCH  25  27
ENDBRANCH  23  25
ENDBRANCH   1  23
TORSDOF 3
ENDMDL
MODEL 7
REMARK VINA RESULT:      -7.2      2.485      4.723
REMARK  3 active torsions:
REMARK  status: ('A' for Active; 'I' for Inactive)
REMARK    1  A    between atoms: S1_1  and  N1_2 
REMARK    2  A    between atoms: N1_2  and  N2_3 
REMARK    3  A    between atoms: N2_3  and  N3_4 
ROOT
HETATM    1  N3  UNL     1      22.420   2.199  48.941  1.00  0.00    -0.267 N 
HETATM    2  C1  UNL     1      23.851   2.501  49.100  1.00  0.00     0.229 C 
HETATM    3  N4  UNL     1      24.380   3.742  49.175  1.00  0.00    -0.236 NA
HETATM    4  C2  UNL     1      25.866   3.737  49.335  1.00  0.00     0.234 C 
HETATM    5  N5  UNL     1      26.032   3.314  50.616  1.00  0.00    -0.242 NA
HETATM    6  C3  UNL     1      24.785   3.034  51.322  1.00  0.00     0.066 C 
HETATM    7  C4  UNL     1      25.161   1.946  51.856  1.00  0.00     0.015 C 
HETATM    8  C5  UNL     1      24.587   0.973  52.680  1.00  0.00     0.044 C 
HETATM    9  C6  UNL     1      23.883   0.230  53.393  1.00  0.00    -0.021 C 
HETATM   10  C7  UNL     1      23.120  -0.680  54.235  1.00  0.00    -0.025 C 
HETATM   11  C8  UNL     1      21.722  -0.648  54.501  1.00  0.00     0.015 C 
HETATM   12  C9  UNL     1      20.442   0.227  54.090  1.00  0.00     0.009 C 
HETATM   13  C10 UNL     1      20.968   1.146  53.106  1.00  0.00     0.005 C 
HETATM   14  C11 UNL     1      20.252   2.059  52.203  1.00  0.00     0.041 C 
HETATM   15  C12 UNL     1      21.393   2.512  51.218  1.00  0.00    -0.030 C 
HETATM   16  C13 UNL     1      21.444   1.940  49.992  1.00  0.00     0.121 C 
HETATM   17  C14 UNL     1      22.461   3.539  51.310  1.00  0.00    -0.016 A 
HETATM   18  C15 UNL     1      21.405   4.505  51.466  1.00  0.00     0.013 A 
HETATM   19  C16 UNL     1      21.763   5.870  51.576  1.00  0.00     0.001 A 
HETATM   20  C17 UNL     1      23.147   6.456  51.546  1.00  0.00     0.001 A 
HETATM   21  C18 UNL     1      23.973   5.308  51.395  1.00  0.00     0.014 A 
HETATM   22  C19 UNL     1      23.653   4.028  51.295  1.00  0.00     0.003 A 
ENDROOT
BRANCH   1  23
HETATM   23  N2  UNL     1      22.324   2.175  47.572  1.00  0.00    -0.154 NA
HETATM   24  H3  UNL     1      21.641   1.543  47.127  1.00  0.00     0.168 HD
BRANCH  23  25
HETATM   25  N1  UNL     1      22.119   3.554  47.121  1.00  0.00    -0.185 NA
HETATM   26  H2  UNL     1      22.665   3.592  46.179  1.00  0.00     0.156 HD
BRANCH  25  27
HETATM   27  S1  UNL     1      20.361   3.562  46.706  1.00  0.00    -0.081 SA
HETATM   28  H1  UNL     1      20.188   4.565  45.734  1.00  0.00     0.120 HD
ENDBRANCH  25  27
ENDBRANCH  23  25
ENDBRANCH   1  23
TORSDOF 3
ENDMDL
MODEL 8
REMARK VINA RESULT:      -7.1      7.941      9.777
REMARK  3 active torsions:
REMARK  status: ('A' for Active; 'I' for Inactive)
REMARK    1  A    between atoms: S1_1  and  N1_2 
REMARK    2  A    between atoms: N1_2  and  N2_3 
REMARK    3  A    between atoms: N2_3  and  N3_4 
ROOT
HETATM    1  N3  UNL     1      30.341   9.543  48.810  1.00  0.00    -0.267 N 
HETATM    2  C1  UNL     1      29.142   8.789  49.212  1.00  0.00     0.229 C 
HETATM    3  N4  UNL     1      27.895   9.002  48.739  1.00  0.00    -0.236 NA
HETATM    4  C2  UNL     1      26.878   8.081  49.332  1.00  0.00     0.234 C 
HETATM    5  N5  UNL     1      27.170   6.890  48.746  1.00  0.00    -0.242 NA
HETATM    6  C3  UNL     1      28.294   6.938  47.816  1.00  0.00     0.066 C 
HETATM    7  C4  UNL     1      28.853   5.869  48.208  1.00  0.00     0.015 C 
HETATM    8  C5  UNL     1      30.015   5.159  47.887  1.00  0.00     0.044 C 
HETATM    9  C6  UNL     1      31.093   4.701  47.458  1.00  0.00    -0.021 C 
HETATM   10  C7  UNL     1      32.341   4.108  47.001  1.00  0.00    -0.025 C 
HETATM   11  C8  UNL     1      33.312   4.691  46.138  1.00  0.00     0.015 C 
HETATM   12  C9  UNL     1      33.544   6.068  45.349  1.00  0.00     0.009 C 
HETATM   13  C10 UNL     1      32.441   6.894  45.787  1.00  0.00     0.005 C 
HETATM   14  C11 UNL     1      32.214   8.332  45.587  1.00  0.00     0.041 C 
HETATM   15  C12 UNL     1      31.016   8.617  46.568  1.00  0.00    -0.030 C 
HETATM   16  C13 UNL     1      31.290   9.207  47.755  1.00  0.00     0.121 C 
HETATM   17  C14 UNL     1      29.548   8.432  46.455  1.00  0.00    -0.016 A 
HETATM   18  C15 UNL     1      29.604   9.324  45.326  1.00  0.00     0.013 A 
HETATM   19  C16 UNL     1      28.390   9.660  44.682  1.00  0.00     0.001 A 
HETATM   20  C17 UNL     1      27.007   9.193  45.040  1.00  0.00     0.001 A 
HETATM   21  C18 UNL     1      27.240   8.341  46.155  1.00  0.00     0.014 A 
HETATM   22  C19 UNL     1      28.369   8.015  46.764  1.00  0.00     0.003 A 
ENDROOT
BRANCH   1  23
HETATM   23  N2  UNL     1      30.313  10.559  49.732  1.00  0.00    -0.154 NA
HETATM   24  H3  UNL     1      31.182  11.071  49.941  1.00  0.00     0.168 HD
BRANCH  23  25
HETATM   25  N1  UNL     1      29.251  11.486  49.332  1.00  0.00    -0.185 NA
HETATM   26  H2  UNL     1      29.003  11.998  50.262  1.00  0.00     0.156 HD
BRANCH  25  27
HETATM   27  S1  UNL     1      30.148  12.673  48.307  1.00  0.00    -0.081 SA
HETATM   28  H1  UNL     1      29.304  12.978  47.223  1.00  0.00     0.120 HD
ENDBRANCH  25  27
ENDBRANCH  23  25
ENDBRANCH   1  23
TORSDOF 3
ENDMDL
MODEL 9
REMARK VINA RESULT:      -7.0      2.397      4.514
REMARK  3 active torsions:
REMARK  status: ('A' for Active; 'I' for Inactive)
REMARK    1  A    between atoms: S1_1  and  N1_2 
REMARK    2  A    between atoms: N1_2  and  N2_3 
REMARK    3  A    between atoms: N2_3  and  N3_4 
ROOT
HETATM    1  N3  UNL     1      22.221   1.763  49.048  1.00  0.00    -0.267 N 
HETATM    2  C1  UNL     1      23.092   2.859  48.595  1.00  0.00     0.229 C 
HETATM    3  N4  UNL     1      22.828   4.176  48.745  1.00  0.00    -0.236 NA
HETATM    4  C2  UNL     1      23.898   5.056  48.185  1.00  0.00     0.234 C 
HETATM    5  N5  UNL     1      24.915   4.899  49.073  1.00  0.00    -0.242 NA
HETATM    6  C3  UNL     1      24.615   3.990  50.175  1.00  0.00     0.066 C 
HETATM    7  C4  UNL     1      25.722   3.370  50.157  1.00  0.00     0.015 C 
HETATM    8  C5  UNL     1      26.296   2.304  50.858  1.00  0.00     0.044 C 
HETATM    9  C6  UNL     1      26.603   1.340  51.588  1.00  0.00    -0.021 C 
HETATM   10  C7  UNL     1      27.028   0.217  52.410  1.00  0.00    -0.025 C 
HETATM   11  C8  UNL     1      26.229  -0.561  53.295  1.00  0.00     0.015 C 
HETATM   12  C9  UNL     1      24.703  -0.636  53.781  1.00  0.00     0.009 C 
HETATM   13  C10 UNL     1      24.040   0.347  52.953  1.00  0.00     0.005 C 
HETATM   14  C11 UNL     1      22.604   0.600  52.771  1.00  0.00     0.041 C 
HETATM   15  C12 UNL     1      22.593   1.569  51.530  1.00  0.00    -0.030 C 
HETATM   16  C13 UNL     1      22.273   1.053  50.320  1.00  0.00     0.121 C 
HETATM   17  C14 UNL     1      22.806   3.030  51.385  1.00  0.00    -0.016 A 
HETATM   18  C15 UNL     1      21.683   3.200  52.269  1.00  0.00     0.013 A 
HETATM   19  C16 UNL     1      21.259   4.518  52.561  1.00  0.00     0.001 A 
HETATM   20  C17 UNL     1      21.849   5.802  52.047  1.00  0.00     0.001 A 
HETATM   21  C18 UNL     1      22.919   5.352  51.226  1.00  0.00     0.014 A 
HETATM   22  C19 UNL     1      23.328   4.124  50.948  1.00  0.00     0.003 A 
ENDROOT
BRANCH   1  23
HETATM   23  N2  UNL     1      21.439   1.594  47.933  1.00  0.00    -0.154 NA
HETATM   24  H3  UNL     1      21.391   0.665  47.489  1.00  0.00     0.168 HD
BRANCH  23  25
HETATM   25  N1  UNL     1      20.094   2.078  48.261  1.00  0.00    -0.185 NA
HETATM   26  H2  UNL     1      20.255   2.668  49.164  1.00  0.00     0.156 HD
BRANCH  25  27
HETATM   27  S1  UNL     1      19.775   3.248  46.923  1.00  0.00    -0.081 SA
HETATM   28  H1  UNL     1      18.657   2.756  46.224  1.00  0.00     0.120 HD
ENDBRANCH  25  27
ENDBRANCH  23  25
ENDBRANCH   1  23
TORSDOF 3
ENDMDL
