MODEL 1
REMARK VINA RESULT:      -7.4      0.000      0.000
REMARK  5 active torsions:
REMARK  status: ('A' for Active; 'I' for Inactive)
REMARK    1  A    between atoms: C4_4  and  C5_5 
REMARK    2  A    between atoms: C11_13  and  N3_14 
REMARK    3  A    between atoms: N3_14  and  C12_15 
REMARK    4  A    between atoms: C12_15  and  C13_17 
REMARK    5  A    between atoms: C13_17  and  P1_18 
ROOT
HETATM    1  C1  UNL     1      18.939  -0.215  52.798  1.00  0.00     0.017 C 
HETATM    2  C2  UNL     1      19.717  -0.896  53.433  1.00  0.00    -0.089 C 
HETATM    3  C3  UNL     1      20.641  -1.711  54.167  1.00  0.00     0.063 C 
HETATM    4  C4  UNL     1      21.938  -1.441  54.173  1.00  0.00     0.011 C 
ENDROOT
BRANCH   4   5
HETATM    5  C5  UNL     1      22.472  -0.310  53.437  1.00  0.00     0.026 C 
HETATM    6  C6  UNL     1      23.762   0.039  53.531  1.00  0.00     0.015 A 
HETATM    7  C7  UNL     1      24.459   1.157  52.851  1.00  0.00     0.103 A 
HETATM    8  N4  UNL     1      24.727  -0.628  54.330  1.00  0.00    -0.344 N 
HETATM    9  C8  UNL     1      25.843   1.015  53.359  1.00  0.00     0.039 A 
HETATM   10  C9  UNL     1      26.014  -0.036  54.233  1.00  0.00     0.139 A 
HETATM   11  C11 UNL     1      26.944   1.795  53.060  1.00  0.00     0.137 A 
HETATM   12  N1  UNL     1      27.229  -0.259  54.757  1.00  0.00    -0.224 NA
HETATM   13  C10 UNL     1      28.288   0.536  54.434  1.00  0.00     0.237 A 
HETATM   14  N2  UNL     1      28.159   1.567  53.586  1.00  0.00    -0.224 NA
HETATM   15  H16 UNL     1      24.532  -1.466  54.934  1.00  0.00     0.167 HD
BRANCH  11  16
HETATM   16  N3  UNL     1      26.911   2.921  52.163  1.00  0.00    -0.340 N 
HETATM   17  H8  UNL     1      26.938   3.861  52.662  1.00  0.00     0.164 HD
BRANCH  16  18
HETATM   18  C12 UNL     1      26.849   2.956  50.736  1.00  0.00     0.304 C 
HETATM   19  F1  UNL     1      26.699   1.686  50.183  1.00  0.00    -0.222 F 
BRANCH  18  20
HETATM   20  C13 UNL     1      25.682   3.756  50.212  1.00  0.00    -0.010 C 
HETATM   21  C14 UNL     1      24.490   3.200  49.906  1.00  0.00    -0.019 C 
HETATM   22  C15 UNL     1      23.133   3.593  49.386  1.00  0.00     0.036 C 
BRANCH  20  23
HETATM   23  P1  UNL     1      25.392   5.519  49.820  1.00  0.00    -0.106 P 
HETATM   24  H10 UNL     1      25.619   5.839  48.436  1.00  0.00     0.059 HD
HETATM   25  H11 UNL     1      26.121   6.392  50.722  1.00  0.00     0.059 HD
ENDBRANCH  20  23
ENDBRANCH  18  20
ENDBRANCH  16  18
ENDBRANCH  11  16
ENDBRANCH   4   5
TORSDOF 5
ENDMDL
MODEL 2
REMARK VINA RESULT:      -7.4      2.878      6.151
REMARK  5 active torsions:
REMARK  status: ('A' for Active; 'I' for Inactive)
REMARK    1  A    between atoms: C4_4  and  C5_5 
REMARK    2  A    between atoms: C11_13  and  N3_14 
REMARK    3  A    between atoms: N3_14  and  C12_15 
REMARK    4  A    between atoms: C12_15  and  C13_17 
REMARK    5  A    between atoms: C13_17  and  P1_18 
ROOT
HETATM    1  C1  UNL     1      28.591  -2.731  53.035  1.00  0.00     0.017 C 
HETATM    2  C2  UNL     1      29.210  -1.731  53.333  1.00  0.00    -0.089 C 
HETATM    3  C3  UNL     1      29.935  -0.540  53.669  1.00  0.00     0.063 C 
HETATM    4  C4  UNL     1      29.310   0.546  54.098  1.00  0.00     0.011 C 
ENDROOT
BRANCH   4   5
HETATM    5  C5  UNL     1      27.867   0.572  54.245  1.00  0.00     0.026 C 
HETATM    6  C6  UNL     1      27.087   1.223  53.371  1.00  0.00     0.015 A 
HETATM    7  C7  UNL     1      25.609   1.344  53.378  1.00  0.00     0.103 A 
HETATM    8  N4  UNL     1      27.558   1.939  52.239  1.00  0.00    -0.344 N 
HETATM    9  C8  UNL     1      25.361   2.171  52.174  1.00  0.00     0.039 A 
HETATM   10  C9  UNL     1      26.503   2.528  51.493  1.00  0.00     0.139 A 
HETATM   11  C11 UNL     1      24.147   2.607  51.677  1.00  0.00     0.137 A 
HETATM   12  N1  UNL     1      26.397   3.278  50.386  1.00  0.00    -0.224 NA
HETATM   13  C10 UNL     1      25.178   3.686  49.931  1.00  0.00     0.237 A 
HETATM   14  N2  UNL     1      24.045   3.357  50.567  1.00  0.00    -0.224 NA
HETATM   15  H16 UNL     1      28.568   2.035  51.967  1.00  0.00     0.167 HD
BRANCH  11  16
HETATM   16  N3  UNL     1      22.875   2.307  52.285  1.00  0.00    -0.340 N 
HETATM   17  H8  UNL     1      22.707   2.833  53.195  1.00  0.00     0.164 HD
BRANCH  16  18
HETATM   18  C12 UNL     1      21.836   1.430  51.852  1.00  0.00     0.304 C 
HETATM   19  F1  UNL     1      22.209   0.677  50.740  1.00  0.00    -0.222 F 
BRANCH  18  20
HETATM   20  C13 UNL     1      21.437   0.419  52.898  1.00  0.00    -0.010 C 
HETATM   21  C14 UNL     1      22.319  -0.129  53.762  1.00  0.00    -0.019 C 
HETATM   22  C15 UNL     1      22.360  -1.115  54.899  1.00  0.00     0.036 C 
BRANCH  20  23
HETATM   23  P1  UNL     1      19.870  -0.385  53.392  1.00  0.00    -0.106 P 
HETATM   24  H10 UNL     1      19.936  -1.822  53.370  1.00  0.00     0.059 HD
HETATM   25  H11 UNL     1      18.744   0.135  52.638  1.00  0.00     0.059 HD
ENDBRANCH  20  23
ENDBRANCH  18  20
ENDBRANCH  16  18
ENDBRANCH  11  16
ENDBRANCH   4   5
TORSDOF 5
ENDMDL
MODEL 3
REMARK VINA RESULT:      -7.3      2.653      5.475
REMARK  5 active torsions:
REMARK  status: ('A' for Active; 'I' for Inactive)
REMARK    1  A    between atoms: C4_4  and  C5_5 
REMARK    2  A    between atoms: C11_13  and  N3_14 
REMARK    3  A    between atoms: N3_14  and  C12_15 
REMARK    4  A    between atoms: C12_15  and  C13_17 
REMARK    5  A    between atoms: C13_17  and  P1_18 
ROOT
HETATM    1  C1  UNL     1      28.825  -2.703  52.852  1.00  0.00     0.017 C 
HETATM    2  C2  UNL     1      29.272  -1.700  53.369  1.00  0.00    -0.089 C 
HETATM    3  C3  UNL     1      29.808  -0.510  53.963  1.00  0.00     0.063 C 
HETATM    4  C4  UNL     1      29.228   0.667  53.785  1.00  0.00     0.011 C 
ENDROOT
BRANCH   4   5
HETATM    5  C5  UNL     1      28.027   0.797  52.981  1.00  0.00     0.026 C 
HETATM    6  C6  UNL     1      26.843   0.344  53.415  1.00  0.00     0.015 A 
HETATM    7  C7  UNL     1      25.533   0.399  52.723  1.00  0.00     0.103 A 
HETATM    8  N4  UNL     1      26.627  -0.294  54.665  1.00  0.00    -0.344 N 
HETATM    9  C8  UNL     1      24.636  -0.255  53.704  1.00  0.00     0.039 A 
HETATM   10  C9  UNL     1      25.270  -0.667  54.855  1.00  0.00     0.139 A 
HETATM   11  C11 UNL     1      23.278  -0.486  53.594  1.00  0.00     0.137 A 
HETATM   12  N1  UNL     1      24.554  -1.273  55.815  1.00  0.00    -0.224 NA
HETATM   13  C10 UNL     1      23.215  -1.481  55.663  1.00  0.00     0.237 A 
HETATM   14  N2  UNL     1      22.564  -1.092  54.557  1.00  0.00    -0.224 NA
HETATM   15  H16 UNL     1      27.372  -0.478  55.382  1.00  0.00     0.167 HD
BRANCH  11  16
HETATM   16  N3  UNL     1      22.489  -0.106  52.450  1.00  0.00    -0.340 N 
HETATM   17  H8  UNL     1      22.326  -0.904  51.765  1.00  0.00     0.164 HD
BRANCH  16  18
HETATM   18  C12 UNL     1      21.909   1.154  52.113  1.00  0.00     0.304 C 
HETATM   19  F1  UNL     1      22.396   2.189  52.909  1.00  0.00    -0.222 F 
BRANCH  18  20
HETATM   20  C13 UNL     1      22.195   1.580  50.694  1.00  0.00    -0.010 C 
HETATM   21  C14 UNL     1      23.202   2.419  50.369  1.00  0.00    -0.019 C 
HETATM   22  C15 UNL     1      23.814   3.072  49.158  1.00  0.00     0.036 C 
BRANCH  20  23
HETATM   23  P1  UNL     1      21.452   1.224  49.061  1.00  0.00    -0.106 P 
HETATM   24  H10 UNL     1      22.244   1.705  47.959  1.00  0.00     0.059 HD
HETATM   25  H11 UNL     1      20.073   1.671  48.994  1.00  0.00     0.059 HD
ENDBRANCH  20  23
ENDBRANCH  18  20
ENDBRANCH  16  18
ENDBRANCH  11  16
ENDBRANCH   4   5
TORSDOF 5
ENDMDL
MODEL 4
REMARK VINA RESULT:      -7.3      1.630      2.085
REMARK  5 active torsions:
REMARK  status: ('A' for Active; 'I' for Inactive)
REMARK    1  A    between atoms: C4_4  and  C5_5 
REMARK    2  A    between atoms: C11_13  and  N3_14 
REMARK    3  A    between atoms: N3_14  and  C12_15 
REMARK    4  A    between atoms: C12_15  and  C13_17 
REMARK    5  A    between atoms: C13_17  and  P1_18 
ROOT
HETATM    1  C1  UNL     1      18.192   0.054  51.348  1.00  0.00     0.017 C 
HETATM    2  C2  UNL     1      18.755  -0.386  52.329  1.00  0.00    -0.089 C 
HETATM    3  C3  UNL     1      19.432  -0.916  53.476  1.00  0.00     0.063 C 
HETATM    4  C4  UNL     1      20.608  -0.441  53.859  1.00  0.00     0.011 C 
ENDROOT
BRANCH   4   5
HETATM    5  C5  UNL     1      21.256   0.634  53.130  1.00  0.00     0.026 C 
HETATM    6  C6  UNL     1      22.588   0.685  52.999  1.00  0.00     0.015 A 
HETATM    7  C7  UNL     1      23.398   1.706  52.292  1.00  0.00     0.103 A 
HETATM    8  N4  UNL     1      23.494  -0.267  53.534  1.00  0.00    -0.344 N 
HETATM    9  C8  UNL     1      24.778   1.209  52.505  1.00  0.00     0.039 A 
HETATM   10  C9  UNL     1      24.847   0.045  53.237  1.00  0.00     0.139 A 
HETATM   11  C11 UNL     1      25.962   1.769  52.063  1.00  0.00     0.137 A 
HETATM   12  N1  UNL     1      26.049  -0.497  53.491  1.00  0.00    -0.224 NA
HETATM   13  C10 UNL     1      27.192   0.089  53.035  1.00  0.00     0.237 A 
HETATM   14  N2  UNL     1      27.162   1.223  52.319  1.00  0.00    -0.224 NA
HETATM   15  H16 UNL     1      23.216  -1.114  54.091  1.00  0.00     0.167 HD
BRANCH  11  16
HETATM   16  N3  UNL     1      26.038   2.980  51.287  1.00  0.00    -0.340 N 
HETATM   17  H8  UNL     1      26.133   3.858  51.881  1.00  0.00     0.164 HD
BRANCH  16  18
HETATM   18  C12 UNL     1      26.004   3.168  49.872  1.00  0.00     0.304 C 
HETATM   19  F1  UNL     1      24.747   2.899  49.333  1.00  0.00    -0.222 F 
BRANCH  18  20
HETATM   20  C13 UNL     1      26.321   4.581  49.451  1.00  0.00    -0.010 C 
HETATM   21  C14 UNL     1      27.436   4.910  48.764  1.00  0.00    -0.019 C 
HETATM   22  C15 UNL     1      28.114   6.118  48.174  1.00  0.00     0.036 C 
BRANCH  20  23
HETATM   23  P1  UNL     1      25.497   6.204  49.640  1.00  0.00    -0.106 P 
HETATM   24  H10 UNL     1      25.072   6.472  50.988  1.00  0.00     0.059 HD
HETATM   25  H11 UNL     1      24.429   6.374  48.672  1.00  0.00     0.059 HD
ENDBRANCH  20  23
ENDBRANCH  18  20
ENDBRANCH  16  18
ENDBRANCH  11  16
ENDBRANCH   4   5
TORSDOF 5
ENDMDL
MODEL 5
REMARK VINA RESULT:      -7.2      2.594      5.387
REMARK  5 active torsions:
REMARK  status: ('A' for Active; 'I' for Inactive)
REMARK    1  A    between atoms: C4_4  and  C5_5 
REMARK    2  A    between atoms: C11_13  and  N3_14 
REMARK    3  A    between atoms: N3_14  and  C12_15 
REMARK    4  A    between atoms: C12_15  and  C13_17 
REMARK    5  A    between atoms: C13_17  and  P1_18 
ROOT
HETATM    1  C1  UNL     1      29.029   2.396  53.828  1.00  0.00     0.017 C 
HETATM    2  C2  UNL     1      28.965   1.186  53.759  1.00  0.00    -0.089 C 
HETATM    3  C3  UNL     1      28.876  -0.243  53.690  1.00  0.00     0.063 C 
HETATM    4  C4  UNL     1      27.895  -0.839  53.028  1.00  0.00     0.011 C 
ENDROOT
BRANCH   4   5
HETATM    5  C5  UNL     1      26.874  -0.065  52.346  1.00  0.00     0.026 C 
HETATM    6  C6  UNL     1      25.602  -0.061  52.768  1.00  0.00     0.015 A 
HETATM    7  C7  UNL     1      24.449   0.669  52.188  1.00  0.00     0.103 A 
HETATM    8  N4  UNL     1      25.117  -0.784  53.889  1.00  0.00    -0.344 N 
HETATM    9  C8  UNL     1      23.343   0.267  53.090  1.00  0.00     0.039 A 
HETATM   10  C9  UNL     1      23.726  -0.590  54.097  1.00  0.00     0.139 A 
HETATM   11  C11 UNL     1      22.016   0.648  53.031  1.00  0.00     0.137 A 
HETATM   12  N1  UNL     1      22.804  -1.020  54.974  1.00  0.00    -0.224 NA
HETATM   13  C10 UNL     1      21.505  -0.618  54.878  1.00  0.00     0.237 A 
HETATM   14  N2  UNL     1      21.098   0.216  53.911  1.00  0.00    -0.224 NA
HETATM   15  H16 UNL     1      25.703  -1.400  54.506  1.00  0.00     0.167 HD
BRANCH  11  16
HETATM   16  N3  UNL     1      21.480   1.540  52.034  1.00  0.00    -0.340 N 
HETATM   17  H8  UNL     1      20.874   1.049  51.310  1.00  0.00     0.164 HD
BRANCH  16  18
HETATM   18  C12 UNL     1      21.640   2.950  51.883  1.00  0.00     0.304 C 
HETATM   19  F1  UNL     1      22.675   3.452  52.671  1.00  0.00    -0.222 F 
BRANCH  18  20
HETATM   20  C13 UNL     1      21.981   3.362  50.473  1.00  0.00    -0.010 C 
HETATM   21  C14 UNL     1      22.251   2.471  49.493  1.00  0.00    -0.019 C 
HETATM   22  C15 UNL     1      22.617   2.438  48.033  1.00  0.00     0.036 C 
BRANCH  20  23
HETATM   23  P1  UNL     1      22.156   4.958  49.595  1.00  0.00    -0.106 P 
HETATM   24  H10 UNL     1      23.235   5.767  50.097  1.00  0.00     0.059 HD
HETATM   25  H11 UNL     1      20.896   5.677  49.543  1.00  0.00     0.059 HD
ENDBRANCH  20  23
ENDBRANCH  18  20
ENDBRANCH  16  18
ENDBRANCH  11  16
ENDBRANCH   4   5
TORSDOF 5
ENDMDL
MODEL 6
REMARK VINA RESULT:      -7.1      2.878      4.846
REMARK  5 active torsions:
REMARK  status: ('A' for Active; 'I' for Inactive)
REMARK    1  A    between atoms: C4_4  and  C5_5 
REMARK    2  A    between atoms: C11_13  and  N3_14 
REMARK    3  A    between atoms: N3_14  and  C12_15 
REMARK    4  A    between atoms: C12_15  and  C13_17 
REMARK    5  A    between atoms: C13_17  and  P1_18 
ROOT
HETATM    1  C1  UNL     1      18.457   2.551  48.818  1.00  0.00     0.017 C 
HETATM    2  C2  UNL     1      18.164   1.725  49.657  1.00  0.00    -0.089 C 
HETATM    3  C3  UNL     1      17.824   0.735  50.637  1.00  0.00     0.063 C 
HETATM    4  C4  UNL     1      18.758   0.142  51.366  1.00  0.00     0.011 C 
ENDROOT
BRANCH   4   5
HETATM    5  C5  UNL     1      20.161   0.474  51.202  1.00  0.00     0.026 C 
HETATM    6  C6  UNL     1      21.076   0.111  52.110  1.00  0.00     0.015 A 
HETATM    7  C7  UNL     1      22.536   0.369  52.090  1.00  0.00     0.103 A 
HETATM    8  N4  UNL     1      20.797  -0.613  53.298  1.00  0.00    -0.344 N 
HETATM    9  C8  UNL     1      22.981  -0.272  53.350  1.00  0.00     0.039 A 
HETATM   10  C9  UNL     1      21.963  -0.856  54.071  1.00  0.00     0.139 A 
HETATM   11  C11 UNL     1      24.263  -0.346  53.860  1.00  0.00     0.137 A 
HETATM   12  N1  UNL     1      22.252  -1.467  55.231  1.00  0.00    -0.224 NA
HETATM   13  C10 UNL     1      23.532  -1.516  55.697  1.00  0.00     0.237 A 
HETATM   14  N2  UNL     1      24.548  -0.960  55.021  1.00  0.00    -0.224 NA
HETATM   15  H16 UNL     1      19.843  -0.942  53.592  1.00  0.00     0.167 HD
BRANCH  11  16
HETATM   16  N3  UNL     1      25.420   0.216  53.212  1.00  0.00    -0.340 N 
HETATM   17  H8  UNL     1      25.441   1.280  53.232  1.00  0.00     0.164 HD
BRANCH  16  18
HETATM   18  C12 UNL     1      26.514  -0.432  52.563  1.00  0.00     0.304 C 
HETATM   19  F1  UNL     1      26.616  -0.079  51.218  1.00  0.00    -0.222 F 
BRANCH  18  20
HETATM   20  C13 UNL     1      27.853  -0.084  53.164  1.00  0.00    -0.010 C 
HETATM   21  C14 UNL     1      28.843  -0.989  53.325  1.00  0.00    -0.019 C 
HETATM   22  C15 UNL     1      30.252  -1.077  53.847  1.00  0.00     0.036 C 
BRANCH  20  23
HETATM   23  P1  UNL     1      28.617   1.439  53.830  1.00  0.00    -0.106 P 
HETATM   24  H10 UNL     1      29.674   1.955  53.001  1.00  0.00     0.059 HD
HETATM   25  H11 UNL     1      29.025   1.269  55.213  1.00  0.00     0.059 HD
ENDBRANCH  20  23
ENDBRANCH  18  20
ENDBRANCH  16  18
ENDBRANCH  11  16
ENDBRANCH   4   5
TORSDOF 5
ENDMDL
MODEL 7
REMARK VINA RESULT:      -7.1      3.168      6.361
REMARK  5 active torsions:
REMARK  status: ('A' for Active; 'I' for Inactive)
REMARK    1  A    between atoms: C4_4  and  C5_5 
REMARK    2  A    between atoms: C11_13  and  N3_14 
REMARK    3  A    between atoms: N3_14  and  C12_15 
REMARK    4  A    between atoms: C12_15  and  C13_17 
REMARK    5  A    between atoms: C13_17  and  P1_18 
ROOT
HETATM    1  C1  UNL     1      25.839   7.369  48.723  1.00  0.00     0.017 C 
HETATM    2  C2  UNL     1      26.600   6.426  48.648  1.00  0.00    -0.089 C 
HETATM    3  C3  UNL     1      27.503   5.315  48.579  1.00  0.00     0.063 C 
HETATM    4  C4  UNL     1      27.171   4.129  49.067  1.00  0.00     0.011 C 
ENDROOT
BRANCH   4   5
HETATM    5  C5  UNL     1      25.878   3.910  49.689  1.00  0.00     0.026 C 
HETATM    6  C6  UNL     1      25.690   2.928  50.581  1.00  0.00     0.015 A 
HETATM    7  C7  UNL     1      24.442   2.575  51.301  1.00  0.00     0.103 A 
HETATM    8  N4  UNL     1      26.690   2.018  51.010  1.00  0.00    -0.344 N 
HETATM    9  C8  UNL     1      24.877   1.422  52.125  1.00  0.00     0.039 A 
HETATM   10  C9  UNL     1      26.202   1.085  51.962  1.00  0.00     0.139 A 
HETATM   11  C11 UNL     1      24.121   0.676  53.010  1.00  0.00     0.137 A 
HETATM   12  N1  UNL     1      26.704   0.054  52.660  1.00  0.00    -0.224 NA
HETATM   13  C10 UNL     1      25.922  -0.655  53.523  1.00  0.00     0.237 A 
HETATM   14  N2  UNL     1      24.628  -0.354  53.707  1.00  0.00    -0.224 NA
HETATM   15  H16 UNL     1      27.686   2.017  50.673  1.00  0.00     0.167 HD
BRANCH  11  16
HETATM   16  N3  UNL     1      22.727   0.919  53.280  1.00  0.00    -0.340 N 
HETATM   17  H8  UNL     1      22.533   1.896  53.654  1.00  0.00     0.164 HD
BRANCH  16  18
HETATM   18  C12 UNL     1      21.598   0.060  53.121  1.00  0.00     0.304 C 
HETATM   19  F1  UNL     1      20.690   0.181  54.171  1.00  0.00    -0.222 F 
BRANCH  18  20
HETATM   20  C13 UNL     1      20.801   0.350  51.874  1.00  0.00    -0.010 C 
HETATM   21  C14 UNL     1      21.376   0.674  50.695  1.00  0.00    -0.019 C 
HETATM   22  C15 UNL     1      20.991   1.022  49.281  1.00  0.00     0.036 C 
BRANCH  20  23
HETATM   23  P1  UNL     1      19.021   0.390  51.454  1.00  0.00    -0.106 P 
HETATM   24  H10 UNL     1      18.772   0.508  50.041  1.00  0.00     0.059 HD
HETATM   25  H11 UNL     1      18.313   1.391  52.231  1.00  0.00     0.059 HD
ENDBRANCH  20  23
ENDBRANCH  18  20
ENDBRANCH  16  18
ENDBRANCH  11  16
ENDBRANCH   4   5
TORSDOF 5
ENDMDL
MODEL 8
REMARK VINA RESULT:      -7.0      2.803      6.012
REMARK  5 active torsions:
REMARK  status: ('A' for Active; 'I' for Inactive)
REMARK    1  A    between atoms: C4_4  and  C5_5 
REMARK    2  A    between atoms: C11_13  and  N3_14 
REMARK    3  A    between atoms: N3_14  and  C12_15 
REMARK    4  A    between atoms: C12_15  and  C13_17 
REMARK    5  A    between atoms: C13_17  and  P1_18 
ROOT
HETATM    1  C1  UNL     1      23.910   6.931  51.099  1.00  0.00     0.017 C 
HETATM    2  C2  UNL     1      23.558   6.279  50.137  1.00  0.00    -0.089 C 
HETATM    3  C3  UNL     1      23.160   5.513  48.992  1.00  0.00     0.063 C 
HETATM    4  C4  UNL     1      23.609   4.282  48.800  1.00  0.00     0.011 C 
ENDROOT
BRANCH   4   5
HETATM    5  C5  UNL     1      24.521   3.661  49.743  1.00  0.00     0.026 C 
HETATM    6  C6  UNL     1      24.116   2.687  50.569  1.00  0.00     0.015 A 
HETATM    7  C7  UNL     1      24.916   1.956  51.581  1.00  0.00     0.103 A 
HETATM    8  N4  UNL     1      22.798   2.163  50.621  1.00  0.00    -0.344 N 
HETATM    9  C8  UNL     1      23.914   1.025  52.153  1.00  0.00     0.039 A 
HETATM   10  C9  UNL     1      22.661   1.138  51.594  1.00  0.00     0.139 A 
HETATM   11  C11 UNL     1      24.097   0.088  53.152  1.00  0.00     0.137 A 
HETATM   12  N1  UNL     1      21.674   0.343  52.036  1.00  0.00    -0.224 NA
HETATM   13  C10 UNL     1      21.900  -0.569  53.024  1.00  0.00     0.237 A 
HETATM   14  N2  UNL     1      23.107  -0.707  53.591  1.00  0.00    -0.224 NA
HETATM   15  H16 UNL     1      22.000   2.484  50.019  1.00  0.00     0.167 HD
BRANCH  11  16
HETATM   16  N3  UNL     1      25.353  -0.139  53.822  1.00  0.00    -0.340 N 
HETATM   17  H8  UNL     1      25.403   0.303  54.788  1.00  0.00     0.164 HD
BRANCH  16  18
HETATM   18  C12 UNL     1      26.509  -0.854  53.385  1.00  0.00     0.304 C 
HETATM   19  F1  UNL     1      26.444  -1.190  52.034  1.00  0.00    -0.222 F 
BRANCH  18  20
HETATM   20  C13 UNL     1      27.787  -0.066  53.535  1.00  0.00    -0.010 C 
HETATM   21  C14 UNL     1      27.813   1.283  53.595  1.00  0.00    -0.019 C 
HETATM   22  C15 UNL     1      28.800   2.412  53.733  1.00  0.00     0.036 C 
BRANCH  20  23
HETATM   23  P1  UNL     1      29.560  -0.490  53.680  1.00  0.00    -0.106 P 
HETATM   24  H10 UNL     1      30.271  -0.396  52.432  1.00  0.00     0.059 HD
HETATM   25  H11 UNL     1      29.750  -1.770  54.336  1.00  0.00     0.059 HD
ENDBRANCH  20  23
ENDBRANCH  18  20
ENDBRANCH  16  18
ENDBRANCH  11  16
ENDBRANCH   4   5
TORSDOF 5
ENDMDL
MODEL 9
REMARK VINA RESULT:      -6.6      3.225      6.301
REMARK  5 active torsions:
REMARK  status: ('A' for Active; 'I' for Inactive)
REMARK    1  A    between atoms: C4_4  and  C5_5 
REMARK    2  A    between atoms: C11_13  and  N3_14 
REMARK    3  A    between atoms: N3_14  and  C12_15 
REMARK    4  A    between atoms: C12_15  and  C13_17 
REMARK    5  A    between atoms: C13_17  and  P1_18 
ROOT
HETATM    1  C1  UNL     1      21.205   7.364  50.302  1.00  0.00     0.017 C 
HETATM    2  C2  UNL     1      22.353   7.208  50.665  1.00  0.00    -0.089 C 
HETATM    3  C3  UNL     1      23.703   7.025  51.112  1.00  0.00     0.063 C 
HETATM    4  C4  UNL     1      24.121   5.856  51.574  1.00  0.00     0.011 C 
ENDROOT
BRANCH   4   5
HETATM    5  C5  UNL     1      23.226   4.715  51.645  1.00  0.00     0.026 C 
HETATM    6  C6  UNL     1      23.617   3.554  52.186  1.00  0.00     0.015 A 
HETATM    7  C7  UNL     1      22.832   2.304  52.334  1.00  0.00     0.103 A 
HETATM    8  N4  UNL     1      24.902   3.305  52.734  1.00  0.00    -0.344 N 
HETATM    9  C8  UNL     1      23.806   1.403  52.994  1.00  0.00     0.039 A 
HETATM   10  C9  UNL     1      25.031   1.983  53.236  1.00  0.00     0.139 A 
HETATM   11  C11 UNL     1      23.622   0.089  53.381  1.00  0.00     0.137 A 
HETATM   12  N1  UNL     1      25.991   1.258  53.831  1.00  0.00    -0.224 NA
HETATM   13  C10 UNL     1      25.766  -0.036  54.196  1.00  0.00     0.237 A 
HETATM   14  N2  UNL     1      24.586  -0.633  53.977  1.00  0.00    -0.224 NA
HETATM   15  H16 UNL     1      25.684   4.006  52.774  1.00  0.00     0.167 HD
BRANCH  11  16
HETATM   16  N3  UNL     1      22.394  -0.640  53.192  1.00  0.00    -0.340 N 
HETATM   17  H8  UNL     1      22.372  -1.205  52.291  1.00  0.00     0.164 HD
BRANCH  16  18
HETATM   18  C12 UNL     1      21.233  -0.712  54.021  1.00  0.00     0.304 C 
HETATM   19  F1  UNL     1      21.223   0.277  55.003  1.00  0.00    -0.222 F 
BRANCH  18  20
HETATM   20  C13 UNL     1      19.946  -0.523  53.257  1.00  0.00    -0.010 C 
HETATM   21  C14 UNL     1      18.850  -1.284  53.468  1.00  0.00    -0.019 C 
HETATM   22  C15 UNL     1      17.438  -1.438  52.967  1.00  0.00     0.036 C 
BRANCH  20  23
HETATM   23  P1  UNL     1      19.375   0.611  51.940  1.00  0.00    -0.106 P 
HETATM   24  H10 UNL     1      20.317   0.748  50.860  1.00  0.00     0.059 HD
HETATM   25  H11 UNL     1      18.958   1.891  52.483  1.00  0.00     0.059 HD
ENDBRANCH  20  23
ENDBRANCH  18  20
ENDBRANCH  16  18
ENDBRANCH  11  16
ENDBRANCH   4   5
TORSDOF 5
ENDMDL
