MODEL 1
REMARK VINA RESULT:      -7.9      0.000      0.000
REMARK  6 active torsions:
REMARK  status: ('A' for Active; 'I' for Inactive)
REMARK    1  A    between atoms: O1_2  and  C2_3 
REMARK    2  A    between atoms: C8_11  and  N3_12 
REMARK    3  A    between atoms: N3_12  and  C9_13 
REMARK    4  A    between atoms: C17_22  and  N4_23 
REMARK    5  A    between atoms: N4_23  and  C18_24 
REMARK    6  A    between atoms: C18_24  and  C19_25 
ROOT
HETATM    1  C2  UNL     1      19.991  -0.716  53.487  1.00  0.00     0.096 A 
HETATM    2  C3  UNL     1      20.779  -1.199  54.512  1.00  0.00     0.071 A 
HETATM    3  C4  UNL     1      22.145  -1.001  54.492  1.00  0.00     0.071 A 
HETATM    4  N1  UNL     1      22.897  -1.480  55.498  1.00  0.00    -0.259 NA
HETATM    5  C5  UNL     1      24.234  -1.309  55.516  1.00  0.00     0.142 A 
HETATM    6  C6  UNL     1      24.822  -0.626  54.472  1.00  0.00     0.089 A 
HETATM    7  C7  UNL     1      26.249  -0.392  54.402  1.00  0.00     0.103 C 
HETATM    8  N2  UNL     1      27.395  -0.203  54.339  1.00  0.00    -0.191 NA
HETATM    9  C8  UNL     1      24.085  -0.120  53.421  1.00  0.00     0.067 A 
HETATM   10  C15 UNL     1      22.714  -0.315  53.437  1.00  0.00     0.023 A 
HETATM   11  C16 UNL     1      21.889   0.150  52.436  1.00  0.00     0.048 A 
HETATM   12  C17 UNL     1      20.520  -0.014  52.399  1.00  0.00     0.062 A 
ENDROOT
BRANCH   9  13
HETATM   13  N3  UNL     1      24.622   0.595  52.306  1.00  0.00    -0.354 N 
HETATM   14  H6  UNL     1      25.285   0.232  51.579  1.00  0.00     0.166 HD
BRANCH  13  15
HETATM   15  C9  UNL     1      24.249   1.957  52.116  1.00  0.00     0.033 A 
HETATM   16  C10 UNL     1      24.206   2.917  53.134  1.00  0.00     0.029 A 
HETATM   17  C11 UNL     1      23.826   4.203  52.814  1.00  0.00     0.004 A 
HETATM   18  C12 UNL     1      23.480   4.621  51.550  1.00  0.00     0.019 A 
HETATM   19  C13 UNL     1      23.512   3.703  50.520  1.00  0.00     0.013 A 
HETATM   20 BR1  UNL     1      23.064   4.113  48.707  1.00  0.00    -0.051 Br
HETATM   21  C14 UNL     1      23.892   2.417  50.843  1.00  0.00     0.048 A 
ENDBRANCH  13  15
ENDBRANCH   9  13
BRANCH  12  22
HETATM   22  N4  UNL     1      19.701   0.474  51.345  1.00  0.00    -0.385 N 
HETATM   23  H12 UNL     1      18.852  -0.083  51.112  1.00  0.00     0.159 HD
BRANCH  22  24
HETATM   24  C18 UNL     1      20.052   1.691  50.642  1.00  0.00     0.156 C 
BRANCH  24  25
HETATM   25  C19 UNL     1      19.731   2.884  51.510  1.00  0.00     0.410 C 
HETATM   26  O2  UNL     1      20.138   3.358  52.581  1.00  0.00    -0.428 OA
ENDBRANCH  24  25
ENDBRANCH  22  24
ENDBRANCH  12  22
BRANCH   1  27
HETATM   27  O1  UNL     1      18.615  -0.900  53.483  1.00  0.00    -0.354 OA
HETATM   28  C1  UNL     1      18.019  -2.181  53.540  1.00  0.00     0.210 C 
ENDBRANCH   1  27
TORSDOF 6
ENDMDL
MODEL 2
REMARK VINA RESULT:      -7.9      3.493      6.766
REMARK  6 active torsions:
REMARK  status: ('A' for Active; 'I' for Inactive)
REMARK    1  A    between atoms: O1_2  and  C2_3 
REMARK    2  A    between atoms: C8_11  and  N3_12 
REMARK    3  A    between atoms: N3_12  and  C9_13 
REMARK    4  A    between atoms: C17_22  and  N4_23 
REMARK    5  A    between atoms: N4_23  and  C18_24 
REMARK    6  A    between atoms: C18_24  and  C19_25 
ROOT
HETATM    1  C2  UNL     1      26.343   1.099  54.059  1.00  0.00     0.096 A 
HETATM    2  C3  UNL     1      25.877   2.393  53.957  1.00  0.00     0.071 A 
HETATM    3  C4  UNL     1      24.728   2.664  53.242  1.00  0.00     0.071 A 
HETATM    4  N1  UNL     1      24.287   3.932  53.151  1.00  0.00    -0.259 NA
HETATM    5  C5  UNL     1      23.170   4.238  52.463  1.00  0.00     0.142 A 
HETATM    6  C6  UNL     1      22.478   3.217  51.846  1.00  0.00     0.089 A 
HETATM    7  C7  UNL     1      21.268   3.446  51.085  1.00  0.00     0.103 C 
HETATM    8  N2  UNL     1      20.298   3.625  50.470  1.00  0.00    -0.191 NA
HETATM    9  C8  UNL     1      22.897   1.904  51.915  1.00  0.00     0.067 A 
HETATM   10  C15 UNL     1      24.049   1.628  52.632  1.00  0.00     0.023 A 
HETATM   11  C16 UNL     1      24.551   0.350  52.761  1.00  0.00     0.048 A 
HETATM   12  C17 UNL     1      25.691   0.015  53.460  1.00  0.00     0.062 A 
ENDROOT
BRANCH   9  13
HETATM   13  N3  UNL     1      22.235   0.794  51.303  1.00  0.00    -0.354 N 
HETATM   14  H6  UNL     1      22.496   0.316  50.407  1.00  0.00     0.166 HD
BRANCH  13  15
HETATM   15  C9  UNL     1      21.088   0.240  51.939  1.00  0.00     0.033 A 
HETATM   16  C10 UNL     1      21.094  -0.354  53.208  1.00  0.00     0.029 A 
HETATM   17  C11 UNL     1      19.911  -0.853  53.709  1.00  0.00     0.004 A 
HETATM   18  C12 UNL     1      18.705  -0.812  53.047  1.00  0.00     0.019 A 
HETATM   19  C13 UNL     1      18.660  -0.235  51.794  1.00  0.00     0.013 A 
HETATM   20 BR1  UNL     1      17.073  -0.094  50.738  1.00  0.00    -0.051 Br
HETATM   21  C14 UNL     1      19.846   0.265  51.295  1.00  0.00     0.048 A 
ENDBRANCH  13  15
ENDBRANCH   9  13
BRANCH  12  22
HETATM   22  N4  UNL     1      26.184  -1.314  53.566  1.00  0.00    -0.385 N 
HETATM   23  H12 UNL     1      26.024  -1.805  54.471  1.00  0.00     0.159 HD
BRANCH  22  24
HETATM   24  C18 UNL     1      26.871  -1.936  52.453  1.00  0.00     0.156 C 
BRANCH  24  25
HETATM   25  C19 UNL     1      28.274  -2.305  52.870  1.00  0.00     0.410 C 
HETATM   26  O2  UNL     1      28.808  -3.177  53.571  1.00  0.00    -0.428 OA
ENDBRANCH  24  25
ENDBRANCH  22  24
ENDBRANCH  12  22
BRANCH   1  27
HETATM   27  O1  UNL     1      27.496   0.799  54.772  1.00  0.00    -0.354 OA
HETATM   28  C1  UNL     1      28.789   1.121  54.298  1.00  0.00     0.210 C 
ENDBRANCH   1  27
TORSDOF 6
ENDMDL
MODEL 3
REMARK VINA RESULT:      -7.8      3.241      5.664
REMARK  6 active torsions:
REMARK  status: ('A' for Active; 'I' for Inactive)
REMARK    1  A    between atoms: O1_2  and  C2_3 
REMARK    2  A    between atoms: C8_11  and  N3_12 
REMARK    3  A    between atoms: N3_12  and  C9_13 
REMARK    4  A    between atoms: C17_22  and  N4_23 
REMARK    5  A    between atoms: N4_23  and  C18_24 
REMARK    6  A    between atoms: C18_24  and  C19_25 
ROOT
HETATM    1  C2  UNL     1      25.520  -0.446  53.315  1.00  0.00     0.096 A 
HETATM    2  C3  UNL     1      24.250  -0.774  53.741  1.00  0.00     0.071 A 
HETATM    3  C4  UNL     1      23.176   0.025  53.407  1.00  0.00     0.071 A 
HETATM    4  N1  UNL     1      21.944  -0.309  53.832  1.00  0.00    -0.259 NA
HETATM    5  C5  UNL     1      20.869   0.444  53.528  1.00  0.00     0.142 A 
HETATM    6  C6  UNL     1      21.057   1.578  52.765  1.00  0.00     0.089 A 
HETATM    7  C7  UNL     1      19.965   2.450  52.386  1.00  0.00     0.103 C 
HETATM    8  N2  UNL     1      19.093   3.157  52.082  1.00  0.00    -0.191 NA
HETATM    9  C8  UNL     1      22.304   1.955  52.310  1.00  0.00     0.067 A 
HETATM   10  C15 UNL     1      23.385   1.156  52.642  1.00  0.00     0.023 A 
HETATM   11  C16 UNL     1      24.671   1.445  52.239  1.00  0.00     0.048 A 
HETATM   12  C17 UNL     1      25.784   0.688  52.538  1.00  0.00     0.062 A 
ENDROOT
BRANCH   9  13
HETATM   13  N3  UNL     1      22.577   3.114  51.518  1.00  0.00    -0.354 N 
HETATM   14  H6  UNL     1      22.877   4.059  51.858  1.00  0.00     0.166 HD
BRANCH  13  15
HETATM   15  C9  UNL     1      22.440   3.028  50.103  1.00  0.00     0.033 A 
HETATM   16  C10 UNL     1      22.246   1.836  49.395  1.00  0.00     0.029 A 
HETATM   17  C11 UNL     1      22.129   1.893  48.023  1.00  0.00     0.004 A 
HETATM   18  C12 UNL     1      22.190   3.052  47.283  1.00  0.00     0.019 A 
HETATM   19  C13 UNL     1      22.380   4.247  47.946  1.00  0.00     0.013 A 
HETATM   20 BR1  UNL     1      22.488   5.947  47.077  1.00  0.00    -0.051 Br
HETATM   21  C14 UNL     1      22.497   4.187  49.320  1.00  0.00     0.048 A 
ENDBRANCH  13  15
ENDBRANCH   9  13
BRANCH  12  22
HETATM   22  N4  UNL     1      27.097   1.021  52.110  1.00  0.00    -0.385 N 
HETATM   23  H12 UNL     1      27.493   0.461  51.326  1.00  0.00     0.159 HD
BRANCH  22  24
HETATM   24  C18 UNL     1      27.830   2.095  52.748  1.00  0.00     0.156 C 
BRANCH  24  25
HETATM   25  C19 UNL     1      28.771   1.519  53.778  1.00  0.00     0.410 C 
HETATM   26  O2  UNL     1      28.693   1.112  54.946  1.00  0.00    -0.428 OA
ENDBRANCH  24  25
ENDBRANCH  22  24
ENDBRANCH  12  22
BRANCH   1  27
HETATM   27  O1  UNL     1      26.618  -1.233  53.637  1.00  0.00    -0.354 OA
HETATM   28  C1  UNL     1      27.144  -2.202  52.753  1.00  0.00     0.210 C 
ENDBRANCH   1  27
TORSDOF 6
ENDMDL
MODEL 4
REMARK VINA RESULT:      -7.6      3.202      5.730
REMARK  6 active torsions:
REMARK  status: ('A' for Active; 'I' for Inactive)
REMARK    1  A    between atoms: O1_2  and  C2_3 
REMARK    2  A    between atoms: C8_11  and  N3_12 
REMARK    3  A    between atoms: N3_12  and  C9_13 
REMARK    4  A    between atoms: C17_22  and  N4_23 
REMARK    5  A    between atoms: N4_23  and  C18_24 
REMARK    6  A    between atoms: C18_24  and  C19_25 
ROOT
HETATM    1  C2  UNL     1      26.596   1.657  52.455  1.00  0.00     0.096 A 
HETATM    2  C3  UNL     1      26.040   0.600  53.144  1.00  0.00     0.071 A 
HETATM    3  C4  UNL     1      24.671   0.424  53.162  1.00  0.00     0.071 A 
HETATM    4  N1  UNL     1      24.145  -0.612  53.840  1.00  0.00    -0.259 NA
HETATM    5  C5  UNL     1      22.814  -0.819  53.881  1.00  0.00     0.142 A 
HETATM    6  C6  UNL     1      21.992   0.061  53.208  1.00  0.00     0.089 A 
HETATM    7  C7  UNL     1      20.550  -0.079  53.193  1.00  0.00     0.103 C 
HETATM    8  N2  UNL     1      19.393  -0.183  53.181  1.00  0.00    -0.191 NA
HETATM    9  C8  UNL     1      22.492   1.134  52.501  1.00  0.00     0.067 A 
HETATM   10  C15 UNL     1      23.865   1.315  52.481  1.00  0.00     0.023 A 
HETATM   11  C16 UNL     1      24.465   2.356  51.805  1.00  0.00     0.048 A 
HETATM   12  C17 UNL     1      25.823   2.585  51.749  1.00  0.00     0.062 A 
ENDROOT
BRANCH   9  13
HETATM   13  N3  UNL     1      21.705   2.086  51.781  1.00  0.00    -0.354 N 
HETATM   14  H6  UNL     1      21.016   2.770  52.178  1.00  0.00     0.166 HD
BRANCH  13  15
HETATM   15  C9  UNL     1      21.831   2.154  50.364  1.00  0.00     0.033 A 
HETATM   16  C10 UNL     1      21.664   1.065  49.500  1.00  0.00     0.029 A 
HETATM   17  C11 UNL     1      21.816   1.267  48.144  1.00  0.00     0.004 A 
HETATM   18  C12 UNL     1      22.123   2.478  47.567  1.00  0.00     0.019 A 
HETATM   19  C13 UNL     1      22.294   3.574  48.387  1.00  0.00     0.013 A 
HETATM   20 BR1  UNL     1      22.723   5.327  47.753  1.00  0.00    -0.051 Br
HETATM   21  C14 UNL     1      22.143   3.369  49.743  1.00  0.00     0.048 A 
ENDBRANCH  13  15
ENDBRANCH   9  13
BRANCH  12  22
HETATM   22  N4  UNL     1      26.405   3.675  51.047  1.00  0.00    -0.385 N 
HETATM   23  H12 UNL     1      27.203   4.161  51.509  1.00  0.00     0.159 HD
BRANCH  22  24
HETATM   24  C18 UNL     1      25.897   4.072  49.750  1.00  0.00     0.156 C 
BRANCH  24  25
HETATM   25  C19 UNL     1      26.962   4.840  49.005  1.00  0.00     0.410 C 
HETATM   26  O2  UNL     1      28.112   4.623  48.595  1.00  0.00    -0.428 OA
ENDBRANCH  24  25
ENDBRANCH  22  24
ENDBRANCH  12  22
BRANCH   1  27
HETATM   27  O1  UNL     1      27.970   1.857  52.421  1.00  0.00    -0.354 OA
HETATM   28  C1  UNL     1      28.690   2.375  53.522  1.00  0.00     0.210 C 
ENDBRANCH   1  27
TORSDOF 6
ENDMDL
MODEL 5
REMARK VINA RESULT:      -7.6      2.720      5.281
REMARK  6 active torsions:
REMARK  status: ('A' for Active; 'I' for Inactive)
REMARK    1  A    between atoms: O1_2  and  C2_3 
REMARK    2  A    between atoms: C8_11  and  N3_12 
REMARK    3  A    between atoms: N3_12  and  C9_13 
REMARK    4  A    between atoms: C17_22  and  N4_23 
REMARK    5  A    between atoms: N4_23  and  C18_24 
REMARK    6  A    between atoms: C18_24  and  C19_25 
ROOT
HETATM    1  C2  UNL     1      25.761   0.370  53.980  1.00  0.00     0.096 A 
HETATM    2  C3  UNL     1      24.889  -0.633  54.348  1.00  0.00     0.071 A 
HETATM    3  C4  UNL     1      23.552  -0.550  54.013  1.00  0.00     0.071 A 
HETATM    4  N1  UNL     1      22.715  -1.537  54.381  1.00  0.00    -0.259 NA
HETATM    5  C5  UNL     1      21.404  -1.494  54.074  1.00  0.00     0.142 A 
HETATM    6  C6  UNL     1      20.931  -0.408  53.366  1.00  0.00     0.089 A 
HETATM    7  C7  UNL     1      19.539  -0.273  52.989  1.00  0.00     0.103 C 
HETATM    8  N2  UNL     1      18.423  -0.157  52.686  1.00  0.00    -0.191 NA
HETATM    9  C8  UNL     1      21.757   0.623  52.971  1.00  0.00     0.067 A 
HETATM   10  C15 UNL     1      23.098   0.544  53.304  1.00  0.00     0.023 A 
HETATM   11  C16 UNL     1      24.006   1.522  52.957  1.00  0.00     0.048 A 
HETATM   12  C17 UNL     1      25.351   1.498  53.261  1.00  0.00     0.062 A 
ENDROOT
BRANCH   9  13
HETATM   13  N3  UNL     1      21.340   1.778  52.238  1.00  0.00    -0.354 N 
HETATM   14  H6  UNL     1      20.844   2.622  52.613  1.00  0.00     0.166 HD
BRANCH  13  15
HETATM   15  C9  UNL     1      21.603   1.839  50.839  1.00  0.00     0.033 A 
HETATM   16  C10 UNL     1      21.386   0.783  49.945  1.00  0.00     0.029 A 
HETATM   17  C11 UNL     1      21.683   0.974  48.612  1.00  0.00     0.004 A 
HETATM   18  C12 UNL     1      22.185   2.142  48.086  1.00  0.00     0.019 A 
HETATM   19  C13 UNL     1      22.412   3.205  48.937  1.00  0.00     0.013 A 
HETATM   20 BR1  UNL     1      23.104   4.896  48.375  1.00  0.00    -0.051 Br
HETATM   21  C14 UNL     1      22.114   3.011  50.270  1.00  0.00     0.048 A 
ENDBRANCH  13  15
ENDBRANCH   9  13
BRANCH  12  22
HETATM   22  N4  UNL     1      26.256   2.529  52.891  1.00  0.00    -0.385 N 
HETATM   23  H12 UNL     1      26.350   3.331  53.550  1.00  0.00     0.159 HD
BRANCH  22  24
HETATM   24  C18 UNL     1      27.003   2.446  51.653  1.00  0.00     0.156 C 
BRANCH  24  25
HETATM   25  C19 UNL     1      26.171   3.007  50.525  1.00  0.00     0.410 C 
HETATM   26  O2  UNL     1      26.379   3.488  49.401  1.00  0.00    -0.428 OA
ENDBRANCH  24  25
ENDBRANCH  22  24
ENDBRANCH  12  22
BRANCH   1  27
HETATM   27  O1  UNL     1      27.110   0.312  54.304  1.00  0.00    -0.354 OA
HETATM   28  C1  UNL     1      28.021  -0.529  53.624  1.00  0.00     0.210 C 
ENDBRANCH   1  27
TORSDOF 6
ENDMDL
MODEL 6
REMARK VINA RESULT:      -7.5      3.817      6.231
REMARK  6 active torsions:
REMARK  status: ('A' for Active; 'I' for Inactive)
REMARK    1  A    between atoms: O1_2  and  C2_3 
REMARK    2  A    between atoms: C8_11  and  N3_12 
REMARK    3  A    between atoms: N3_12  and  C9_13 
REMARK    4  A    between atoms: C17_22  and  N4_23 
REMARK    5  A    between atoms: N4_23  and  C18_24 
REMARK    6  A    between atoms: C18_24  and  C19_25 
ROOT
HETATM    1  C2  UNL     1      23.533   1.155  53.170  1.00  0.00     0.096 A 
HETATM    2  C3  UNL     1      22.319   1.522  52.628  1.00  0.00     0.071 A 
HETATM    3  C4  UNL     1      22.120   2.810  52.173  1.00  0.00     0.071 A 
HETATM    4  N1  UNL     1      20.930   3.151  51.647  1.00  0.00    -0.259 NA
HETATM    5  C5  UNL     1      20.696   4.397  51.192  1.00  0.00     0.142 A 
HETATM    6  C6  UNL     1      21.711   5.328  51.276  1.00  0.00     0.089 A 
HETATM    7  C7  UNL     1      21.555   6.691  50.814  1.00  0.00     0.103 C 
HETATM    8  N2  UNL     1      21.436   7.788  50.448  1.00  0.00    -0.191 NA
HETATM    9  C8  UNL     1      22.945   5.018  51.809  1.00  0.00     0.067 A 
HETATM   10  C15 UNL     1      23.149   3.727  52.266  1.00  0.00     0.023 A 
HETATM   11  C16 UNL     1      24.345   3.316  52.814  1.00  0.00     0.048 A 
HETATM   12  C17 UNL     1      24.605   2.047  53.285  1.00  0.00     0.062 A 
ENDROOT
BRANCH   9  13
HETATM   13  N3  UNL     1      24.043   5.927  51.930  1.00  0.00    -0.354 N 
HETATM   14  H6  UNL     1      24.317   6.481  52.777  1.00  0.00     0.166 HD
BRANCH  13  15
HETATM   15  C9  UNL     1      24.888   6.140  50.803  1.00  0.00     0.033 A 
HETATM   16  C10 UNL     1      25.254   5.147  49.887  1.00  0.00     0.029 A 
HETATM   17  C11 UNL     1      26.081   5.487  48.838  1.00  0.00     0.004 A 
HETATM   18  C12 UNL     1      26.582   6.751  48.619  1.00  0.00     0.019 A 
HETATM   19  C13 UNL     1      26.242   7.756  49.502  1.00  0.00     0.013 A 
HETATM   20 BR1  UNL     1      26.846   9.564  49.348  1.00  0.00    -0.051 Br
HETATM   21  C14 UNL     1      25.414   7.412  50.550  1.00  0.00     0.048 A 
ENDBRANCH  13  15
ENDBRANCH   9  13
BRANCH  12  22
HETATM   22  N4  UNL     1      25.850   1.661  53.852  1.00  0.00    -0.385 N 
HETATM   23  H12 UNL     1      25.870   1.506  54.882  1.00  0.00     0.159 HD
BRANCH  22  24
HETATM   24  C18 UNL     1      27.021   1.498  53.016  1.00  0.00     0.156 C 
BRANCH  24  25
HETATM   25  C19 UNL     1      28.121   2.410  53.506  1.00  0.00     0.410 C 
HETATM   26  O2  UNL     1      28.980   2.390  54.399  1.00  0.00    -0.428 OA
ENDBRANCH  24  25
ENDBRANCH  22  24
ENDBRANCH  12  22
BRANCH   1  27
HETATM   27  O1  UNL     1      23.758  -0.133  53.635  1.00  0.00    -0.354 OA
HETATM   28  C1  UNL     1      22.726  -0.945  54.159  1.00  0.00     0.210 C 
ENDBRANCH   1  27
TORSDOF 6
ENDMDL
MODEL 7
REMARK VINA RESULT:      -7.4      2.985      6.117
REMARK  6 active torsions:
REMARK  status: ('A' for Active; 'I' for Inactive)
REMARK    1  A    between atoms: O1_2  and  C2_3 
REMARK    2  A    between atoms: C8_11  and  N3_12 
REMARK    3  A    between atoms: N3_12  and  C9_13 
REMARK    4  A    between atoms: C17_22  and  N4_23 
REMARK    5  A    between atoms: N4_23  and  C18_24 
REMARK    6  A    between atoms: C18_24  and  C19_25 
ROOT
HETATM    1  C2  UNL     1      27.058  -0.252  53.327  1.00  0.00     0.096 A 
HETATM    2  C3  UNL     1      27.440   0.672  52.377  1.00  0.00     0.071 A 
HETATM    3  C4  UNL     1      26.548   1.632  51.942  1.00  0.00     0.071 A 
HETATM    4  N1  UNL     1      26.936   2.525  51.015  1.00  0.00    -0.259 NA
HETATM    5  C5  UNL     1      26.096   3.477  50.564  1.00  0.00     0.142 A 
HETATM    6  C6  UNL     1      24.816   3.519  51.077  1.00  0.00     0.089 A 
HETATM    7  C7  UNL     1      23.842   4.505  50.656  1.00  0.00     0.103 C 
HETATM    8  N2  UNL     1      23.055   5.291  50.319  1.00  0.00    -0.191 NA
HETATM    9  C8  UNL     1      24.380   2.621  52.029  1.00  0.00     0.067 A 
HETATM   10  C15 UNL     1      25.271   1.658  52.468  1.00  0.00     0.023 A 
HETATM   11  C16 UNL     1      24.934   0.715  53.416  1.00  0.00     0.048 A 
HETATM   12  C17 UNL     1      25.777  -0.267  53.891  1.00  0.00     0.062 A 
ENDROOT
BRANCH   9  13
HETATM   13  N3  UNL     1      23.071   2.602  52.605  1.00  0.00    -0.354 N 
HETATM   14  H6  UNL     1      22.794   2.932  53.561  1.00  0.00     0.166 HD
BRANCH  13  15
HETATM   15  C9  UNL     1      21.988   2.085  51.838  1.00  0.00     0.033 A 
HETATM   16  C10 UNL     1      22.068   0.958  51.010  1.00  0.00     0.029 A 
HETATM   17  C11 UNL     1      20.942   0.563  50.320  1.00  0.00     0.004 A 
HETATM   18  C12 UNL     1      19.725   1.203  50.384  1.00  0.00     0.019 A 
HETATM   19  C13 UNL     1      19.608   2.317  51.190  1.00  0.00     0.013 A 
HETATM   20 BR1  UNL     1      17.995   3.323  51.395  1.00  0.00    -0.051 Br
HETATM   21  C14 UNL     1      20.736   2.710  51.879  1.00  0.00     0.048 A 
ENDBRANCH  13  15
ENDBRANCH   9  13
BRANCH  12  22
HETATM   22  N4  UNL     1      25.392  -1.228  54.864  1.00  0.00    -0.385 N 
HETATM   23  H12 UNL     1      25.927  -2.121  54.882  1.00  0.00     0.159 HD
BRANCH  22  24
HETATM   24  C18 UNL     1      24.302  -0.955  55.778  1.00  0.00     0.156 C 
BRANCH  24  25
HETATM   25  C19 UNL     1      23.049  -1.637  55.285  1.00  0.00     0.410 C 
HETATM   26  O2  UNL     1      21.835  -1.387  55.258  1.00  0.00    -0.428 OA
ENDBRANCH  24  25
ENDBRANCH  22  24
ENDBRANCH  12  22
BRANCH   1  27
HETATM   27  O1  UNL     1      27.936  -1.228  53.782  1.00  0.00    -0.354 OA
HETATM   28  C1  UNL     1      29.325  -1.180  53.526  1.00  0.00     0.210 C 
ENDBRANCH   1  27
TORSDOF 6
ENDMDL
MODEL 8
REMARK VINA RESULT:      -7.3      3.213      5.477
REMARK  6 active torsions:
REMARK  status: ('A' for Active; 'I' for Inactive)
REMARK    1  A    between atoms: O1_2  and  C2_3 
REMARK    2  A    between atoms: C8_11  and  N3_12 
REMARK    3  A    between atoms: N3_12  and  C9_13 
REMARK    4  A    between atoms: C17_22  and  N4_23 
REMARK    5  A    between atoms: N4_23  and  C18_24 
REMARK    6  A    between atoms: C18_24  and  C19_25 
ROOT
HETATM    1  C2  UNL     1      26.651   0.379  53.566  1.00  0.00     0.096 A 
HETATM    2  C3  UNL     1      25.979  -0.279  54.576  1.00  0.00     0.071 A 
HETATM    3  C4  UNL     1      24.638  -0.577  54.440  1.00  0.00     0.071 A 
HETATM    4  N1  UNL     1      23.999  -1.218  55.434  1.00  0.00    -0.259 NA
HETATM    5  C5  UNL     1      22.690  -1.527  55.341  1.00  0.00     0.142 A 
HETATM    6  C6  UNL     1      22.011  -1.170  54.195  1.00  0.00     0.089 A 
HETATM    7  C7  UNL     1      20.606  -1.458  54.002  1.00  0.00     0.103 C 
HETATM    8  N2  UNL     1      19.476  -1.684  53.842  1.00  0.00    -0.191 NA
HETATM    9  C8  UNL     1      22.632  -0.511  53.153  1.00  0.00     0.067 A 
HETATM   10  C15 UNL     1      23.977  -0.211  53.285  1.00  0.00     0.023 A 
HETATM   11  C16 UNL     1      24.688   0.445  52.302  1.00  0.00     0.048 A 
HETATM   12  C17 UNL     1      26.026   0.770  52.377  1.00  0.00     0.062 A 
ENDROOT
BRANCH   9  13
HETATM   13  N3  UNL     1      21.995  -0.108  51.937  1.00  0.00    -0.354 N 
HETATM   14  H6  UNL     1      22.047  -0.586  51.006  1.00  0.00     0.166 HD
BRANCH  13  15
HETATM   15  C9  UNL     1      21.191   1.068  51.937  1.00  0.00     0.033 A 
HETATM   16  C10 UNL     1      21.622   2.323  52.382  1.00  0.00     0.029 A 
HETATM   17  C11 UNL     1      20.741   3.382  52.328  1.00  0.00     0.004 A 
HETATM   18  C12 UNL     1      19.449   3.297  51.863  1.00  0.00     0.019 A 
HETATM   19  C13 UNL     1      18.989   2.075  51.415  1.00  0.00     0.013 A 
HETATM   20 BR1  UNL     1      17.226   1.780  50.737  1.00  0.00    -0.051 Br
HETATM   21  C14 UNL     1      19.873   1.018  51.470  1.00  0.00     0.048 A 
ENDBRANCH  13  15
ENDBRANCH   9  13
BRANCH  12  22
HETATM   22  N4  UNL     1      26.725   1.454  51.346  1.00  0.00    -0.385 N 
HETATM   23  H12 UNL     1      27.309   0.873  50.708  1.00  0.00     0.159 HD
BRANCH  22  24
HETATM   24  C18 UNL     1      26.614   2.892  51.208  1.00  0.00     0.156 C 
BRANCH  24  25
HETATM   25  C19 UNL     1      26.451   3.247  49.750  1.00  0.00     0.410 C 
HETATM   26  O2  UNL     1      26.163   4.258  49.093  1.00  0.00    -0.428 OA
ENDBRANCH  24  25
ENDBRANCH  22  24
ENDBRANCH  12  22
BRANCH   1  27
HETATM   27  O1  UNL     1      27.999   0.691  53.677  1.00  0.00    -0.354 OA
HETATM   28  C1  UNL     1      28.867   0.012  54.563  1.00  0.00     0.210 C 
ENDBRANCH   1  27
TORSDOF 6
ENDMDL
MODEL 9
REMARK VINA RESULT:      -7.2      2.050      2.523
REMARK  6 active torsions:
REMARK  status: ('A' for Active; 'I' for Inactive)
REMARK    1  A    between atoms: O1_2  and  C2_3 
REMARK    2  A    between atoms: C8_11  and  N3_12 
REMARK    3  A    between atoms: N3_12  and  C9_13 
REMARK    4  A    between atoms: C17_22  and  N4_23 
REMARK    5  A    between atoms: N4_23  and  C18_24 
REMARK    6  A    between atoms: C18_24  and  C19_25 
ROOT
HETATM    1  C2  UNL     1      20.917   0.278  52.051  1.00  0.00     0.096 A 
HETATM    2  C3  UNL     1      21.908  -0.481  52.637  1.00  0.00     0.071 A 
HETATM    3  C4  UNL     1      23.125   0.089  52.954  1.00  0.00     0.071 A 
HETATM    4  N1  UNL     1      24.081  -0.666  53.524  1.00  0.00    -0.259 NA
HETATM    5  C5  UNL     1      25.281  -0.149  53.849  1.00  0.00     0.142 A 
HETATM    6  C6  UNL     1      25.515   1.185  53.583  1.00  0.00     0.089 A 
HETATM    7  C7  UNL     1      26.772   1.831  53.897  1.00  0.00     0.103 C 
HETATM    8  N2  UNL     1      27.781   2.355  54.142  1.00  0.00    -0.191 NA
HETATM    9  C8  UNL     1      24.561   1.992  53.000  1.00  0.00     0.067 A 
HETATM   10  C15 UNL     1      23.339   1.425  52.680  1.00  0.00     0.023 A 
HETATM   11  C16 UNL     1      22.319   2.145  52.095  1.00  0.00     0.048 A 
HETATM   12  C17 UNL     1      21.084   1.636  51.755  1.00  0.00     0.062 A 
ENDROOT
BRANCH   9  13
HETATM   13  N3  UNL     1      24.729   3.379  52.694  1.00  0.00    -0.354 N 
HETATM   14  H6  UNL     1      24.528   4.196  53.320  1.00  0.00     0.166 HD
BRANCH  13  15
HETATM   15  C9  UNL     1      25.221   3.746  51.409  1.00  0.00     0.033 A 
HETATM   16  C10 UNL     1      26.253   3.081  50.735  1.00  0.00     0.029 A 
HETATM   17  C11 UNL     1      26.635   3.541  49.493  1.00  0.00     0.004 A 
HETATM   18  C12 UNL     1      26.070   4.621  48.854  1.00  0.00     0.019 A 
HETATM   19  C13 UNL     1      25.049   5.301  49.487  1.00  0.00     0.013 A 
HETATM   20 BR1  UNL     1      24.154   6.819  48.745  1.00  0.00    -0.051 Br
HETATM   21  C14 UNL     1      24.669   4.839  50.730  1.00  0.00     0.048 A 
ENDBRANCH  13  15
ENDBRANCH   9  13
BRANCH  12  22
HETATM   22  N4  UNL     1      20.059   2.408  51.145  1.00  0.00    -0.385 N 
HETATM   23  H12 UNL     1      19.618   2.012  50.288  1.00  0.00     0.159 HD
BRANCH  22  24
HETATM   24  C18 UNL     1      19.662   3.683  51.707  1.00  0.00     0.156 C 
BRANCH  24  25
HETATM   25  C19 UNL     1      18.187   3.900  51.471  1.00  0.00     0.410 C 
HETATM   26  O2  UNL     1      17.161   3.963  52.163  1.00  0.00    -0.428 OA
ENDBRANCH  24  25
ENDBRANCH  22  24
ENDBRANCH  12  22
BRANCH   1  27
HETATM   27  O1  UNL     1      19.684  -0.270  51.721  1.00  0.00    -0.354 OA
HETATM   28  C1  UNL     1      18.700  -0.567  52.692  1.00  0.00     0.210 C 
ENDBRANCH   1  27
TORSDOF 6
ENDMDL
