MODEL 1
REMARK VINA RESULT:      -8.9      0.000      0.000
REMARK  7 active torsions:
REMARK  status: ('A' for Active; 'I' for Inactive)
REMARK    1  A    between atoms: O1_2  and  C2_3 
REMARK    2  A    between atoms: C7_8  and  C8_9 
REMARK       I    between atoms: C8_9  and  N1_11 
REMARK    3  A    between atoms: N1_11  and  C9_12 
REMARK    4  A    between atoms: C9_12  and  C10_13 
REMARK    5  A    between atoms: C11_14  and  N2_15 
REMARK    6  A    between atoms: N2_15  and  C12_16 
REMARK    7  A    between atoms: C15_20  and  C16_21 
ROOT
HETATM    1  C10 UNL     1      27.678   1.133  53.558  1.00  0.00    -0.032 A 
HETATM    2  C11 UNL     1      27.483  -0.074  53.070  1.00  0.00     0.053 A 
HETATM    3  C21 UNL     1      28.676  -0.874  53.316  1.00  0.00     0.026 A 
HETATM    4  C22 UNL     1      29.588  -0.131  53.958  1.00  0.00    -0.020 A 
HETATM    5  C23 UNL     1      29.033   1.229  54.176  1.00  0.00     0.065 A 
ENDROOT
BRANCH   2   6
HETATM    6  N2  UNL     1      26.454  -0.779  52.389  1.00  0.00    -0.188 N 
HETATM    7  H11 UNL     1      26.638  -1.092  51.402  1.00  0.00     0.184 HD
BRANCH   6   8
HETATM    8  C12 UNL     1      25.388  -0.846  53.357  1.00  0.00     0.727 A 
HETATM    9  N3  UNL     1      25.649  -1.102  54.653  1.00  0.00    -0.075 NA
HETATM   10  C13 UNL     1      24.595  -1.148  55.491  1.00  0.00     0.139 A 
HETATM   11  C14 UNL     1      23.328  -0.935  54.988  1.00  0.00     0.053 A 
HETATM   12  C15 UNL     1      23.070  -0.673  53.659  1.00  0.00     0.089 A 
HETATM   13  N5  UNL     1      24.162  -0.636  52.845  1.00  0.00    -0.062 NA
BRANCH  12  14
HETATM   14  C16 UNL     1      21.723  -0.451  53.143  1.00  0.00     0.011 A 
HETATM   15  C17 UNL     1      21.401   0.168  51.954  1.00  0.00     0.017 A 
HETATM   16  C18 UNL     1      20.089   0.329  51.555  1.00  0.00     0.020 A 
HETATM   17  C19 UNL     1      19.059  -0.132  52.345  1.00  0.00     0.116 A 
HETATM   18  N4  UNL     1      19.371  -0.740  53.510  1.00  0.00    -0.272 NA
HETATM   19  C20 UNL     1      20.661  -0.898  53.903  1.00  0.00     0.130 A 
ENDBRANCH  12  14
ENDBRANCH   6   8
ENDBRANCH   2   6
BRANCH   1  20
HETATM   20  C9  UNL     1      26.752   2.281  53.544  1.00  0.00     0.159 C 
BRANCH  20  21
HETATM   21  N1  UNL     1      26.385   2.622  52.183  1.00  0.00    -0.353 N 
HETATM   22  C8  UNL     1      25.009   2.865  51.964  1.00  0.00     0.254 C 
HETATM   23  O2  UNL     1      24.377   2.727  53.041  1.00  0.00    -0.268 OA
HETATM   24  H8  UNL     1      27.023   2.703  51.365  1.00  0.00     0.163 HD
BRANCH  22  25
HETATM   25  C7  UNL     1      24.322   3.222  50.741  1.00  0.00     0.065 A 
HETATM   26  C2  UNL     1      24.492   4.333  49.956  1.00  0.00     0.084 A 
HETATM   27  C3  UNL     1      23.777   4.574  48.804  1.00  0.00     0.038 A 
HETATM   28  C4  UNL     1      22.836   3.700  48.365  1.00  0.00     0.003 A 
HETATM   29  C5  UNL     1      22.646   2.583  49.128  1.00  0.00     0.001 A 
HETATM   30  C6  UNL     1      23.361   2.346  50.280  1.00  0.00     0.020 A 
BRANCH  26  31
HETATM   31  O1  UNL     1      25.434   5.254  50.354  1.00  0.00    -0.355 OA
HETATM   32  C1  UNL     1      25.200   6.627  50.302  1.00  0.00     0.210 C 
ENDBRANCH  26  31
ENDBRANCH  22  25
ENDBRANCH  20  21
ENDBRANCH   1  20
TORSDOF 7
ENDMDL
MODEL 2
REMARK VINA RESULT:      -8.9      1.848      2.603
REMARK  7 active torsions:
REMARK  status: ('A' for Active; 'I' for Inactive)
REMARK    1  A    between atoms: O1_2  and  C2_3 
REMARK    2  A    between atoms: C7_8  and  C8_9 
REMARK       I    between atoms: C8_9  and  N1_11 
REMARK    3  A    between atoms: N1_11  and  C9_12 
REMARK    4  A    between atoms: C9_12  and  C10_13 
REMARK    5  A    between atoms: C11_14  and  N2_15 
REMARK    6  A    between atoms: N2_15  and  C12_16 
REMARK    7  A    between atoms: C15_20  and  C16_21 
ROOT
HETATM    1  C10 UNL     1      27.251   1.610  52.389  1.00  0.00    -0.032 A 
HETATM    2  C11 UNL     1      27.343   0.374  52.831  1.00  0.00     0.053 A 
HETATM    3  C21 UNL     1      28.376   0.321  53.856  1.00  0.00     0.026 A 
HETATM    4  C22 UNL     1      28.903   1.542  54.022  1.00  0.00    -0.020 A 
HETATM    5  C23 UNL     1      28.229   2.486  53.096  1.00  0.00     0.065 A 
ENDROOT
BRANCH   2   6
HETATM    6  N2  UNL     1      26.722  -0.880  52.582  1.00  0.00    -0.188 N 
HETATM    7  H11 UNL     1      27.157  -1.514  51.864  1.00  0.00     0.184 HD
BRANCH   6   8
HETATM    8  C12 UNL     1      25.589  -0.885  53.475  1.00  0.00     0.727 A 
HETATM    9  N3  UNL     1      25.751  -1.124  54.790  1.00  0.00    -0.075 NA
HETATM   10  C13 UNL     1      24.640  -1.110  55.553  1.00  0.00     0.139 A 
HETATM   11  C14 UNL     1      23.421  -0.858  54.959  1.00  0.00     0.053 A 
HETATM   12  C15 UNL     1      23.265  -0.615  53.611  1.00  0.00     0.089 A 
HETATM   13  N5  UNL     1      24.411  -0.638  52.875  1.00  0.00    -0.062 NA
BRANCH  12  14
HETATM   14  C16 UNL     1      21.968  -0.351  52.999  1.00  0.00     0.011 A 
HETATM   15  C17 UNL     1      21.754   0.210  51.757  1.00  0.00     0.017 A 
HETATM   16  C18 UNL     1      20.480   0.417  51.267  1.00  0.00     0.020 A 
HETATM   17  C19 UNL     1      19.379   0.064  52.016  1.00  0.00     0.116 A 
HETATM   18  N4  UNL     1      19.585  -0.486  53.232  1.00  0.00    -0.272 NA
HETATM   19  C20 UNL     1      20.837  -0.691  53.714  1.00  0.00     0.130 A 
ENDBRANCH  12  14
ENDBRANCH   6   8
ENDBRANCH   2   6
BRANCH   1  20
HETATM   20  C9  UNL     1      26.346   2.141  51.352  1.00  0.00     0.159 C 
BRANCH  20  21
HETATM   21  N1  UNL     1      26.824   3.420  50.865  1.00  0.00    -0.353 N 
HETATM   22  C8  UNL     1      26.097   3.972  49.785  1.00  0.00     0.254 C 
HETATM   23  O2  UNL     1      25.156   3.203  49.467  1.00  0.00    -0.268 OA
HETATM   24  H8  UNL     1      27.636   3.963  51.225  1.00  0.00     0.163 HD
BRANCH  22  25
HETATM   25  C7  UNL     1      26.309   5.216  49.074  1.00  0.00     0.065 A 
HETATM   26  C2  UNL     1      27.462   5.692  48.505  1.00  0.00     0.084 A 
HETATM   27  C3  UNL     1      27.551   6.899  47.849  1.00  0.00     0.038 A 
HETATM   28  C4  UNL     1      26.472   7.712  47.723  1.00  0.00     0.003 A 
HETATM   29  C5  UNL     1      25.308   7.263  48.280  1.00  0.00     0.001 A 
HETATM   30  C6  UNL     1      25.223   6.055  48.937  1.00  0.00     0.020 A 
BRANCH  26  31
HETATM   31  O1  UNL     1      28.589   4.908  48.604  1.00  0.00    -0.355 OA
HETATM   32  C1  UNL     1      29.854   5.376  48.251  1.00  0.00     0.210 C 
ENDBRANCH  26  31
ENDBRANCH  22  25
ENDBRANCH  20  21
ENDBRANCH   1  20
TORSDOF 7
ENDMDL
MODEL 3
REMARK VINA RESULT:      -8.7      2.410      6.825
REMARK  7 active torsions:
REMARK  status: ('A' for Active; 'I' for Inactive)
REMARK    1  A    between atoms: O1_2  and  C2_3 
REMARK    2  A    between atoms: C7_8  and  C8_9 
REMARK       I    between atoms: C8_9  and  N1_11 
REMARK    3  A    between atoms: N1_11  and  C9_12 
REMARK    4  A    between atoms: C9_12  and  C10_13 
REMARK    5  A    between atoms: C11_14  and  N2_15 
REMARK    6  A    between atoms: N2_15  and  C12_16 
REMARK    7  A    between atoms: C15_20  and  C16_21 
ROOT
HETATM    1  C10 UNL     1      24.894  -0.342  53.472  1.00  0.00    -0.032 A 
HETATM    2  C11 UNL     1      25.258   0.863  53.087  1.00  0.00     0.053 A 
HETATM    3  C21 UNL     1      26.522   0.761  52.370  1.00  0.00     0.026 A 
HETATM    4  C22 UNL     1      26.910  -0.522  52.330  1.00  0.00    -0.020 A 
HETATM    5  C23 UNL     1      25.901  -1.351  53.033  1.00  0.00     0.065 A 
ENDROOT
BRANCH   2   6
HETATM    6  N2  UNL     1      24.762   2.191  53.183  1.00  0.00    -0.188 N 
HETATM    7  H11 UNL     1      24.734   2.641  54.133  1.00  0.00     0.184 HD
BRANCH   6   8
HETATM    8  C12 UNL     1      24.426   2.530  51.822  1.00  0.00     0.727 A 
HETATM    9  N3  UNL     1      23.348   1.988  51.224  1.00  0.00    -0.075 NA
HETATM   10  C13 UNL     1      23.106   2.359  49.951  1.00  0.00     0.139 A 
HETATM   11  C14 UNL     1      23.958   3.255  49.340  1.00  0.00     0.053 A 
HETATM   12  C15 UNL     1      25.060   3.805  49.960  1.00  0.00     0.089 A 
HETATM   13  N5  UNL     1      25.270   3.405  51.245  1.00  0.00    -0.062 NA
BRANCH  12  14
HETATM   14  C16 UNL     1      25.951   4.751  49.298  1.00  0.00     0.011 A 
HETATM   15  C17 UNL     1      27.281   4.540  48.997  1.00  0.00     0.017 A 
HETATM   16  C18 UNL     1      28.041   5.504  48.365  1.00  0.00     0.020 A 
HETATM   17  C19 UNL     1      27.482   6.713  48.015  1.00  0.00     0.116 A 
HETATM   18  N4  UNL     1      26.180   6.922  48.307  1.00  0.00    -0.272 NA
HETATM   19  C20 UNL     1      25.433   5.975  48.929  1.00  0.00     0.130 A 
ENDBRANCH  12  14
ENDBRANCH   6   8
ENDBRANCH   2   6
BRANCH   1  20
HETATM   20  C9  UNL     1      23.688  -0.730  54.226  1.00  0.00     0.159 C 
BRANCH  20  21
HETATM   21  N1  UNL     1      22.494  -0.491  53.438  1.00  0.00    -0.353 N 
HETATM   22  C8  UNL     1      21.295  -1.021  53.969  1.00  0.00     0.254 C 
HETATM   23  O2  UNL     1      21.533  -1.609  55.054  1.00  0.00    -0.268 OA
HETATM   24  H8  UNL     1      22.434   0.023  52.535  1.00  0.00     0.163 HD
BRANCH  22  25
HETATM   25  C7  UNL     1      19.950  -0.960  53.439  1.00  0.00     0.065 A 
HETATM   26  C2  UNL     1      19.408  -0.040  52.579  1.00  0.00     0.084 A 
HETATM   27  C3  UNL     1      18.105  -0.078  52.136  1.00  0.00     0.038 A 
HETATM   28  C4  UNL     1      17.255  -1.058  52.537  1.00  0.00     0.003 A 
HETATM   29  C5  UNL     1      17.768  -1.990  53.395  1.00  0.00     0.001 A 
HETATM   30  C6  UNL     1      19.071  -1.947  53.836  1.00  0.00     0.020 A 
BRANCH  26  31
HETATM   31  O1  UNL     1      20.226   0.977  52.140  1.00  0.00    -0.355 OA
HETATM   32  C1  UNL     1      19.748   2.265  51.901  1.00  0.00     0.210 C 
ENDBRANCH  26  31
ENDBRANCH  22  25
ENDBRANCH  20  21
ENDBRANCH   1  20
TORSDOF 7
ENDMDL
MODEL 4
REMARK VINA RESULT:      -8.6      2.573      7.731
REMARK  7 active torsions:
REMARK  status: ('A' for Active; 'I' for Inactive)
REMARK    1  A    between atoms: O1_2  and  C2_3 
REMARK    2  A    between atoms: C7_8  and  C8_9 
REMARK       I    between atoms: C8_9  and  N1_11 
REMARK    3  A    between atoms: N1_11  and  C9_12 
REMARK    4  A    between atoms: C9_12  and  C10_13 
REMARK    5  A    between atoms: C11_14  and  N2_15 
REMARK    6  A    between atoms: N2_15  and  C12_16 
REMARK    7  A    between atoms: C15_20  and  C16_21 
ROOT
HETATM    1  C10 UNL     1      22.781   1.382  51.793  1.00  0.00    -0.032 A 
HETATM    2  C11 UNL     1      22.888   2.645  51.438  1.00  0.00     0.053 A 
HETATM    3  C21 UNL     1      22.017   2.883  50.295  1.00  0.00     0.026 A 
HETATM    4  C22 UNL     1      21.387   1.746  49.969  1.00  0.00    -0.020 A 
HETATM    5  C23 UNL     1      21.818   0.674  50.901  1.00  0.00     0.065 A 
ENDROOT
BRANCH   2   6
HETATM    6  N2  UNL     1      23.603   3.798  51.860  1.00  0.00    -0.188 N 
HETATM    7  H11 UNL     1      23.202   4.368  52.648  1.00  0.00     0.184 HD
BRANCH   6   8
HETATM    8  C12 UNL     1      24.757   3.822  50.995  1.00  0.00     0.727 A 
HETATM    9  N3  UNL     1      25.628   2.794  50.981  1.00  0.00    -0.075 NA
HETATM   10  C13 UNL     1      26.678   2.897  50.143  1.00  0.00     0.139 A 
HETATM   11  C14 UNL     1      26.805   4.026  49.361  1.00  0.00     0.053 A 
HETATM   12  C15 UNL     1      25.908   5.074  49.383  1.00  0.00     0.089 A 
HETATM   13  N5  UNL     1      24.861   4.931  50.242  1.00  0.00    -0.062 NA
BRANCH  12  14
HETATM   14  C16 UNL     1      26.058   6.261  48.549  1.00  0.00     0.011 A 
HETATM   15  C17 UNL     1      27.249   6.799  48.109  1.00  0.00     0.017 A 
HETATM   16  C18 UNL     1      27.283   7.931  47.319  1.00  0.00     0.020 A 
HETATM   17  C19 UNL     1      26.113   8.557  46.948  1.00  0.00     0.116 A 
HETATM   18  N4  UNL     1      24.945   8.032  47.376  1.00  0.00    -0.272 NA
HETATM   19  C20 UNL     1      24.912   6.919  48.153  1.00  0.00     0.130 A 
ENDBRANCH  12  14
ENDBRANCH   6   8
ENDBRANCH   2   6
BRANCH   1  20
HETATM   20  C9  UNL     1      23.472   0.684  52.893  1.00  0.00     0.159 C 
BRANCH  20  21
HETATM   21  N1  UNL     1      24.864   0.456  52.558  1.00  0.00    -0.353 N 
HETATM   22  C8  UNL     1      25.600  -0.309  53.493  1.00  0.00     0.254 C 
HETATM   23  O2  UNL     1      24.858  -0.638  54.452  1.00  0.00    -0.268 OA
HETATM   24  H8  UNL     1      25.367   0.793  51.712  1.00  0.00     0.163 HD
BRANCH  22  25
HETATM   25  C7  UNL     1      26.990  -0.711  53.460  1.00  0.00     0.065 A 
HETATM   26  C2  UNL     1      28.097  -0.004  53.852  1.00  0.00     0.084 A 
HETATM   27  C3  UNL     1      29.384  -0.488  53.776  1.00  0.00     0.038 A 
HETATM   28  C4  UNL     1      29.640  -1.731  53.292  1.00  0.00     0.003 A 
HETATM   29  C5  UNL     1      28.555  -2.459  52.893  1.00  0.00     0.001 A 
HETATM   30  C6  UNL     1      27.270  -1.971  52.971  1.00  0.00     0.020 A 
BRANCH  26  31
HETATM   31  O1  UNL     1      27.896   1.263  54.351  1.00  0.00    -0.355 OA
HETATM   32  C1  UNL     1      28.331   2.405  53.678  1.00  0.00     0.210 C 
ENDBRANCH  26  31
ENDBRANCH  22  25
ENDBRANCH  20  21
ENDBRANCH   1  20
TORSDOF 7
ENDMDL
MODEL 5
REMARK VINA RESULT:      -8.6      2.325      5.548
REMARK  7 active torsions:
REMARK  status: ('A' for Active; 'I' for Inactive)
REMARK    1  A    between atoms: O1_2  and  C2_3 
REMARK    2  A    between atoms: C7_8  and  C8_9 
REMARK       I    between atoms: C8_9  and  N1_11 
REMARK    3  A    between atoms: N1_11  and  C9_12 
REMARK    4  A    between atoms: C9_12  and  C10_13 
REMARK    5  A    between atoms: C11_14  and  N2_15 
REMARK    6  A    between atoms: N2_15  and  C12_16 
REMARK    7  A    between atoms: C15_20  and  C16_21 
ROOT
HETATM    1  C10 UNL     1      23.399   3.289  51.655  1.00  0.00    -0.032 A 
HETATM    2  C11 UNL     1      22.497   2.330  51.666  1.00  0.00     0.053 A 
HETATM    3  C21 UNL     1      21.233   2.884  52.133  1.00  0.00     0.026 A 
HETATM    4  C22 UNL     1      21.390   4.189  52.401  1.00  0.00    -0.020 A 
HETATM    5  C23 UNL     1      22.796   4.572  52.119  1.00  0.00     0.065 A 
ENDROOT
BRANCH   2   6
HETATM    6  N2  UNL     1      22.432   0.945  51.355  1.00  0.00    -0.188 N 
HETATM    7  H11 UNL     1      22.061   0.667  50.411  1.00  0.00     0.184 HD
BRANCH   6   8
HETATM    8  C12 UNL     1      22.940   0.303  52.542  1.00  0.00     0.727 A 
HETATM    9  N3  UNL     1      22.100  -0.217  53.457  1.00  0.00    -0.075 NA
HETATM   10  C13 UNL     1      22.658  -0.799  54.537  1.00  0.00     0.139 A 
HETATM   11  C14 UNL     1      24.033  -0.830  54.646  1.00  0.00     0.053 A 
HETATM   12  C15 UNL     1      24.886  -0.296  53.704  1.00  0.00     0.089 A 
HETATM   13  N5  UNL     1      24.282   0.283  52.629  1.00  0.00    -0.062 NA
BRANCH  12  14
HETATM   14  C16 UNL     1      26.338  -0.337  53.836  1.00  0.00     0.011 A 
HETATM   15  C17 UNL     1      27.205  -1.058  53.041  1.00  0.00     0.017 A 
HETATM   16  C18 UNL     1      28.570  -1.028  53.250  1.00  0.00     0.020 A 
HETATM   17  C19 UNL     1      29.103  -0.270  54.269  1.00  0.00     0.116 A 
HETATM   18  N4  UNL     1      28.256   0.437  55.048  1.00  0.00    -0.272 NA
HETATM   19  C20 UNL     1      26.915   0.409  54.843  1.00  0.00     0.130 A 
ENDBRANCH  12  14
ENDBRANCH   6   8
ENDBRANCH   2   6
BRANCH   1  20
HETATM   20  C9  UNL     1      24.816   3.200  51.258  1.00  0.00     0.159 C 
BRANCH  20  21
HETATM   21  N1  UNL     1      25.276   4.466  50.721  1.00  0.00    -0.353 N 
HETATM   22  C8  UNL     1      26.182   4.377  49.639  1.00  0.00     0.254 C 
HETATM   23  O2  UNL     1      26.403   3.171  49.366  1.00  0.00    -0.268 OA
HETATM   24  H8  UNL     1      25.010   5.417  51.048  1.00  0.00     0.163 HD
BRANCH  22  25
HETATM   25  C7  UNL     1      26.821   5.435  48.886  1.00  0.00     0.065 A 
HETATM   26  C2  UNL     1      26.284   6.616  48.443  1.00  0.00     0.084 A 
HETATM   27  C3  UNL     1      26.990   7.559  47.729  1.00  0.00     0.038 A 
HETATM   28  C4  UNL     1      28.296   7.369  47.413  1.00  0.00     0.003 A 
HETATM   29  C5  UNL     1      28.858   6.200  47.842  1.00  0.00     0.001 A 
HETATM   30  C6  UNL     1      28.149   5.259  48.555  1.00  0.00     0.020 A 
BRANCH  26  31
HETATM   31  O1  UNL     1      24.962   6.862  48.736  1.00  0.00    -0.355 OA
HETATM   32  C1  UNL     1      23.938   6.597  47.827  1.00  0.00     0.210 C 
ENDBRANCH  26  31
ENDBRANCH  22  25
ENDBRANCH  20  21
ENDBRANCH   1  20
TORSDOF 7
ENDMDL
MODEL 6
REMARK VINA RESULT:      -8.4      2.025      5.418
REMARK  7 active torsions:
REMARK  status: ('A' for Active; 'I' for Inactive)
REMARK    1  A    between atoms: O1_2  and  C2_3 
REMARK    2  A    between atoms: C7_8  and  C8_9 
REMARK       I    between atoms: C8_9  and  N1_11 
REMARK    3  A    between atoms: N1_11  and  C9_12 
REMARK    4  A    between atoms: C9_12  and  C10_13 
REMARK    5  A    between atoms: C11_14  and  N2_15 
REMARK    6  A    between atoms: N2_15  and  C12_16 
REMARK    7  A    between atoms: C15_20  and  C16_21 
ROOT
HETATM    1  C10 UNL     1      21.934   2.636  50.501  1.00  0.00    -0.032 A 
HETATM    2  C11 UNL     1      21.119   1.945  51.270  1.00  0.00     0.053 A 
HETATM    3  C21 UNL     1      20.579   0.834  50.498  1.00  0.00     0.026 A 
HETATM    4  C22 UNL     1      21.082   0.868  49.255  1.00  0.00    -0.020 A 
HETATM    5  C23 UNL     1      22.000   2.028  49.140  1.00  0.00     0.065 A 
ENDROOT
BRANCH   2   6
HETATM    6  N2  UNL     1      20.642   1.995  52.608  1.00  0.00    -0.188 N 
HETATM    7  H11 UNL     1      19.955   2.750  52.861  1.00  0.00     0.184 HD
BRANCH   6   8
HETATM    8  C12 UNL     1      21.313   0.892  53.251  1.00  0.00     0.727 A 
HETATM    9  N3  UNL     1      20.613  -0.044  53.920  1.00  0.00    -0.075 NA
HETATM   10  C13 UNL     1      21.318  -1.040  54.492  1.00  0.00     0.139 A 
HETATM   11  C14 UNL     1      22.692  -1.048  54.366  1.00  0.00     0.053 A 
HETATM   12  C15 UNL     1      23.400  -0.084  53.679  1.00  0.00     0.089 A 
HETATM   13  N5  UNL     1      22.651   0.904  53.116  1.00  0.00    -0.062 NA
BRANCH  12  14
HETATM   14  C16 UNL     1      24.853  -0.108  53.556  1.00  0.00     0.011 A 
HETATM   15  C17 UNL     1      25.576   0.159  52.412  1.00  0.00     0.017 A 
HETATM   16  C18 UNL     1      26.956   0.111  52.402  1.00  0.00     0.020 A 
HETATM   17  C19 UNL     1      27.651  -0.208  53.547  1.00  0.00     0.116 A 
HETATM   18  N4  UNL     1      26.947  -0.469  54.669  1.00  0.00    -0.272 NA
HETATM   19  C20 UNL     1      25.590  -0.422  54.680  1.00  0.00     0.130 A 
ENDBRANCH  12  14
ENDBRANCH   6   8
ENDBRANCH   2   6
BRANCH   1  20
HETATM   20  C9  UNL     1      22.709   3.842  50.848  1.00  0.00     0.159 C 
BRANCH  20  21
HETATM   21  N1  UNL     1      23.844   3.992  49.958  1.00  0.00    -0.353 N 
HETATM   22  C8  UNL     1      24.677   5.106  50.214  1.00  0.00     0.254 C 
HETATM   23  O2  UNL     1      24.235   5.751  51.197  1.00  0.00    -0.268 OA
HETATM   24  H8  UNL     1      24.101   3.372  49.163  1.00  0.00     0.163 HD
BRANCH  22  25
HETATM   25  C7  UNL     1      25.874   5.536  49.522  1.00  0.00     0.065 A 
HETATM   26  C2  UNL     1      26.236   6.804  49.145  1.00  0.00     0.084 A 
HETATM   27  C3  UNL     1      27.407   7.102  48.485  1.00  0.00     0.038 A 
HETATM   28  C4  UNL     1      28.298   6.130  48.161  1.00  0.00     0.003 A 
HETATM   29  C5  UNL     1      27.963   4.857  48.525  1.00  0.00     0.001 A 
HETATM   30  C6  UNL     1      26.790   4.563  49.184  1.00  0.00     0.020 A 
BRANCH  26  31
HETATM   31  O1  UNL     1      25.369   7.828  49.449  1.00  0.00    -0.355 OA
HETATM   32  C1  UNL     1      25.814   9.067  49.911  1.00  0.00     0.210 C 
ENDBRANCH  26  31
ENDBRANCH  22  25
ENDBRANCH  20  21
ENDBRANCH   1  20
TORSDOF 7
ENDMDL
MODEL 7
REMARK VINA RESULT:      -8.4      2.495      7.276
REMARK  7 active torsions:
REMARK  status: ('A' for Active; 'I' for Inactive)
REMARK    1  A    between atoms: O1_2  and  C2_3 
REMARK    2  A    between atoms: C7_8  and  C8_9 
REMARK       I    between atoms: C8_9  and  N1_11 
REMARK    3  A    between atoms: N1_11  and  C9_12 
REMARK    4  A    between atoms: C9_12  and  C10_13 
REMARK    5  A    between atoms: C11_14  and  N2_15 
REMARK    6  A    between atoms: N2_15  and  C12_16 
REMARK    7  A    between atoms: C15_20  and  C16_21 
ROOT
HETATM    1  C10 UNL     1      21.189   4.766  50.194  1.00  0.00    -0.032 A 
HETATM    2  C11 UNL     1      21.836   5.467  51.102  1.00  0.00     0.053 A 
HETATM    3  C21 UNL     1      21.520   6.877  50.914  1.00  0.00     0.026 A 
HETATM    4  C22 UNL     1      20.676   7.012  49.882  1.00  0.00    -0.020 A 
HETATM    5  C23 UNL     1      20.383   5.669  49.322  1.00  0.00     0.065 A 
ENDROOT
BRANCH   2   6
HETATM    6  N2  UNL     1      22.729   5.221  52.179  1.00  0.00    -0.188 N 
HETATM    7  H11 UNL     1      22.419   5.485  53.149  1.00  0.00     0.184 HD
BRANCH   6   8
HETATM    8  C12 UNL     1      23.882   4.634  51.541  1.00  0.00     0.727 A 
HETATM    9  N3  UNL     1      24.344   5.119  50.373  1.00  0.00    -0.075 NA
HETATM   10  C13 UNL     1      25.425   4.512  49.846  1.00  0.00     0.139 A 
HETATM   11  C14 UNL     1      25.989   3.446  50.515  1.00  0.00     0.053 A 
HETATM   12  C15 UNL     1      25.509   2.955  51.711  1.00  0.00     0.089 A 
HETATM   13  N5  UNL     1      24.416   3.596  52.211  1.00  0.00    -0.062 NA
BRANCH  12  14
HETATM   14  C16 UNL     1      26.118   1.826  52.405  1.00  0.00     0.011 A 
HETATM   15  C17 UNL     1      26.540   0.648  51.826  1.00  0.00     0.017 A 
HETATM   16  C18 UNL     1      27.107  -0.364  52.575  1.00  0.00     0.020 A 
HETATM   17  C19 UNL     1      27.268  -0.217  53.935  1.00  0.00     0.116 A 
HETATM   18  N4  UNL     1      26.857   0.936  54.505  1.00  0.00    -0.272 NA
HETATM   19  C20 UNL     1      26.299   1.930  53.770  1.00  0.00     0.130 A 
ENDBRANCH  12  14
ENDBRANCH   6   8
ENDBRANCH   2   6
BRANCH   1  20
HETATM   20  C9  UNL     1      21.201   3.305  49.994  1.00  0.00     0.159 C 
BRANCH  20  21
HETATM   21  N1  UNL     1      21.006   2.617  51.255  1.00  0.00    -0.353 N 
HETATM   22  C8  UNL     1      21.805   1.467  51.453  1.00  0.00     0.254 C 
HETATM   23  O2  UNL     1      22.542   1.283  50.452  1.00  0.00    -0.268 OA
HETATM   24  H8  UNL     1      20.346   2.880  52.015  1.00  0.00     0.163 HD
BRANCH  22  25
HETATM   25  C7  UNL     1      21.855   0.566  52.585  1.00  0.00     0.065 A 
HETATM   26  C2  UNL     1      20.816   0.051  53.316  1.00  0.00     0.084 A 
HETATM   27  C3  UNL     1      20.979  -0.805  54.383  1.00  0.00     0.038 A 
HETATM   28  C4  UNL     1      22.214  -1.200  54.784  1.00  0.00     0.003 A 
HETATM   29  C5  UNL     1      23.269  -0.702  54.073  1.00  0.00     0.001 A 
HETATM   30  C6  UNL     1      23.102   0.155  53.008  1.00  0.00     0.020 A 
BRANCH  26  31
HETATM   31  O1  UNL     1      19.541   0.419  52.953  1.00  0.00    -0.355 OA
HETATM   32  C1  UNL     1      18.595  -0.509  52.518  1.00  0.00     0.210 C 
ENDBRANCH  26  31
ENDBRANCH  22  25
ENDBRANCH  20  21
ENDBRANCH   1  20
TORSDOF 7
ENDMDL
MODEL 8
REMARK VINA RESULT:      -8.3      3.094      8.630
REMARK  7 active torsions:
REMARK  status: ('A' for Active; 'I' for Inactive)
REMARK    1  A    between atoms: O1_2  and  C2_3 
REMARK    2  A    between atoms: C7_8  and  C8_9 
REMARK       I    between atoms: C8_9  and  N1_11 
REMARK    3  A    between atoms: N1_11  and  C9_12 
REMARK    4  A    between atoms: C9_12  and  C10_13 
REMARK    5  A    between atoms: C11_14  and  N2_15 
REMARK    6  A    between atoms: N2_15  and  C12_16 
REMARK    7  A    between atoms: C15_20  and  C16_21 
ROOT
HETATM    1  C10 UNL     1      23.369   3.564  50.973  1.00  0.00    -0.032 A 
HETATM    2  C11 UNL     1      23.349   4.796  51.437  1.00  0.00     0.053 A 
HETATM    3  C21 UNL     1      21.984   5.123  51.829  1.00  0.00     0.026 A 
HETATM    4  C22 UNL     1      21.188   4.071  51.593  1.00  0.00    -0.020 A 
HETATM    5  C23 UNL     1      22.002   2.970  51.022  1.00  0.00     0.065 A 
ENDROOT
BRANCH   2   6
HETATM    6  N2  UNL     1      24.273   5.855  51.650  1.00  0.00    -0.188 N 
HETATM    7  H11 UNL     1      24.549   6.078  52.640  1.00  0.00     0.184 HD
BRANCH   6   8
HETATM    8  C12 UNL     1      24.563   6.328  50.319  1.00  0.00     0.727 A 
HETATM    9  N3  UNL     1      23.593   6.859  49.550  1.00  0.00    -0.075 NA
HETATM   10  C13 UNL     1      23.950   7.276  48.320  1.00  0.00     0.139 A 
HETATM   11  C14 UNL     1      25.263   7.141  47.920  1.00  0.00     0.053 A 
HETATM   12  C15 UNL     1      26.250   6.597  48.715  1.00  0.00     0.089 A 
HETATM   13  N5  UNL     1      25.849   6.187  49.950  1.00  0.00    -0.062 NA
BRANCH  12  14
HETATM   14  C16 UNL     1      27.635   6.461  48.276  1.00  0.00     0.011 A 
HETATM   15  C17 UNL     1      28.381   7.425  47.631  1.00  0.00     0.017 A 
HETATM   16  C18 UNL     1      29.690   7.196  47.257  1.00  0.00     0.020 A 
HETATM   17  C19 UNL     1      30.288   5.984  47.522  1.00  0.00     0.116 A 
HETATM   18  N4  UNL     1      29.561   5.038  48.154  1.00  0.00    -0.272 NA
HETATM   19  C20 UNL     1      28.274   5.262  48.522  1.00  0.00     0.130 A 
ENDBRANCH  12  14
ENDBRANCH   6   8
ENDBRANCH   2   6
BRANCH   1  20
HETATM   20  C9  UNL     1      24.525   2.805  50.461  1.00  0.00     0.159 C 
BRANCH  20  21
HETATM   21  N1  UNL     1      25.117   2.004  51.515  1.00  0.00    -0.353 N 
HETATM   22  C8  UNL     1      26.508   2.173  51.703  1.00  0.00     0.254 C 
HETATM   23  O2  UNL     1      26.949   3.015  50.881  1.00  0.00    -0.268 OA
HETATM   24  H8  UNL     1      24.627   1.328  52.137  1.00  0.00     0.163 HD
BRANCH  22  25
HETATM   25  C7  UNL     1      27.392   1.534  52.655  1.00  0.00     0.065 A 
HETATM   26  C2  UNL     1      27.460   0.211  53.006  1.00  0.00     0.084 A 
HETATM   27  C3  UNL     1      28.347  -0.292  53.932  1.00  0.00     0.038 A 
HETATM   28  C4  UNL     1      29.231   0.517  54.570  1.00  0.00     0.003 A 
HETATM   29  C5  UNL     1      29.186   1.842  54.239  1.00  0.00     0.001 A 
HETATM   30  C6  UNL     1      28.297   2.341  53.313  1.00  0.00     0.020 A 
BRANCH  26  31
HETATM   31  O1  UNL     1      26.586  -0.655  52.390  1.00  0.00    -0.355 OA
HETATM   32  C1  UNL     1      26.872  -2.010  52.226  1.00  0.00     0.210 C 
ENDBRANCH  26  31
ENDBRANCH  22  25
ENDBRANCH  20  21
ENDBRANCH   1  20
TORSDOF 7
ENDMDL
MODEL 9
REMARK VINA RESULT:      -8.2      2.351      7.007
REMARK  7 active torsions:
REMARK  status: ('A' for Active; 'I' for Inactive)
REMARK    1  A    between atoms: O1_2  and  C2_3 
REMARK    2  A    between atoms: C7_8  and  C8_9 
REMARK       I    between atoms: C8_9  and  N1_11 
REMARK    3  A    between atoms: N1_11  and  C9_12 
REMARK    4  A    between atoms: C9_12  and  C10_13 
REMARK    5  A    between atoms: C11_14  and  N2_15 
REMARK    6  A    between atoms: N2_15  and  C12_16 
REMARK    7  A    between atoms: C15_20  and  C16_21 
ROOT
HETATM    1  C10 UNL     1      22.271   3.409  50.900  1.00  0.00    -0.032 A 
HETATM    2  C11 UNL     1      23.527   3.360  51.292  1.00  0.00     0.053 A 
HETATM    3  C21 UNL     1      24.376   3.203  50.119  1.00  0.00     0.026 A 
HETATM    4  C22 UNL     1      23.612   3.158  49.018  1.00  0.00    -0.020 A 
HETATM    5  C23 UNL     1      22.188   3.287  49.416  1.00  0.00     0.065 A 
ENDROOT
BRANCH   2   6
HETATM    6  N2  UNL     1      24.249   3.418  52.515  1.00  0.00    -0.188 N 
HETATM    7  H11 UNL     1      24.488   4.365  52.903  1.00  0.00     0.184 HD
BRANCH   6   8
HETATM    8  C12 UNL     1      24.442   2.032  52.865  1.00  0.00     0.727 A 
HETATM    9  N3  UNL     1      23.387   1.226  53.089  1.00  0.00    -0.075 NA
HETATM   10  C13 UNL     1      23.656  -0.055  53.410  1.00  0.00     0.139 A 
HETATM   11  C14 UNL     1      24.970  -0.464  53.493  1.00  0.00     0.053 A 
HETATM   12  C15 UNL     1      26.045   0.369  53.261  1.00  0.00     0.089 A 
HETATM   13  N5  UNL     1      25.731   1.655  52.939  1.00  0.00    -0.062 NA
BRANCH  12  14
HETATM   14  C16 UNL     1      27.429  -0.081  53.353  1.00  0.00     0.011 A 
HETATM   15  C17 UNL     1      27.886  -1.359  53.106  1.00  0.00     0.017 A 
HETATM   16  C18 UNL     1      29.223  -1.683  53.221  1.00  0.00     0.020 A 
HETATM   17  C19 UNL     1      30.143  -0.726  53.589  1.00  0.00     0.116 A 
HETATM   18  N4  UNL     1      29.699   0.526  53.831  1.00  0.00    -0.272 NA
HETATM   19  C20 UNL     1      28.385   0.846  53.718  1.00  0.00     0.130 A 
ENDBRANCH  12  14
ENDBRANCH   6   8
ENDBRANCH   2   6
BRANCH   1  20
HETATM   20  C9  UNL     1      21.064   3.560  51.732  1.00  0.00     0.159 C 
BRANCH  20  21
HETATM   21  N1  UNL     1      20.602   2.267  52.199  1.00  0.00    -0.353 N 
HETATM   22  C8  UNL     1      19.308   1.889  51.770  1.00  0.00     0.254 C 
HETATM   23  O2  UNL     1      18.818   2.793  51.048  1.00  0.00    -0.268 OA
HETATM   24  H8  UNL     1      21.119   1.601  52.809  1.00  0.00     0.163 HD
BRANCH  22  25
HETATM   25  C7  UNL     1      18.562   0.682  52.053  1.00  0.00     0.065 A 
HETATM   26  C2  UNL     1      18.879  -0.341  52.910  1.00  0.00     0.084 A 
HETATM   27  C3  UNL     1      18.090  -1.452  53.103  1.00  0.00     0.038 A 
HETATM   28  C4  UNL     1      16.916  -1.605  52.437  1.00  0.00     0.003 A 
HETATM   29  C5  UNL     1      16.574  -0.601  51.577  1.00  0.00     0.001 A 
HETATM   30  C6  UNL     1      17.367   0.509  51.386  1.00  0.00     0.020 A 
BRANCH  26  31
HETATM   31  O1  UNL     1      20.059  -0.238  53.611  1.00  0.00    -0.355 OA
HETATM   32  C1  UNL     1      20.678  -1.344  54.192  1.00  0.00     0.210 C 
ENDBRANCH  26  31
ENDBRANCH  22  25
ENDBRANCH  20  21
ENDBRANCH   1  20
TORSDOF 7
ENDMDL
