MODEL 1
REMARK VINA RESULT:      -7.1      0.000      0.000
REMARK  10 active torsions:
REMARK  status: ('A' for Active; 'I' for Inactive)
REMARK    1  A    between atoms: C6_8  and  O1_9 
REMARK    2  A    between atoms: O1_9  and  C7_10 
REMARK    3  A    between atoms: C7_10  and  C8_11 
REMARK    4  A    between atoms: C8_11  and  N3_12 
REMARK    5  A    between atoms: C8_11  and  C9_13 
REMARK    6  A    between atoms: C13_17  and  C14_18 
REMARK    7  A    between atoms: C15_19  and  O2_20 
REMARK    8  A    between atoms: O2_20  and  C16_21 
REMARK    9  A    between atoms: C16_21  and  C17_22 
REMARK   10  A    between atoms: C17_22  and  O3_23 
ROOT
HETATM    1  C8  UNL     1      24.914   2.649  50.768  1.00  0.00     0.131 C 
ENDROOT
BRANCH   1   2
HETATM    2  C7  UNL     1      25.202   2.832  52.243  1.00  0.00     0.198 C 
BRANCH   2   3
HETATM    3  O1  UNL     1      25.695   1.605  52.690  1.00  0.00    -0.371 OA
BRANCH   3   4
HETATM    4  C6  UNL     1      27.037   1.407  52.427  1.00  0.00     0.225 A 
HETATM    5  C3  UNL     1      27.346   0.012  52.818  1.00  0.00     0.115 A 
HETATM    6  C2  UNL     1      26.790  -0.988  52.171  1.00  0.00     0.012 C 
HETATM    7  N1  UNL     1      28.171   0.200  53.800  1.00  0.00    -0.401 NA
HETATM    8  C1  UNL     1      27.017  -2.415  52.462  1.00  0.00     0.039 C 
HETATM    9  C4  UNL     1      28.871   0.681  54.625  1.00  0.00     0.298 A 
HETATM   10  N2  UNL     1      28.598   2.048  54.272  1.00  0.00    -0.243 NA
HETATM   11  C5  UNL     1      27.792   2.332  53.305  1.00  0.00     0.131 A 
ENDBRANCH   3   4
ENDBRANCH   2   3
ENDBRANCH   1   2
BRANCH   1  12
HETATM   12  N3  UNL     1      23.545   2.294  50.578  1.00  0.00    -0.420 N 
HETATM   13  H11 UNL     1      22.952   3.068  50.261  1.00  0.00     0.150 HD
HETATM   14  H12 UNL     1      23.169   1.680  51.309  1.00  0.00     0.150 HD
ENDBRANCH   1  12
BRANCH   1  15
HETATM   15  C9  UNL     1      25.210   3.883  49.971  1.00  0.00    -0.033 A 
HETATM   16  C10 UNL     1      24.269   4.824  49.625  1.00  0.00     0.009 A 
HETATM   17  C11 UNL     1      24.656   5.923  48.892  1.00  0.00     0.002 A 
HETATM   18  C12 UNL     1      25.976   6.136  48.474  1.00  0.00     0.021 A 
HETATM   19  C13 UNL     1      26.829   5.146  48.869  1.00  0.00     0.020 A 
HETATM   20  C19 UNL     1      26.561   3.991  49.609  1.00  0.00     0.030 A 
BRANCH  19  21
HETATM   21  C14 UNL     1      28.220   5.306  48.459  1.00  0.00    -0.037 C 
HETATM   22  C15 UNL     1      29.370   5.452  48.104  1.00  0.00     0.059 C 
BRANCH  22  23
HETATM   23  O2  UNL     1      30.660   5.629  47.688  1.00  0.00    -0.301 OA
BRANCH  23  24
HETATM   24  C16 UNL     1      31.760   5.507  48.593  1.00  0.00     0.214 C 
BRANCH  24  25
HETATM   25  C17 UNL     1      33.029   5.238  47.853  1.00  0.00     0.194 C 
BRANCH  25  26
HETATM   26  O3  UNL     1      33.424   3.925  47.954  1.00  0.00    -0.394 OA
HETATM   27  C18 UNL     1      34.778   3.711  47.880  1.00  0.00     0.201 C 
ENDBRANCH  25  26
ENDBRANCH  24  25
ENDBRANCH  23  24
ENDBRANCH  22  23
ENDBRANCH  19  21
ENDBRANCH   1  15
TORSDOF 10
ENDMDL
MODEL 2
REMARK VINA RESULT:      -7.0      1.615      2.138
REMARK  10 active torsions:
REMARK  status: ('A' for Active; 'I' for Inactive)
REMARK    1  A    between atoms: C6_8  and  O1_9 
REMARK    2  A    between atoms: O1_9  and  C7_10 
REMARK    3  A    between atoms: C7_10  and  C8_11 
REMARK    4  A    between atoms: C8_11  and  N3_12 
REMARK    5  A    between atoms: C8_11  and  C9_13 
REMARK    6  A    between atoms: C13_17  and  C14_18 
REMARK    7  A    between atoms: C15_19  and  O2_20 
REMARK    8  A    between atoms: O2_20  and  C16_21 
REMARK    9  A    between atoms: C16_21  and  C17_22 
REMARK   10  A    between atoms: C17_22  and  O3_23 
ROOT
HETATM    1  C8  UNL     1      25.445   3.725  50.037  1.00  0.00     0.131 C 
ENDROOT
BRANCH   1   2
HETATM    2  C7  UNL     1      26.414   2.603  50.339  1.00  0.00     0.198 C 
BRANCH   2   3
HETATM    3  O1  UNL     1      26.307   2.365  51.711  1.00  0.00    -0.371 OA
BRANCH   3   4
HETATM    4  C6  UNL     1      26.361   1.029  52.058  1.00  0.00     0.225 A 
HETATM    5  C3  UNL     1      25.166   0.757  52.890  1.00  0.00     0.115 A 
HETATM    6  C2  UNL     1      23.966   0.854  52.363  1.00  0.00     0.012 C 
HETATM    7  N1  UNL     1      25.710   0.468  54.030  1.00  0.00    -0.401 NA
HETATM    8  C1  UNL     1      22.703   0.609  53.083  1.00  0.00     0.039 C 
HETATM    9  C4  UNL     1      26.479   0.257  54.906  1.00  0.00     0.298 A 
HETATM   10  N2  UNL     1      27.661   0.509  54.129  1.00  0.00    -0.243 NA
HETATM   11  C5  UNL     1      27.577   0.844  52.886  1.00  0.00     0.131 A 
ENDBRANCH   3   4
ENDBRANCH   2   3
ENDBRANCH   1   2
BRANCH   1  12
HETATM   12  N3  UNL     1      24.892   4.233  51.251  1.00  0.00    -0.420 N 
HETATM   13  H11 UNL     1      24.488   3.512  51.859  1.00  0.00     0.150 HD
HETATM   14  H12 UNL     1      24.364   5.104  51.135  1.00  0.00     0.150 HD
ENDBRANCH   1  12
BRANCH   1  15
HETATM   15  C9  UNL     1      26.091   4.852  49.290  1.00  0.00    -0.033 A 
HETATM   16  C10 UNL     1      25.432   5.987  48.881  1.00  0.00     0.009 A 
HETATM   17  C11 UNL     1      26.128   6.961  48.202  1.00  0.00     0.002 A 
HETATM   18  C12 UNL     1      27.493   6.856  47.902  1.00  0.00     0.021 A 
HETATM   19  C13 UNL     1      28.051   5.693  48.350  1.00  0.00     0.020 A 
HETATM   20  C19 UNL     1      27.456   4.637  49.045  1.00  0.00     0.030 A 
BRANCH  19  21
HETATM   21  C14 UNL     1      29.470   5.519  48.064  1.00  0.00    -0.037 C 
HETATM   22  C15 UNL     1      30.646   5.370  47.806  1.00  0.00     0.059 C 
BRANCH  22  23
HETATM   23  O2  UNL     1      31.966   5.195  47.497  1.00  0.00    -0.301 OA
BRANCH  23  24
HETATM   24  C16 UNL     1      32.412   4.073  46.731  1.00  0.00     0.214 C 
BRANCH  24  25
HETATM   25  C17 UNL     1      32.989   3.019  47.620  1.00  0.00     0.194 C 
BRANCH  25  26
HETATM   26  O3  UNL     1      34.355   3.122  47.732  1.00  0.00    -0.394 OA
HETATM   27  C18 UNL     1      35.023   3.384  46.561  1.00  0.00     0.201 C 
ENDBRANCH  25  26
ENDBRANCH  24  25
ENDBRANCH  23  24
ENDBRANCH  22  23
ENDBRANCH  19  21
ENDBRANCH   1  15
TORSDOF 10
ENDMDL
MODEL 3
REMARK VINA RESULT:      -6.9      3.842      7.120
REMARK  10 active torsions:
REMARK  status: ('A' for Active; 'I' for Inactive)
REMARK    1  A    between atoms: C6_8  and  O1_9 
REMARK    2  A    between atoms: O1_9  and  C7_10 
REMARK    3  A    between atoms: C7_10  and  C8_11 
REMARK    4  A    between atoms: C8_11  and  N3_12 
REMARK    5  A    between atoms: C8_11  and  C9_13 
REMARK    6  A    between atoms: C13_17  and  C14_18 
REMARK    7  A    between atoms: C15_19  and  O2_20 
REMARK    8  A    between atoms: O2_20  and  C16_21 
REMARK    9  A    between atoms: C16_21  and  C17_22 
REMARK   10  A    between atoms: C17_22  and  O3_23 
ROOT
HETATM    1  C8  UNL     1      22.188   3.156  51.613  1.00  0.00     0.131 C 
ENDROOT
BRANCH   1   2
HETATM    2  C7  UNL     1      23.117   3.276  50.425  1.00  0.00     0.198 C 
BRANCH   2   3
HETATM    3  O1  UNL     1      24.019   4.291  50.747  1.00  0.00    -0.371 OA
BRANCH   3   4
HETATM    4  C6  UNL     1      24.079   5.309  49.814  1.00  0.00     0.225 A 
HETATM    5  C3  UNL     1      25.515   5.577  49.566  1.00  0.00     0.115 A 
HETATM    6  C2  UNL     1      26.265   4.652  49.010  1.00  0.00     0.012 C 
HETATM    7  N1  UNL     1      25.631   6.784  50.023  1.00  0.00    -0.401 NA
HETATM    8  C1  UNL     1      27.701   4.796  48.711  1.00  0.00     0.039 C 
HETATM    9  C4  UNL     1      25.424   7.848  50.499  1.00  0.00     0.298 A 
HETATM   10  N2  UNL     1      24.026   7.627  50.751  1.00  0.00    -0.243 NA
HETATM   11  C5  UNL     1      23.467   6.506  50.440  1.00  0.00     0.131 A 
ENDBRANCH   3   4
ENDBRANCH   2   3
ENDBRANCH   1   2
BRANCH   1  12
HETATM   12  N3  UNL     1      20.836   3.344  51.196  1.00  0.00    -0.420 N 
HETATM   13  H11 UNL     1      20.412   4.215  51.532  1.00  0.00     0.150 HD
HETATM   14  H12 UNL     1      20.265   2.493  51.241  1.00  0.00     0.150 HD
ENDBRANCH   1  12
BRANCH   1  15
HETATM   15  C9  UNL     1      22.305   1.829  52.299  1.00  0.00    -0.033 A 
HETATM   16  C10 UNL     1      21.234   1.036  52.637  1.00  0.00     0.009 A 
HETATM   17  C11 UNL     1      21.460  -0.168  53.263  1.00  0.00     0.002 A 
HETATM   18  C12 UNL     1      22.742  -0.636  53.578  1.00  0.00     0.021 A 
HETATM   19  C13 UNL     1      23.733   0.224  53.202  1.00  0.00     0.020 A 
HETATM   20  C19 UNL     1      23.633   1.464  52.565  1.00  0.00     0.030 A 
BRANCH  19  21
HETATM   21  C14 UNL     1      25.094  -0.203  53.508  1.00  0.00    -0.037 C 
HETATM   22  C15 UNL     1      26.223  -0.552  53.782  1.00  0.00     0.059 C 
BRANCH  22  23
HETATM   23  O2  UNL     1      27.492  -0.939  54.110  1.00  0.00    -0.301 OA
BRANCH  23  24
HETATM   24  C16 UNL     1      28.393  -0.055  54.782  1.00  0.00     0.214 C 
BRANCH  24  25
HETATM   25  C17 UNL     1      29.485   0.388  53.864  1.00  0.00     0.194 C 
BRANCH  25  26
HETATM   26  O3  UNL     1      29.068   1.367  52.993  1.00  0.00    -0.394 OA
HETATM   27  C18 UNL     1      28.514   2.478  53.578  1.00  0.00     0.201 C 
ENDBRANCH  25  26
ENDBRANCH  24  25
ENDBRANCH  23  24
ENDBRANCH  22  23
ENDBRANCH  19  21
ENDBRANCH   1  15
TORSDOF 10
ENDMDL
MODEL 4
REMARK VINA RESULT:      -6.9      1.842      2.411
REMARK  10 active torsions:
REMARK  status: ('A' for Active; 'I' for Inactive)
REMARK    1  A    between atoms: C6_8  and  O1_9 
REMARK    2  A    between atoms: O1_9  and  C7_10 
REMARK    3  A    between atoms: C7_10  and  C8_11 
REMARK    4  A    between atoms: C8_11  and  N3_12 
REMARK    5  A    between atoms: C8_11  and  C9_13 
REMARK    6  A    between atoms: C13_17  and  C14_18 
REMARK    7  A    between atoms: C15_19  and  O2_20 
REMARK    8  A    between atoms: O2_20  and  C16_21 
REMARK    9  A    between atoms: C16_21  and  C17_22 
REMARK   10  A    between atoms: C17_22  and  O3_23 
ROOT
HETATM    1  C8  UNL     1      25.238   3.389  49.634  1.00  0.00     0.131 C 
ENDROOT
BRANCH   1   2
HETATM    2  C7  UNL     1      25.182   3.348  51.146  1.00  0.00     0.198 C 
BRANCH   2   3
HETATM    3  O1  UNL     1      25.819   2.163  51.518  1.00  0.00    -0.371 OA
BRANCH   3   4
HETATM    4  C6  UNL     1      25.468   1.706  52.774  1.00  0.00     0.225 A 
HETATM    5  C3  UNL     1      25.540   0.227  52.724  1.00  0.00     0.115 A 
HETATM    6  C2  UNL     1      26.698  -0.365  52.531  1.00  0.00     0.012 C 
HETATM    7  N1  UNL     1      24.298  -0.094  52.906  1.00  0.00    -0.401 NA
HETATM    8  C1  UNL     1      26.901  -1.823  52.463  1.00  0.00     0.039 C 
HETATM    9  C4  UNL     1      23.128  -0.069  53.088  1.00  0.00     0.298 A 
HETATM   10  N2  UNL     1      23.020   1.363  53.147  1.00  0.00    -0.243 NA
HETATM   11  C5  UNL     1      24.061   2.112  53.006  1.00  0.00     0.131 A 
ENDBRANCH   3   4
ENDBRANCH   2   3
ENDBRANCH   1   2
BRANCH   1  12
HETATM   12  N3  UNL     1      23.918   3.332  49.094  1.00  0.00    -0.420 N 
HETATM   13  H11 UNL     1      23.188   3.650  49.742  1.00  0.00     0.150 HD
HETATM   14  H12 UNL     1      23.728   2.486  48.547  1.00  0.00     0.150 HD
ENDBRANCH   1  12
BRANCH   1  15
HETATM   15  C9  UNL     1      25.919   4.622  49.121  1.00  0.00    -0.033 A 
HETATM   16  C10 UNL     1      25.282   5.819  48.892  1.00  0.00     0.009 A 
HETATM   17  C11 UNL     1      26.010   6.888  48.422  1.00  0.00     0.002 A 
HETATM   18  C12 UNL     1      27.385   6.821  48.161  1.00  0.00     0.021 A 
HETATM   19  C13 UNL     1      27.919   5.591  48.420  1.00  0.00     0.020 A 
HETATM   20  C19 UNL     1      27.291   4.437  48.895  1.00  0.00     0.030 A 
BRANCH  19  21
HETATM   21  C14 UNL     1      29.348   5.453  48.163  1.00  0.00    -0.037 C 
HETATM   22  C15 UNL     1      30.533   5.322  47.937  1.00  0.00     0.059 C 
BRANCH  22  23
HETATM   23  O2  UNL     1      31.863   5.158  47.672  1.00  0.00    -0.301 OA
BRANCH  23  24
HETATM   24  C16 UNL     1      32.336   4.081  46.860  1.00  0.00     0.214 C 
BRANCH  24  25
HETATM   25  C17 UNL     1      33.077   3.080  47.685  1.00  0.00     0.194 C 
BRANCH  25  26
HETATM   26  O3  UNL     1      34.438   3.262  47.628  1.00  0.00    -0.394 OA
HETATM   27  C18 UNL     1      34.955   3.440  46.369  1.00  0.00     0.201 C 
ENDBRANCH  25  26
ENDBRANCH  24  25
ENDBRANCH  23  24
ENDBRANCH  22  23
ENDBRANCH  19  21
ENDBRANCH   1  15
TORSDOF 10
ENDMDL
MODEL 5
REMARK VINA RESULT:      -6.7      4.049      7.395
REMARK  10 active torsions:
REMARK  status: ('A' for Active; 'I' for Inactive)
REMARK    1  A    between atoms: C6_8  and  O1_9 
REMARK    2  A    between atoms: O1_9  and  C7_10 
REMARK    3  A    between atoms: C7_10  and  C8_11 
REMARK    4  A    between atoms: C8_11  and  N3_12 
REMARK    5  A    between atoms: C8_11  and  C9_13 
REMARK    6  A    between atoms: C13_17  and  C14_18 
REMARK    7  A    between atoms: C15_19  and  O2_20 
REMARK    8  A    between atoms: O2_20  and  C16_21 
REMARK    9  A    between atoms: C16_21  and  C17_22 
REMARK   10  A    between atoms: C17_22  and  O3_23 
ROOT
HETATM    1  C8  UNL     1      20.959   1.583  50.674  1.00  0.00     0.131 C 
ENDROOT
BRANCH   1   2
HETATM    2  C7  UNL     1      21.398   3.025  50.816  1.00  0.00     0.198 C 
BRANCH   2   3
HETATM    3  O1  UNL     1      22.540   3.156  50.025  1.00  0.00    -0.371 OA
BRANCH   3   4
HETATM    4  C6  UNL     1      23.475   4.041  50.526  1.00  0.00     0.225 A 
HETATM    5  C3  UNL     1      23.956   4.848  49.380  1.00  0.00     0.115 A 
HETATM    6  C2  UNL     1      23.127   5.652  48.753  1.00  0.00     0.012 C 
HETATM    7  N1  UNL     1      25.199   4.486  49.318  1.00  0.00    -0.401 NA
HETATM    8  C1  UNL     1      23.482   6.504  47.604  1.00  0.00     0.039 C 
HETATM    9  C4  UNL     1      26.249   3.975  49.513  1.00  0.00     0.298 A 
HETATM   10  N2  UNL     1      25.821   3.180  50.632  1.00  0.00    -0.243 NA
HETATM   11  C5  UNL     1      24.601   3.232  51.051  1.00  0.00     0.131 A 
ENDBRANCH   3   4
ENDBRANCH   2   3
ENDBRANCH   1   2
BRANCH   1  12
HETATM   12  N3  UNL     1      21.653   0.967  49.589  1.00  0.00    -0.420 N 
HETATM   13  H11 UNL     1      22.644   0.784  49.777  1.00  0.00     0.150 HD
HETATM   14  H12 UNL     1      21.408   1.348  48.669  1.00  0.00     0.150 HD
ENDBRANCH   1  12
BRANCH   1  15
HETATM   15  C9  UNL     1      21.202   0.787  51.920  1.00  0.00    -0.033 A 
HETATM   16  C10 UNL     1      20.205   0.318  52.744  1.00  0.00     0.009 A 
HETATM   17  C11 UNL     1      20.545  -0.406  53.863  1.00  0.00     0.002 A 
HETATM   18  C12 UNL     1      21.870  -0.697  54.213  1.00  0.00     0.021 A 
HETATM   19  C13 UNL     1      22.780  -0.186  53.332  1.00  0.00     0.020 A 
HETATM   20  C19 UNL     1      22.563   0.559  52.170  1.00  0.00     0.030 A 
BRANCH  19  21
HETATM   21  C14 UNL     1      24.180  -0.449  53.643  1.00  0.00    -0.037 C 
HETATM   22  C15 UNL     1      25.350  -0.648  53.894  1.00  0.00     0.059 C 
BRANCH  22  23
HETATM   23  O2  UNL     1      26.672  -0.855  54.170  1.00  0.00    -0.301 OA
BRANCH  23  24
HETATM   24  C16 UNL     1      27.679   0.064  53.737  1.00  0.00     0.214 C 
BRANCH  24  25
HETATM   25  C17 UNL     1      28.629   0.372  54.848  1.00  0.00     0.194 C 
BRANCH  25  26
HETATM   26  O3  UNL     1      29.102   1.662  54.786  1.00  0.00    -0.394 OA
HETATM   27  C18 UNL     1      28.716   2.377  53.680  1.00  0.00     0.201 C 
ENDBRANCH  25  26
ENDBRANCH  24  25
ENDBRANCH  23  24
ENDBRANCH  22  23
ENDBRANCH  19  21
ENDBRANCH   1  15
TORSDOF 10
ENDMDL
MODEL 6
REMARK VINA RESULT:      -6.5      1.878      2.523
REMARK  10 active torsions:
REMARK  status: ('A' for Active; 'I' for Inactive)
REMARK    1  A    between atoms: C6_8  and  O1_9 
REMARK    2  A    between atoms: O1_9  and  C7_10 
REMARK    3  A    between atoms: C7_10  and  C8_11 
REMARK    4  A    between atoms: C8_11  and  N3_12 
REMARK    5  A    between atoms: C8_11  and  C9_13 
REMARK    6  A    between atoms: C13_17  and  C14_18 
REMARK    7  A    between atoms: C15_19  and  O2_20 
REMARK    8  A    between atoms: O2_20  and  C16_21 
REMARK    9  A    between atoms: C16_21  and  C17_22 
REMARK   10  A    between atoms: C17_22  and  O3_23 
ROOT
HETATM    1  C8  UNL     1      25.152   2.419  50.466  1.00  0.00     0.131 C 
ENDROOT
BRANCH   1   2
HETATM    2  C7  UNL     1      26.145   2.117  51.567  1.00  0.00     0.198 C 
BRANCH   2   3
HETATM    3  O1  UNL     1      25.524   1.180  52.394  1.00  0.00    -0.371 OA
BRANCH   3   4
HETATM    4  C6  UNL     1      26.290   0.057  52.647  1.00  0.00     0.225 A 
HETATM    5  C3  UNL     1      25.978  -0.368  54.032  1.00  0.00     0.115 A 
HETATM    6  C2  UNL     1      24.768  -0.788  54.330  1.00  0.00     0.012 C 
HETATM    7  N1  UNL     1      27.118  -0.180  54.619  1.00  0.00    -0.401 NA
HETATM    8  C1  UNL     1      24.335  -1.237  55.665  1.00  0.00     0.039 C 
HETATM    9  C4  UNL     1      28.246   0.085  54.860  1.00  0.00     0.298 A 
HETATM   10  N2  UNL     1      28.588   0.501  53.527  1.00  0.00    -0.243 NA
HETATM   11  C5  UNL     1      27.710   0.477  52.581  1.00  0.00     0.131 A 
ENDBRANCH   3   4
ENDBRANCH   2   3
ENDBRANCH   1   2
BRANCH   1  12
HETATM   12  N3  UNL     1      23.825   2.421  50.992  1.00  0.00    -0.420 N 
HETATM   13  H11 UNL     1      23.309   3.290  50.821  1.00  0.00     0.150 HD
HETATM   14  H12 UNL     1      23.747   2.000  51.924  1.00  0.00     0.150 HD
ENDBRANCH   1  12
BRANCH   1  15
HETATM   15  C9  UNL     1      25.414   3.739  49.807  1.00  0.00    -0.033 A 
HETATM   16  C10 UNL     1      24.452   4.695  49.580  1.00  0.00     0.009 A 
HETATM   17  C11 UNL     1      24.808   5.874  48.967  1.00  0.00     0.002 A 
HETATM   18  C12 UNL     1      26.117   6.158  48.557  1.00  0.00     0.021 A 
HETATM   19  C13 UNL     1      26.993   5.146  48.828  1.00  0.00     0.020 A 
HETATM   20  C19 UNL     1      26.757   3.912  49.440  1.00  0.00     0.030 A 
BRANCH  19  21
HETATM   21  C14 UNL     1      28.374   5.377  48.420  1.00  0.00    -0.037 C 
HETATM   22  C15 UNL     1      29.521   5.590  48.085  1.00  0.00     0.059 C 
BRANCH  22  23
HETATM   23  O2  UNL     1      30.809   5.849  47.709  1.00  0.00    -0.301 OA
BRANCH  23  24
HETATM   24  C16 UNL     1      31.282   7.186  47.534  1.00  0.00     0.214 C 
BRANCH  24  25
HETATM   25  C17 UNL     1      30.999   8.012  48.746  1.00  0.00     0.194 C 
BRANCH  25  26
HETATM   26  O3  UNL     1      31.219   9.352  48.527  1.00  0.00    -0.394 OA
HETATM   27  C18 UNL     1      30.671  10.198  49.459  1.00  0.00     0.201 C 
ENDBRANCH  25  26
ENDBRANCH  24  25
ENDBRANCH  23  24
ENDBRANCH  22  23
ENDBRANCH  19  21
ENDBRANCH   1  15
TORSDOF 10
ENDMDL
MODEL 7
REMARK VINA RESULT:      -6.5      4.214      6.663
REMARK  10 active torsions:
REMARK  status: ('A' for Active; 'I' for Inactive)
REMARK    1  A    between atoms: C6_8  and  O1_9 
REMARK    2  A    between atoms: O1_9  and  C7_10 
REMARK    3  A    between atoms: C7_10  and  C8_11 
REMARK    4  A    between atoms: C8_11  and  N3_12 
REMARK    5  A    between atoms: C8_11  and  C9_13 
REMARK    6  A    between atoms: C13_17  and  C14_18 
REMARK    7  A    between atoms: C15_19  and  O2_20 
REMARK    8  A    between atoms: O2_20  and  C16_21 
REMARK    9  A    between atoms: C16_21  and  C17_22 
REMARK   10  A    between atoms: C17_22  and  O3_23 
ROOT
HETATM    1  C8  UNL     1      22.538   4.053  51.596  1.00  0.00     0.131 C 
ENDROOT
BRANCH   1   2
HETATM    2  C7  UNL     1      21.994   2.825  52.293  1.00  0.00     0.198 C 
BRANCH   2   3
HETATM    3  O1  UNL     1      21.350   2.079  51.305  1.00  0.00    -0.371 OA
BRANCH   3   4
HETATM    4  C6  UNL     1      21.429   0.712  51.489  1.00  0.00     0.225 A 
HETATM    5  C3  UNL     1      20.072   0.254  51.871  1.00  0.00     0.115 A 
HETATM    6  C2  UNL     1      19.082   0.357  51.013  1.00  0.00     0.012 C 
HETATM    7  N1  UNL     1      20.276  -0.164  53.080  1.00  0.00    -0.401 NA
HETATM    8  C1  UNL     1      17.693  -0.062  51.271  1.00  0.00     0.039 C 
HETATM    9  C4  UNL     1      20.764  -0.455  54.120  1.00  0.00     0.298 A 
HETATM   10  N2  UNL     1      22.094  -0.025  53.784  1.00  0.00    -0.243 NA
HETATM   11  C5  UNL     1      22.353   0.480  52.625  1.00  0.00     0.131 A 
ENDBRANCH   3   4
ENDBRANCH   2   3
ENDBRANCH   1   2
BRANCH   1  12
HETATM   12  N3  UNL     1      22.649   5.132  52.523  1.00  0.00    -0.420 N 
HETATM   13  H11 UNL     1      22.109   4.999  53.385  1.00  0.00     0.150 HD
HETATM   14  H12 UNL     1      22.623   6.060  52.087  1.00  0.00     0.150 HD
ENDBRANCH   1  12
BRANCH   1  15
HETATM   15  C9  UNL     1      23.879   3.809  50.972  1.00  0.00    -0.033 A 
HETATM   16  C10 UNL     1      24.211   4.170  49.688  1.00  0.00     0.009 A 
HETATM   17  C11 UNL     1      25.476   3.898  49.220  1.00  0.00     0.002 A 
HETATM   18  C12 UNL     1      26.457   3.264  49.994  1.00  0.00     0.021 A 
HETATM   19  C13 UNL     1      26.026   2.948  51.250  1.00  0.00     0.020 A 
HETATM   20  C19 UNL     1      24.778   3.169  51.838  1.00  0.00     0.030 A 
BRANCH  19  21
HETATM   21  C14 UNL     1      27.000   2.280  52.105  1.00  0.00    -0.037 C 
HETATM   22  C15 UNL     1      27.826   1.733  52.805  1.00  0.00     0.059 C 
BRANCH  22  23
HETATM   23  O2  UNL     1      28.771   1.125  53.584  1.00  0.00    -0.301 OA
BRANCH  23  24
HETATM   24  C16 UNL     1      28.432   0.062  54.477  1.00  0.00     0.214 C 
BRANCH  24  25
HETATM   25  C17 UNL     1      27.034   0.215  54.979  1.00  0.00     0.194 C 
BRANCH  25  26
HETATM   26  O3  UNL     1      26.272  -0.906  54.749  1.00  0.00    -0.394 OA
HETATM   27  C18 UNL     1      25.682  -0.972  53.511  1.00  0.00     0.201 C 
ENDBRANCH  25  26
ENDBRANCH  24  25
ENDBRANCH  23  24
ENDBRANCH  22  23
ENDBRANCH  19  21
ENDBRANCH   1  15
TORSDOF 10
ENDMDL
MODEL 8
REMARK VINA RESULT:      -6.5      4.665      9.463
REMARK  10 active torsions:
REMARK  status: ('A' for Active; 'I' for Inactive)
REMARK    1  A    between atoms: C6_8  and  O1_9 
REMARK    2  A    between atoms: O1_9  and  C7_10 
REMARK    3  A    between atoms: C7_10  and  C8_11 
REMARK    4  A    between atoms: C8_11  and  N3_12 
REMARK    5  A    between atoms: C8_11  and  C9_13 
REMARK    6  A    between atoms: C13_17  and  C14_18 
REMARK    7  A    between atoms: C15_19  and  O2_20 
REMARK    8  A    between atoms: O2_20  and  C16_21 
REMARK    9  A    between atoms: C16_21  and  C17_22 
REMARK   10  A    between atoms: C17_22  and  O3_23 
ROOT
HETATM    1  C8  UNL     1      24.689   0.801  52.450  1.00  0.00     0.131 C 
ENDROOT
BRANCH   1   2
HETATM    2  C7  UNL     1      24.766   2.275  52.785  1.00  0.00     0.198 C 
BRANCH   2   3
HETATM    3  O1  UNL     1      25.509   2.860  51.758  1.00  0.00    -0.371 OA
BRANCH   3   4
HETATM    4  C6  UNL     1      24.741   3.475  50.787  1.00  0.00     0.225 A 
HETATM    5  C3  UNL     1      25.626   4.437  50.089  1.00  0.00     0.115 A 
HETATM    6  C2  UNL     1      26.648   3.995  49.390  1.00  0.00     0.012 C 
HETATM    7  N1  UNL     1      25.075   5.566  50.406  1.00  0.00    -0.401 NA
HETATM    8  C1  UNL     1      27.599   4.847  48.653  1.00  0.00     0.039 C 
HETATM    9  C4  UNL     1      24.368   6.405  50.851  1.00  0.00     0.298 A 
HETATM   10  N2  UNL     1      23.484   5.503  51.538  1.00  0.00    -0.243 NA
HETATM   11  C5  UNL     1      23.674   4.227  51.491  1.00  0.00     0.131 A 
ENDBRANCH   3   4
ENDBRANCH   2   3
ENDBRANCH   1   2
BRANCH   1  12
HETATM   12  N3  UNL     1      25.947   0.176  52.705  1.00  0.00    -0.420 N 
HETATM   13  H11 UNL     1      25.899  -0.847  52.770  1.00  0.00     0.150 HD
HETATM   14  H12 UNL     1      26.524   0.668  53.395  1.00  0.00     0.150 HD
ENDBRANCH   1  12
BRANCH   1  15
HETATM   15  C9  UNL     1      23.627   0.092  53.236  1.00  0.00    -0.033 A 
HETATM   16  C10 UNL     1      23.865  -0.633  54.379  1.00  0.00     0.009 A 
HETATM   17  C11 UNL     1      22.811  -1.241  55.021  1.00  0.00     0.002 A 
HETATM   18  C12 UNL     1      21.489  -1.158  54.565  1.00  0.00     0.021 A 
HETATM   19  C13 UNL     1      21.361  -0.417  53.426  1.00  0.00     0.020 A 
HETATM   20  C19 UNL     1      22.346   0.244  52.686  1.00  0.00     0.030 A 
BRANCH  19  21
HETATM   21  C14 UNL     1      20.008  -0.298  52.895  1.00  0.00    -0.037 C 
HETATM   22  C15 UNL     1      18.877  -0.187  52.471  1.00  0.00     0.059 C 
BRANCH  22  23
HETATM   23  O2  UNL     1      17.597  -0.052  52.010  1.00  0.00    -0.301 OA
BRANCH  23  24
HETATM   24  C16 UNL     1      17.132   1.176  51.445  1.00  0.00     0.214 C 
BRANCH  24  25
HETATM   25  C17 UNL     1      17.382   1.211  49.972  1.00  0.00     0.194 C 
BRANCH  25  26
HETATM   26  O3  UNL     1      18.282   2.188  49.620  1.00  0.00    -0.394 OA
HETATM   27  C18 UNL     1      19.580   1.766  49.471  1.00  0.00     0.201 C 
ENDBRANCH  25  26
ENDBRANCH  24  25
ENDBRANCH  23  24
ENDBRANCH  22  23
ENDBRANCH  19  21
ENDBRANCH   1  15
TORSDOF 10
ENDMDL
MODEL 9
REMARK VINA RESULT:      -6.3      4.607      8.850
REMARK  10 active torsions:
REMARK  status: ('A' for Active; 'I' for Inactive)
REMARK    1  A    between atoms: C6_8  and  O1_9 
REMARK    2  A    between atoms: O1_9  and  C7_10 
REMARK    3  A    between atoms: C7_10  and  C8_11 
REMARK    4  A    between atoms: C8_11  and  N3_12 
REMARK    5  A    between atoms: C8_11  and  C9_13 
REMARK    6  A    between atoms: C13_17  and  C14_18 
REMARK    7  A    between atoms: C15_19  and  O2_20 
REMARK    8  A    between atoms: O2_20  and  C16_21 
REMARK    9  A    between atoms: C16_21  and  C17_22 
REMARK   10  A    between atoms: C17_22  and  O3_23 
ROOT
HETATM    1  C8  UNL     1      25.636   2.846  52.132  1.00  0.00     0.131 C 
ENDROOT
BRANCH   1   2
HETATM    2  C7  UNL     1      25.427   2.253  53.509  1.00  0.00     0.198 C 
BRANCH   2   3
HETATM    3  O1  UNL     1      26.690   1.856  53.949  1.00  0.00    -0.371 OA
BRANCH   3   4
HETATM    4  C6  UNL     1      26.722   0.590  54.504  1.00  0.00     0.225 A 
HETATM    5  C3  UNL     1      27.872  -0.115  53.891  1.00  0.00     0.115 A 
HETATM    6  C2  UNL     1      29.095   0.312  54.114  1.00  0.00     0.012 C 
HETATM    7  N1  UNL     1      27.272  -1.058  53.235  1.00  0.00    -0.401 NA
HETATM    8  C1  UNL     1      30.318  -0.301  53.565  1.00  0.00     0.039 C 
HETATM    9  C4  UNL     1      26.462  -1.781  52.762  1.00  0.00     0.298 A 
HETATM   10  N2  UNL     1      25.322  -1.126  53.343  1.00  0.00    -0.243 NA
HETATM   11  C5  UNL     1      25.469  -0.091  54.101  1.00  0.00     0.131 A 
ENDBRANCH   3   4
ENDBRANCH   2   3
ENDBRANCH   1   2
BRANCH   1  12
HETATM   12  N3  UNL     1      26.808   2.293  51.535  1.00  0.00    -0.420 N 
HETATM   13  H11 UNL     1      26.972   1.309  51.772  1.00  0.00     0.150 HD
HETATM   14  H12 UNL     1      27.617   2.923  51.545  1.00  0.00     0.150 HD
ENDBRANCH   1  12
BRANCH   1  15
HETATM   15  C9  UNL     1      24.468   2.606  51.224  1.00  0.00    -0.033 A 
HETATM   16  C10 UNL     1      24.391   3.059  49.928  1.00  0.00     0.009 A 
HETATM   17  C11 UNL     1      23.269   2.776  49.183  1.00  0.00     0.002 A 
HETATM   18  C12 UNL     1      22.186   2.039  49.682  1.00  0.00     0.021 A 
HETATM   19  C13 UNL     1      22.363   1.638  50.975  1.00  0.00     0.020 A 
HETATM   20  C19 UNL     1      23.446   1.860  51.829  1.00  0.00     0.030 A 
BRANCH  19  21
HETATM   21  C14 UNL     1      21.267   0.871  51.556  1.00  0.00    -0.037 C 
HETATM   22  C15 UNL     1      20.364   0.235  52.058  1.00  0.00     0.059 C 
BRANCH  22  23
HETATM   23  O2  UNL     1      19.355  -0.479  52.642  1.00  0.00    -0.301 OA
BRANCH  23  24
HETATM   24  C16 UNL     1      18.049  -0.536  52.064  1.00  0.00     0.214 C 
BRANCH  24  25
HETATM   25  C17 UNL     1      17.154  -1.427  52.862  1.00  0.00     0.194 C 
BRANCH  25  26
HETATM   26  O3  UNL     1      15.865  -1.433  52.385  1.00  0.00    -0.394 OA
HETATM   27  C18 UNL     1      15.278  -2.671  52.292  1.00  0.00     0.201 C 
ENDBRANCH  25  26
ENDBRANCH  24  25
ENDBRANCH  23  24
ENDBRANCH  22  23
ENDBRANCH  19  21
ENDBRANCH   1  15
TORSDOF 10
ENDMDL
