MODEL 1
REMARK VINA RESULT:      -7.3      0.000      0.000
REMARK  4 active torsions:
REMARK  status: ('A' for Active; 'I' for Inactive)
REMARK    1  A    between atoms: C2_2  and  C3_4 
REMARK    2  A    between atoms: C3_4  and  N1_6 
REMARK    3  A    between atoms: C5_9  and  C6_10 
REMARK    4  A    between atoms: N2_16  and  S2_17 
ROOT
HETATM    1  N1  UNL     1      23.676   5.130  50.896  1.00  0.00    -0.314 N 
HETATM    2  S1  UNL     1      22.940   4.858  52.608  1.00  0.00    -0.126 SA
HETATM    3  C4  UNL     1      23.867   3.151  52.524  1.00  0.00     0.069 A 
HETATM    4  C5  UNL     1      24.126   4.349  53.092  1.00  0.00     0.112 A 
HETATM    5  C6  UNL     1      23.804   4.048  51.795  1.00  0.00     0.104 A 
HETATM    6  C7  UNL     1      23.472   3.000  50.809  1.00  0.00     0.049 A 
HETATM    7  C8  UNL     1      23.278   1.685  50.632  1.00  0.00    -0.024 A 
HETATM    8  C9  UNL     1      23.603   2.054  51.883  1.00  0.00     0.014 A 
HETATM    9  C10 UNL     1      23.903   0.850  52.627  1.00  0.00     0.037 C 
HETATM   10  C11 UNL     1      25.358   0.721  51.953  1.00  0.00     0.136 C 
HETATM   11  N2  UNL     1      26.084   1.864  51.978  1.00  0.00    -0.309 N 
HETATM   12  C13 UNL     1      26.515   2.826  51.125  1.00  0.00     0.161 C 
HETATM   13  C14 UNL     1      26.063   3.085  49.710  1.00  0.00     0.188 C 
HETATM   14  O3  UNL     1      24.912   3.433  49.297  1.00  0.00    -0.388 OA
HETATM   15  C15 UNL     1      23.599   3.047  49.356  1.00  0.00     0.186 C 
ENDROOT
BRANCH   1  16
HETATM   16  C3  UNL     1      23.529   6.213  50.031  1.00  0.00     0.322 C 
HETATM   17  F1  UNL     1      22.975   5.649  48.840  1.00  0.00    -0.220 F 
BRANCH  16  18
HETATM   18  C2  UNL     1      24.899   6.613  49.606  1.00  0.00     0.056 C 
HETATM   19  C1  UNL     1      25.612   7.376  50.406  1.00  0.00     0.037 C 
HETATM   20 CL1  UNL     1      26.138   6.482  48.380  1.00  0.00    -0.085 Cl
ENDBRANCH  16  18
ENDBRANCH   1  16
BRANCH  11  21
HETATM   21  S2  UNL     1      27.299   1.693  53.223  1.00  0.00     0.224 S 
HETATM   22  C12 UNL     1      27.793  -0.037  53.235  1.00  0.00     0.186 C 
HETATM   23  O1  UNL     1      26.695   1.998  54.565  1.00  0.00    -0.206 OA
HETATM   24  O2  UNL     1      28.441   2.588  52.914  1.00  0.00    -0.206 OA
ENDBRANCH  11  21
TORSDOF 4
ENDMDL
MODEL 2
REMARK VINA RESULT:      -6.9      3.248      5.703
REMARK  4 active torsions:
REMARK  status: ('A' for Active; 'I' for Inactive)
REMARK    1  A    between atoms: C2_2  and  C3_4 
REMARK    2  A    between atoms: C3_4  and  N1_6 
REMARK    3  A    between atoms: C5_9  and  C6_10 
REMARK    4  A    between atoms: N2_16  and  S2_17 
ROOT
HETATM    1  N1  UNL     1      24.898   2.586  52.057  1.00  0.00    -0.314 N 
HETATM    2  S1  UNL     1      26.015   3.000  50.598  1.00  0.00    -0.126 SA
HETATM    3  C4  UNL     1      24.395   3.740  49.817  1.00  0.00     0.069 A 
HETATM    4  C5  UNL     1      25.462   4.255  50.467  1.00  0.00     0.112 A 
HETATM    5  C6  UNL     1      24.619   3.241  50.837  1.00  0.00     0.104 A 
HETATM    6  C7  UNL     1      23.441   2.418  50.497  1.00  0.00     0.049 A 
HETATM    7  C8  UNL     1      22.496   2.188  49.573  1.00  0.00    -0.024 A 
HETATM    8  C9  UNL     1      23.359   3.176  49.277  1.00  0.00     0.014 A 
HETATM    9  C10 UNL     1      22.834   3.882  48.129  1.00  0.00     0.037 C 
HETATM   10  C11 UNL     1      21.755   4.669  49.028  1.00  0.00     0.136 C 
HETATM   11  N2  UNL     1      22.274   5.245  50.139  1.00  0.00    -0.309 N 
HETATM   12  C13 UNL     1      22.268   5.072  51.483  1.00  0.00     0.161 C 
HETATM   13  C14 UNL     1      21.800   3.871  52.265  1.00  0.00     0.188 C 
HETATM   14  O3  UNL     1      22.268   2.688  52.256  1.00  0.00    -0.388 OA
HETATM   15  C15 UNL     1      22.567   1.669  51.393  1.00  0.00     0.186 C 
ENDROOT
BRANCH   1  16
HETATM   16  C3  UNL     1      25.204   1.935  53.251  1.00  0.00     0.322 C 
HETATM   17  F1  UNL     1      26.422   2.542  53.689  1.00  0.00    -0.220 F 
BRANCH  16  18
HETATM   18  C2  UNL     1      25.628   0.554  52.891  1.00  0.00     0.056 C 
HETATM   19  C1  UNL     1      24.928  -0.462  53.349  1.00  0.00     0.037 C 
HETATM   20 CL1  UNL     1      26.764  -0.434  52.004  1.00  0.00    -0.085 Cl
ENDBRANCH  16  18
ENDBRANCH   1  16
BRANCH  11  21
HETATM   21  S2  UNL     1      22.393   6.962  49.837  1.00  0.00     0.224 S 
HETATM   22  C12 UNL     1      23.780   7.567  50.811  1.00  0.00     0.186 C 
HETATM   23  O1  UNL     1      21.156   7.652  50.339  1.00  0.00    -0.206 OA
HETATM   24  O2  UNL     1      22.601   7.188  48.386  1.00  0.00    -0.206 OA
ENDBRANCH  11  21
TORSDOF 4
ENDMDL
MODEL 3
REMARK VINA RESULT:      -6.8      4.135      6.364
REMARK  4 active torsions:
REMARK  status: ('A' for Active; 'I' for Inactive)
REMARK    1  A    between atoms: C2_2  and  C3_4 
REMARK    2  A    between atoms: C3_4  and  N1_6 
REMARK    3  A    between atoms: C5_9  and  C6_10 
REMARK    4  A    between atoms: N2_16  and  S2_17 
ROOT
HETATM    1  N1  UNL     1      21.596   0.743  53.114  1.00  0.00    -0.314 N 
HETATM    2  S1  UNL     1      23.434   0.594  52.730  1.00  0.00    -0.126 SA
HETATM    3  C4  UNL     1      23.043   1.869  51.315  1.00  0.00     0.069 A 
HETATM    4  C5  UNL     1      23.559   1.956  52.560  1.00  0.00     0.112 A 
HETATM    5  C6  UNL     1      22.390   1.382  52.137  1.00  0.00     0.104 A 
HETATM    6  C7  UNL     1      21.496   1.076  51.001  1.00  0.00     0.049 A 
HETATM    7  C8  UNL     1      21.335   1.186  49.675  1.00  0.00    -0.024 A 
HETATM    8  C9  UNL     1      22.462   1.732  50.162  1.00  0.00     0.014 A 
HETATM    9  C10 UNL     1      23.056   2.520  49.105  1.00  0.00     0.037 C 
HETATM   10  C11 UNL     1      22.007   3.721  49.327  1.00  0.00     0.136 C 
HETATM   11  N2  UNL     1      21.872   4.108  50.617  1.00  0.00    -0.309 N 
HETATM   12  C13 UNL     1      20.966   4.030  51.623  1.00  0.00     0.161 C 
HETATM   13  C14 UNL     1      19.737   3.160  51.704  1.00  0.00     0.188 C 
HETATM   14  O3  UNL     1      19.666   1.890  51.729  1.00  0.00    -0.388 OA
HETATM   15  C15 UNL     1      20.067   0.788  51.023  1.00  0.00     0.186 C 
ENDROOT
BRANCH   1  16
HETATM   16  C3  UNL     1      20.840   0.094  54.089  1.00  0.00     0.322 C 
HETATM   17  F1  UNL     1      20.762   1.031  55.166  1.00  0.00    -0.220 F 
BRANCH  16  18
HETATM   18  C2  UNL     1      21.696  -0.990  54.647  1.00  0.00     0.056 C 
HETATM   19  C1  UNL     1      21.432  -2.236  54.319  1.00  0.00     0.037 C 
HETATM   20 CL1  UNL     1      23.075  -1.385  55.644  1.00  0.00    -0.085 Cl
ENDBRANCH  16  18
ENDBRANCH   1  16
BRANCH  11  21
HETATM   21  S2  UNL     1      22.733   5.616  50.811  1.00  0.00     0.224 S 
HETATM   22  C12 UNL     1      21.492   6.916  50.906  1.00  0.00     0.186 C 
HETATM   23  O1  UNL     1      23.570   5.882  49.591  1.00  0.00    -0.206 OA
HETATM   24  O2  UNL     1      23.557   5.552  52.043  1.00  0.00    -0.206 OA
ENDBRANCH  11  21
TORSDOF 4
ENDMDL
MODEL 4
REMARK VINA RESULT:      -6.7      3.473      5.259
REMARK  4 active torsions:
REMARK  status: ('A' for Active; 'I' for Inactive)
REMARK    1  A    between atoms: C2_2  and  C3_4 
REMARK    2  A    between atoms: C3_4  and  N1_6 
REMARK    3  A    between atoms: C5_9  and  C6_10 
REMARK    4  A    between atoms: N2_16  and  S2_17 
ROOT
HETATM    1  N1  UNL     1      23.443   4.074  49.516  1.00  0.00    -0.314 N 
HETATM    2  S1  UNL     1      22.933   2.819  48.207  1.00  0.00    -0.126 SA
HETATM    3  C4  UNL     1      21.842   2.068  49.631  1.00  0.00     0.069 A 
HETATM    4  C5  UNL     1      21.609   2.890  48.585  1.00  0.00     0.112 A 
HETATM    5  C6  UNL     1      22.545   2.986  49.580  1.00  0.00     0.104 A 
HETATM    6  C7  UNL     1      23.117   2.397  50.807  1.00  0.00     0.049 A 
HETATM    7  C8  UNL     1      23.041   1.372  51.669  1.00  0.00    -0.024 A 
HETATM    8  C9  UNL     1      22.147   1.346  50.665  1.00  0.00     0.014 A 
HETATM    9  C10 UNL     1      21.177   0.319  50.974  1.00  0.00     0.037 C 
HETATM   10  C11 UNL     1      20.423   1.262  52.038  1.00  0.00     0.136 C 
HETATM   11  N2  UNL     1      20.137   2.502  51.574  1.00  0.00    -0.309 N 
HETATM   12  C13 UNL     1      20.549   3.783  51.744  1.00  0.00     0.161 C 
HETATM   13  C14 UNL     1      21.795   4.275  52.436  1.00  0.00     0.188 C 
HETATM   14  O3  UNL     1      23.010   4.074  52.119  1.00  0.00    -0.388 OA
HETATM   15  C15 UNL     1      23.887   3.056  51.857  1.00  0.00     0.186 C 
ENDROOT
BRANCH   1  16
HETATM   16  C3  UNL     1      24.337   5.139  49.420  1.00  0.00     0.322 C 
HETATM   17  F1  UNL     1      24.097   5.695  48.125  1.00  0.00    -0.220 F 
BRANCH  16  18
HETATM   18  C2  UNL     1      25.697   4.549  49.286  1.00  0.00     0.056 C 
HETATM   19  C1  UNL     1      26.679   5.312  48.859  1.00  0.00     0.037 C 
HETATM   20 CL1  UNL     1      26.692   3.127  49.493  1.00  0.00    -0.085 Cl
ENDBRANCH  16  18
ENDBRANCH   1  16
BRANCH  11  21
HETATM   21  S2  UNL     1      18.428   2.551  51.213  1.00  0.00     0.224 S 
HETATM   22  C12 UNL     1      17.757   0.940  51.648  1.00  0.00     0.186 C 
HETATM   23  O1  UNL     1      18.228   2.739  49.735  1.00  0.00    -0.206 OA
HETATM   24  O2  UNL     1      17.796   3.640  51.998  1.00  0.00    -0.206 OA
ENDBRANCH  11  21
TORSDOF 4
ENDMDL
MODEL 5
REMARK VINA RESULT:      -6.6      3.440      5.598
REMARK  4 active torsions:
REMARK  status: ('A' for Active; 'I' for Inactive)
REMARK    1  A    between atoms: C2_2  and  C3_4 
REMARK    2  A    between atoms: C3_4  and  N1_6 
REMARK    3  A    between atoms: C5_9  and  C6_10 
REMARK    4  A    between atoms: N2_16  and  S2_17 
ROOT
HETATM    1  N1  UNL     1      25.167   1.315  51.907  1.00  0.00    -0.314 N 
HETATM    2  S1  UNL     1      23.883   0.648  53.113  1.00  0.00    -0.126 SA
HETATM    3  C4  UNL     1      22.700   1.936  52.263  1.00  0.00     0.069 A 
HETATM    4  C5  UNL     1      22.913   0.608  52.135  1.00  0.00     0.112 A 
HETATM    5  C6  UNL     1      23.805   1.646  52.082  1.00  0.00     0.104 A 
HETATM    6  C7  UNL     1      24.019   3.105  52.155  1.00  0.00     0.049 A 
HETATM    7  C8  UNL     1      23.420   4.292  52.337  1.00  0.00    -0.024 A 
HETATM    8  C9  UNL     1      22.602   3.225  52.372  1.00  0.00     0.014 A 
HETATM    9  C10 UNL     1      21.243   3.719  52.343  1.00  0.00     0.037 C 
HETATM   10  C11 UNL     1      21.315   4.005  50.760  1.00  0.00     0.136 C 
HETATM   11  N2  UNL     1      21.793   2.969  50.031  1.00  0.00    -0.309 N 
HETATM   12  C13 UNL     1      22.908   2.628  49.338  1.00  0.00     0.161 C 
HETATM   13  C14 UNL     1      24.257   3.303  49.356  1.00  0.00     0.188 C 
HETATM   14  O3  UNL     1      25.068   3.427  50.327  1.00  0.00    -0.388 OA
HETATM   15  C15 UNL     1      25.124   3.889  51.615  1.00  0.00     0.186 C 
ENDROOT
BRANCH   1  16
HETATM   16  C3  UNL     1      26.509   0.967  51.760  1.00  0.00     0.322 C 
HETATM   17  F1  UNL     1      26.494  -0.450  51.573  1.00  0.00    -0.220 F 
BRANCH  16  18
HETATM   18  C2  UNL     1      27.143   1.123  53.098  1.00  0.00     0.056 C 
HETATM   19  C1  UNL     1      27.914   2.166  53.315  1.00  0.00     0.037 C 
HETATM   20 CL1  UNL     1      27.318   0.469  54.709  1.00  0.00    -0.085 Cl
ENDBRANCH  16  18
ENDBRANCH   1  16
BRANCH  11  21
HETATM   21  S2  UNL     1      20.436   2.213  49.232  1.00  0.00     0.224 S 
HETATM   22  C12 UNL     1      19.033   3.323  49.424  1.00  0.00     0.186 C 
HETATM   23  O1  UNL     1      20.090   0.926  49.928  1.00  0.00    -0.206 OA
HETATM   24  O2  UNL     1      20.772   1.995  47.803  1.00  0.00    -0.206 OA
ENDBRANCH  11  21
TORSDOF 4
ENDMDL
MODEL 6
REMARK VINA RESULT:      -6.4      7.804      9.809
REMARK  4 active torsions:
REMARK  status: ('A' for Active; 'I' for Inactive)
REMARK    1  A    between atoms: C2_2  and  C3_4 
REMARK    2  A    between atoms: C3_4  and  N1_6 
REMARK    3  A    between atoms: C5_9  and  C6_10 
REMARK    4  A    between atoms: N2_16  and  S2_17 
ROOT
HETATM    1  N1  UNL     1      32.625   6.892  46.621  1.00  0.00    -0.314 N 
HETATM    2  S1  UNL     1      31.613   7.311  45.089  1.00  0.00    -0.126 SA
HETATM    3  C4  UNL     1      30.263   7.870  46.371  1.00  0.00     0.069 A 
HETATM    4  C5  UNL     1      31.195   8.507  45.631  1.00  0.00     0.112 A 
HETATM    5  C6  UNL     1      31.335   7.451  46.491  1.00  0.00     0.104 A 
HETATM    6  C7  UNL     1      30.678   6.516  47.427  1.00  0.00     0.049 A 
HETATM    7  C8  UNL     1      29.507   6.156  47.973  1.00  0.00    -0.024 A 
HETATM    8  C9  UNL     1      29.447   7.193  47.119  1.00  0.00     0.014 A 
HETATM    9  C10 UNL     1      28.134   7.786  47.248  1.00  0.00     0.037 C 
HETATM   10  C11 UNL     1      28.537   8.532  48.616  1.00  0.00     0.136 C 
HETATM   11  N2  UNL     1      29.706   9.212  48.552  1.00  0.00    -0.309 N 
HETATM   12  C13 UNL     1      30.976   9.117  49.019  1.00  0.00     0.161 C 
HETATM   13  C14 UNL     1      31.645   7.929  49.662  1.00  0.00     0.188 C 
HETATM   14  O3  UNL     1      31.895   6.790  49.154  1.00  0.00    -0.388 OA
HETATM   15  C15 UNL     1      31.275   5.751  48.515  1.00  0.00     0.186 C 
ENDROOT
BRANCH   1  16
HETATM   16  C3  UNL     1      33.901   6.339  46.715  1.00  0.00     0.322 C 
HETATM   17  F1  UNL     1      33.707   5.105  47.410  1.00  0.00    -0.220 F 
BRANCH  16  18
HETATM   18  C2  UNL     1      34.656   7.163  47.699  1.00  0.00     0.056 C 
HETATM   19  C1  UNL     1      35.380   6.553  48.612  1.00  0.00     0.037 C 
HETATM   20 CL1  UNL     1      35.076   8.775  48.227  1.00  0.00    -0.085 Cl
ENDBRANCH  16  18
ENDBRANCH   1  16
BRANCH  11  21
HETATM   21  S2  UNL     1      29.324  10.913  48.432  1.00  0.00     0.224 S 
HETATM   22  C12 UNL     1      30.709  11.811  49.147  1.00  0.00     0.186 C 
HETATM   23  O1  UNL     1      28.110  11.220  49.265  1.00  0.00    -0.206 OA
HETATM   24  O2  UNL     1      29.119  11.266  47.006  1.00  0.00    -0.206 OA
ENDBRANCH  11  21
TORSDOF 4
ENDMDL
MODEL 7
REMARK VINA RESULT:      -6.4      7.717      9.730
REMARK  4 active torsions:
REMARK  status: ('A' for Active; 'I' for Inactive)
REMARK    1  A    between atoms: C2_2  and  C3_4 
REMARK    2  A    between atoms: C3_4  and  N1_6 
REMARK    3  A    between atoms: C5_9  and  C6_10 
REMARK    4  A    between atoms: N2_16  and  S2_17 
ROOT
HETATM    1  N1  UNL     1      32.400   6.984  46.619  1.00  0.00    -0.314 N 
HETATM    2  S1  UNL     1      31.278   7.350  45.151  1.00  0.00    -0.126 SA
HETATM    3  C4  UNL     1      30.016   7.937  46.509  1.00  0.00     0.069 A 
HETATM    4  C5  UNL     1      30.888   8.559  45.687  1.00  0.00     0.112 A 
HETATM    5  C6  UNL     1      31.098   7.529  46.565  1.00  0.00     0.104 A 
HETATM    6  C7  UNL     1      30.517   6.617  47.571  1.00  0.00     0.049 A 
HETATM    7  C8  UNL     1      29.391   6.265  48.209  1.00  0.00    -0.024 A 
HETATM    8  C9  UNL     1      29.261   7.276  47.333  1.00  0.00     0.014 A 
HETATM    9  C10 UNL     1      27.956   7.863  47.537  1.00  0.00     0.037 C 
HETATM   10  C11 UNL     1      28.448   8.652  48.851  1.00  0.00     0.136 C 
HETATM   11  N2  UNL     1      29.603   9.338  48.686  1.00  0.00    -0.309 N 
HETATM   12  C13 UNL     1      30.903   9.266  49.064  1.00  0.00     0.161 C 
HETATM   13  C14 UNL     1      31.627   8.101  49.691  1.00  0.00     0.188 C 
HETATM   14  O3  UNL     1      31.851   6.950  49.200  1.00  0.00    -0.388 OA
HETATM   15  C15 UNL     1      31.198   5.888  48.636  1.00  0.00     0.186 C 
ENDROOT
BRANCH   1  16
HETATM   16  C3  UNL     1      33.684   6.442  46.638  1.00  0.00     0.322 C 
HETATM   17  F1  UNL     1      34.342   7.037  45.518  1.00  0.00    -0.220 F 
BRANCH  16  18
HETATM   18  C2  UNL     1      33.555   5.015  46.233  1.00  0.00     0.056 C 
HETATM   19  C1  UNL     1      34.645   4.337  45.949  1.00  0.00     0.037 C 
HETATM   20 CL1  UNL     1      32.468   3.674  45.959  1.00  0.00    -0.085 Cl
ENDBRANCH  16  18
ENDBRANCH   1  16
BRANCH  11  21
HETATM   21  S2  UNL     1      29.198  11.032  48.545  1.00  0.00     0.224 S 
HETATM   22  C12 UNL     1      30.542  11.955  49.304  1.00  0.00     0.186 C 
HETATM   23  O1  UNL     1      27.951  11.322  49.333  1.00  0.00    -0.206 OA
HETATM   24  O2  UNL     1      29.037  11.376  47.110  1.00  0.00    -0.206 OA
ENDBRANCH  11  21
TORSDOF 4
ENDMDL
MODEL 8
REMARK VINA RESULT:      -6.2      2.944      4.594
REMARK  4 active torsions:
REMARK  status: ('A' for Active; 'I' for Inactive)
REMARK    1  A    between atoms: C2_2  and  C3_4 
REMARK    2  A    between atoms: C3_4  and  N1_6 
REMARK    3  A    between atoms: C5_9  and  C6_10 
REMARK    4  A    between atoms: N2_16  and  S2_17 
ROOT
HETATM    1  N1  UNL     1      24.683   5.182  50.388  1.00  0.00    -0.314 N 
HETATM    2  S1  UNL     1      25.586   3.640  49.791  1.00  0.00    -0.126 SA
HETATM    3  C4  UNL     1      23.998   2.706  50.413  1.00  0.00     0.069 A 
HETATM    4  C5  UNL     1      24.442   3.134  49.212  1.00  0.00     0.112 A 
HETATM    5  C6  UNL     1      24.291   3.825  50.384  1.00  0.00     0.104 A 
HETATM    6  C7  UNL     1      23.882   3.789  51.803  1.00  0.00     0.049 A 
HETATM    7  C8  UNL     1      23.418   3.008  52.789  1.00  0.00    -0.024 A 
HETATM    8  C9  UNL     1      23.587   2.396  51.604  1.00  0.00     0.014 A 
HETATM    9  C10 UNL     1      22.956   1.098  51.692  1.00  0.00     0.037 C 
HETATM   10  C11 UNL     1      21.487   1.730  51.509  1.00  0.00     0.136 C 
HETATM   11  N2  UNL     1      21.380   2.590  50.468  1.00  0.00    -0.309 N 
HETATM   12  C13 UNL     1      21.246   3.921  50.246  1.00  0.00     0.161 C 
HETATM   13  C14 UNL     1      21.432   5.052  51.226  1.00  0.00     0.188 C 
HETATM   14  O3  UNL     1      22.490   5.403  51.838  1.00  0.00    -0.388 OA
HETATM   15  C15 UNL     1      23.464   4.896  52.656  1.00  0.00     0.186 C 
ENDROOT
BRANCH   1  16
HETATM   16  C3  UNL     1      25.101   6.511  50.378  1.00  0.00     0.322 C 
HETATM   17  F1  UNL     1      23.910   7.260  50.120  1.00  0.00    -0.220 F 
BRANCH  16  18
HETATM   18  C2  UNL     1      25.895   6.704  49.133  1.00  0.00     0.056 C 
HETATM   19  C1  UNL     1      25.290   7.165  48.061  1.00  0.00     0.037 C 
HETATM   20 CL1  UNL     1      27.470   6.599  48.383  1.00  0.00    -0.085 Cl
ENDBRANCH  16  18
ENDBRANCH   1  16
BRANCH  11  21
HETATM   21  S2  UNL     1      20.536   1.762  49.182  1.00  0.00     0.224 S 
HETATM   22  C12 UNL     1      19.855   3.031  48.104  1.00  0.00     0.186 C 
HETATM   23  O1  UNL     1      19.381   0.987  49.750  1.00  0.00    -0.206 OA
HETATM   24  O2  UNL     1      21.490   0.883  48.461  1.00  0.00    -0.206 OA
ENDBRANCH  11  21
TORSDOF 4
ENDMDL
MODEL 9
REMARK VINA RESULT:      -6.2      3.893      5.866
REMARK  4 active torsions:
REMARK  status: ('A' for Active; 'I' for Inactive)
REMARK    1  A    between atoms: C2_2  and  C3_4 
REMARK    2  A    between atoms: C3_4  and  N1_6 
REMARK    3  A    between atoms: C5_9  and  C6_10 
REMARK    4  A    between atoms: N2_16  and  S2_17 
ROOT
HETATM    1  N1  UNL     1      22.098   2.479  51.922  1.00  0.00    -0.314 N 
HETATM    2  S1  UNL     1      23.709   3.017  52.736  1.00  0.00    -0.126 SA
HETATM    3  C4  UNL     1      23.918   4.119  51.148  1.00  0.00     0.069 A 
HETATM    4  C5  UNL     1      23.490   4.338  52.410  1.00  0.00     0.112 A 
HETATM    5  C6  UNL     1      23.084   3.398  51.501  1.00  0.00     0.104 A 
HETATM    6  C7  UNL     1      23.238   2.834  50.144  1.00  0.00     0.049 A 
HETATM    7  C8  UNL     1      23.913   2.929  48.989  1.00  0.00    -0.024 A 
HETATM    8  C9  UNL     1      24.257   3.825  49.930  1.00  0.00     0.014 A 
HETATM    9  C10 UNL     1      25.103   4.814  49.298  1.00  0.00     0.037 C 
HETATM   10  C11 UNL     1      23.842   5.547  48.616  1.00  0.00     0.136 C 
HETATM   11  N2  UNL     1      22.825   5.810  49.470  1.00  0.00    -0.309 N 
HETATM   12  C13 UNL     1      21.570   5.373  49.737  1.00  0.00     0.161 C 
HETATM   13  C14 UNL     1      20.897   4.116  49.245  1.00  0.00     0.188 C 
HETATM   14  O3  UNL     1      21.216   2.906  49.472  1.00  0.00    -0.388 OA
HETATM   15  C15 UNL     1      22.280   2.050  49.374  1.00  0.00     0.186 C 
ENDROOT
BRANCH   1  16
HETATM   16  C3  UNL     1      21.144   1.565  52.366  1.00  0.00     0.322 C 
HETATM   17  F1  UNL     1      20.417   2.267  53.377  1.00  0.00    -0.220 F 
BRANCH  16  18
HETATM   18  C2  UNL     1      21.874   0.522  53.138  1.00  0.00     0.056 C 
HETATM   19  C1  UNL     1      21.378   0.126  54.290  1.00  0.00     0.037 C 
HETATM   20 CL1  UNL     1      23.249  -0.555  53.187  1.00  0.00    -0.085 Cl
ENDBRANCH  16  18
ENDBRANCH   1  16
BRANCH  11  21
HETATM   21  S2  UNL     1      22.867   7.519  49.833  1.00  0.00     0.224 S 
HETATM   22  C12 UNL     1      21.159   8.056  50.011  1.00  0.00     0.186 C 
HETATM   23  O1  UNL     1      23.457   8.269  48.672  1.00  0.00    -0.206 OA
HETATM   24  O2  UNL     1      23.643   7.732  51.080  1.00  0.00    -0.206 OA
ENDBRANCH  11  21
TORSDOF 4
ENDMDL
