MODEL 1
REMARK VINA RESULT:      -8.3      0.000      0.000
REMARK  6 active torsions:
REMARK  status: ('A' for Active; 'I' for Inactive)
REMARK    1  A    between atoms: O1_2  and  C2_3 
REMARK    2  A    between atoms: C6_7  and  C7_8 
REMARK    3  A    between atoms: C14_18  and  C15_19 
REMARK    4  A    between atoms: C15_19  and  C16_20 
REMARK    5  A    between atoms: C16_20  and  C17_21 
REMARK    6  A    between atoms: C17_21  and  N2_22 
ROOT
HETATM    1  C2  UNL     1      21.297   2.351  52.296  1.00  0.00     0.076 C 
HETATM    2  C3  UNL     1      21.325   1.164  53.008  1.00  0.00     0.039 C 
HETATM    3  C4  UNL     1      21.813   0.279  51.798  1.00  0.00     0.095 C 
HETATM    4  C5  UNL     1      23.055   0.929  52.448  1.00  0.00    -0.055 C 
HETATM    5  C6  UNL     1      23.573   0.127  53.351  1.00  0.00    -0.027 C 
HETATM    6  C13 UNL     1      22.512  -0.631  54.133  1.00  0.00     0.159 C 
HETATM    7  N1  UNL     1      21.309   0.279  54.171  1.00  0.00    -0.387 N 
HETATM    8  C14 UNL     1      22.756   2.148  51.648  1.00  0.00     0.074 C 
HETATM    9  H11 UNL     1      20.418   0.623  54.670  1.00  0.00     0.159 HD
ENDROOT
BRANCH   8  10
HETATM   10  C15 UNL     1      22.834   2.187  50.250  1.00  0.00     0.018 C 
BRANCH  10  11
HETATM   11  C16 UNL     1      23.980   3.058  49.746  1.00  0.00     0.031 C 
BRANCH  11  12
HETATM   12  C17 UNL     1      24.335   4.170  50.700  1.00  0.00     0.272 C 
BRANCH  12  13
HETATM   13  N2  UNL     1      25.589   4.826  50.356  1.00  0.00     0.092 N 
HETATM   14  C18 UNL     1      25.295   6.087  49.692  1.00  0.00     0.298 C 
HETATM   15  C19 UNL     1      26.505   6.771  49.139  1.00  0.00     0.198 C 
HETATM   16  O2  UNL     1      27.060   5.944  48.171  1.00  0.00    -0.388 OA
HETATM   17  C20 UNL     1      27.487   4.769  48.794  1.00  0.00     0.198 C 
HETATM   18  C21 UNL     1      26.340   4.016  49.425  1.00  0.00     0.298 C 
ENDBRANCH  12  13
ENDBRANCH  11  12
ENDBRANCH  10  11
ENDBRANCH   8  10
BRANCH   1  19
HETATM   19  O1  UNL     1      19.996   2.851  52.683  1.00  0.00    -0.358 OA
HETATM   20  C1  UNL     1      19.210   3.458  51.684  1.00  0.00     0.209 C 
ENDBRANCH   1  19
BRANCH   5  21
HETATM   21  C7  UNL     1      25.019   0.256  53.354  1.00  0.00    -0.026 A 
HETATM   22  C8  UNL     1      25.776   1.365  53.586  1.00  0.00     0.015 A 
HETATM   23  C9  UNL     1      27.134   1.185  53.529  1.00  0.00     0.045 A 
HETATM   24  C10 UNL     1      27.779  -0.002  53.262  1.00  0.00     0.138 A 
HETATM   25  F1  UNL     1      29.135  -0.074  53.228  1.00  0.00    -0.204 F 
HETATM   26  C11 UNL     1      26.990  -1.105  53.032  1.00  0.00     0.073 A 
HETATM   27 CL1  UNL     1      27.823  -2.603  52.697  1.00  0.00    -0.081 Cl
HETATM   28  C12 UNL     1      25.600  -0.976  53.079  1.00  0.00     0.039 A 
ENDBRANCH   5  21
TORSDOF 6
ENDMDL
MODEL 2
REMARK VINA RESULT:      -8.2      3.490      5.078
REMARK  6 active torsions:
REMARK  status: ('A' for Active; 'I' for Inactive)
REMARK    1  A    between atoms: O1_2  and  C2_3 
REMARK    2  A    between atoms: C6_7  and  C7_8 
REMARK    3  A    between atoms: C14_18  and  C15_19 
REMARK    4  A    between atoms: C15_19  and  C16_20 
REMARK    5  A    between atoms: C16_20  and  C17_21 
REMARK    6  A    between atoms: C17_21  and  N2_22 
ROOT
HETATM    1  C2  UNL     1      25.810   2.542  51.570  1.00  0.00     0.076 C 
HETATM    2  C3  UNL     1      26.262   1.326  52.055  1.00  0.00     0.039 C 
HETATM    3  C4  UNL     1      26.067   1.693  53.575  1.00  0.00     0.095 C 
HETATM    4  C5  UNL     1      24.711   1.195  53.024  1.00  0.00    -0.055 C 
HETATM    5  C6  UNL     1      24.577  -0.095  53.233  1.00  0.00    -0.027 C 
HETATM    6  C13 UNL     1      25.885  -0.851  53.063  1.00  0.00     0.159 C 
HETATM    7  N1  UNL     1      26.669  -0.078  52.031  1.00  0.00    -0.387 N 
HETATM    8  C14 UNL     1      24.495   2.570  52.496  1.00  0.00     0.074 C 
HETATM    9  H11 UNL     1      27.397  -0.059  51.236  1.00  0.00     0.159 HD
ENDROOT
BRANCH   8  10
HETATM   10  C15 UNL     1      24.328   3.692  53.319  1.00  0.00     0.018 C 
BRANCH  10  11
HETATM   11  C16 UNL     1      23.363   4.716  52.734  1.00  0.00     0.031 C 
BRANCH  11  12
HETATM   12  C17 UNL     1      22.309   4.094  51.853  1.00  0.00     0.272 C 
BRANCH  12  13
HETATM   13  N2  UNL     1      22.211   4.741  50.551  1.00  0.00     0.092 N 
HETATM   14  C18 UNL     1      22.644   3.803  49.526  1.00  0.00     0.298 C 
HETATM   15  C19 UNL     1      22.749   4.410  48.163  1.00  0.00     0.198 C 
HETATM   16  O2  UNL     1      23.718   5.405  48.211  1.00  0.00    -0.388 OA
HETATM   17  C20 UNL     1      23.276   6.402  49.084  1.00  0.00     0.198 C 
HETATM   18  C21 UNL     1      23.096   5.881  50.490  1.00  0.00     0.298 C 
ENDBRANCH  12  13
ENDBRANCH  11  12
ENDBRANCH  10  11
ENDBRANCH   8  10
BRANCH   1  19
HETATM   19  O1  UNL     1      26.855   2.841  50.616  1.00  0.00    -0.358 OA
HETATM   20  C1  UNL     1      26.586   3.825  49.645  1.00  0.00     0.209 C 
ENDBRANCH   1  19
BRANCH   5  21
HETATM   21  C7  UNL     1      23.188  -0.407  53.517  1.00  0.00    -0.026 A 
HETATM   22  C8  UNL     1      22.657  -1.022  54.612  1.00  0.00     0.015 A 
HETATM   23  C9  UNL     1      21.296  -1.179  54.609  1.00  0.00     0.045 A 
HETATM   24  C10 UNL     1      20.440  -0.773  53.610  1.00  0.00     0.138 A 
HETATM   25  F1  UNL     1      19.100  -0.977  53.704  1.00  0.00    -0.204 F 
HETATM   26  C11 UNL     1      21.003  -0.154  52.516  1.00  0.00     0.073 A 
HETATM   27 CL1  UNL     1      19.903   0.356  51.259  1.00  0.00    -0.081 Cl
HETATM   28  C12 UNL     1      22.386   0.030  52.470  1.00  0.00     0.039 A 
ENDBRANCH   5  21
TORSDOF 6
ENDMDL
MODEL 3
REMARK VINA RESULT:      -8.1      3.697      7.272
REMARK  6 active torsions:
REMARK  status: ('A' for Active; 'I' for Inactive)
REMARK    1  A    between atoms: O1_2  and  C2_3 
REMARK    2  A    between atoms: C6_7  and  C7_8 
REMARK    3  A    between atoms: C14_18  and  C15_19 
REMARK    4  A    between atoms: C15_19  and  C16_20 
REMARK    5  A    between atoms: C16_20  and  C17_21 
REMARK    6  A    between atoms: C17_21  and  N2_22 
ROOT
HETATM    1  C2  UNL     1      26.192   0.982  54.136  1.00  0.00     0.076 C 
HETATM    2  C3  UNL     1      26.709   1.606  53.014  1.00  0.00     0.039 C 
HETATM    3  C4  UNL     1      26.137   0.558  51.986  1.00  0.00     0.095 C 
HETATM    4  C5  UNL     1      25.025   1.586  52.290  1.00  0.00    -0.055 C 
HETATM    5  C6  UNL     1      25.047   2.561  51.409  1.00  0.00    -0.027 C 
HETATM    6  C13 UNL     1      26.461   2.945  51.002  1.00  0.00     0.159 C 
HETATM    7  N1  UNL     1      27.321   2.663  52.210  1.00  0.00    -0.387 N 
HETATM    8  C14 UNL     1      24.720   0.797  53.516  1.00  0.00     0.074 C 
HETATM    9  H11 UNL     1      28.191   2.886  52.805  1.00  0.00     0.159 HD
ENDROOT
BRANCH   8  10
HETATM   10  C15 UNL     1      24.210  -0.508  53.481  1.00  0.00     0.018 C 
BRANCH  10  11
HETATM   11  C16 UNL     1      22.724  -0.553  53.149  1.00  0.00     0.031 C 
BRANCH  11  12
HETATM   12  C17 UNL     1      21.853  -0.079  54.285  1.00  0.00     0.272 C 
BRANCH  12  13
HETATM   13  N2  UNL     1      20.477   0.166  53.874  1.00  0.00     0.092 N 
HETATM   14  C18 UNL     1      19.800  -1.111  53.707  1.00  0.00     0.298 C 
HETATM   15  C19 UNL     1      18.428  -0.992  53.121  1.00  0.00     0.198 C 
HETATM   16  O2  UNL     1      18.552  -0.450  51.848  1.00  0.00    -0.388 OA
HETATM   17  C20 UNL     1      19.072   0.841  51.972  1.00  0.00     0.198 C 
HETATM   18  C21 UNL     1      20.448   0.837  52.595  1.00  0.00     0.298 C 
ENDBRANCH  12  13
ENDBRANCH  11  12
ENDBRANCH  10  11
ENDBRANCH   8  10
BRANCH   1  19
HETATM   19  O1  UNL     1      27.360   0.982  54.989  1.00  0.00    -0.358 OA
HETATM   20  C1  UNL     1      28.401   0.089  54.666  1.00  0.00     0.209 C 
ENDBRANCH   1  19
BRANCH   5  21
HETATM   21  C7  UNL     1      23.694   3.008  51.134  1.00  0.00    -0.026 A 
HETATM   22  C8  UNL     1      22.983   4.001  51.741  1.00  0.00     0.015 A 
HETATM   23  C9  UNL     1      21.715   4.207  51.262  1.00  0.00     0.045 A 
HETATM   24  C10 UNL     1      21.116   3.508  50.239  1.00  0.00     0.138 A 
HETATM   25  F1  UNL     1      19.850   3.791  49.839  1.00  0.00    -0.204 F 
HETATM   26  C11 UNL     1      21.857   2.512  49.644  1.00  0.00     0.073 A 
HETATM   27 CL1  UNL     1      21.084   1.635  48.347  1.00  0.00    -0.081 Cl
HETATM   28  C12 UNL     1      23.155   2.261  50.094  1.00  0.00     0.039 A 
ENDBRANCH   5  21
TORSDOF 6
ENDMDL
MODEL 4
REMARK VINA RESULT:      -8.1      3.458      5.282
REMARK  6 active torsions:
REMARK  status: ('A' for Active; 'I' for Inactive)
REMARK    1  A    between atoms: O1_2  and  C2_3 
REMARK    2  A    between atoms: C6_7  and  C7_8 
REMARK    3  A    between atoms: C14_18  and  C15_19 
REMARK    4  A    between atoms: C15_19  and  C16_20 
REMARK    5  A    between atoms: C16_20  and  C17_21 
REMARK    6  A    between atoms: C17_21  and  N2_22 
ROOT
HETATM    1  C2  UNL     1      27.215   0.076  52.725  1.00  0.00     0.076 C 
HETATM    2  C3  UNL     1      26.408  -0.322  53.777  1.00  0.00     0.039 C 
HETATM    3  C4  UNL     1      25.941   1.133  54.161  1.00  0.00     0.095 C 
HETATM    4  C5  UNL     1      25.036   0.626  53.015  1.00  0.00    -0.055 C 
HETATM    5  C6  UNL     1      23.954   0.061  53.500  1.00  0.00    -0.027 C 
HETATM    6  C13 UNL     1      24.230  -0.730  54.770  1.00  0.00     0.159 C 
HETATM    7  N1  UNL     1      25.649  -1.227  54.637  1.00  0.00    -0.387 N 
HETATM    8  C14 UNL     1      26.109   1.043  52.070  1.00  0.00     0.074 C 
HETATM    9  H11 UNL     1      26.400  -1.967  54.859  1.00  0.00     0.159 HD
ENDROOT
BRANCH   8  10
HETATM   10  C15 UNL     1      26.480   2.380  51.872  1.00  0.00     0.018 C 
BRANCH  10  11
HETATM   11  C16 UNL     1      26.470   2.784  50.403  1.00  0.00     0.031 C 
BRANCH  11  12
HETATM   12  C17 UNL     1      25.136   3.321  49.949  1.00  0.00     0.272 C 
BRANCH  12  13
HETATM   13  N2  UNL     1      25.236   4.650  49.360  1.00  0.00     0.092 N 
HETATM   14  C18 UNL     1      26.620   4.895  48.983  1.00  0.00     0.298 C 
HETATM   15  C19 UNL     1      26.877   6.294  48.522  1.00  0.00     0.198 C 
HETATM   16  O2  UNL     1      26.608   7.151  49.582  1.00  0.00    -0.388 OA
HETATM   17  C20 UNL     1      25.248   7.051  49.888  1.00  0.00     0.198 C 
HETATM   18  C21 UNL     1      24.870   5.657  50.329  1.00  0.00     0.298 C 
ENDBRANCH  12  13
ENDBRANCH  11  12
ENDBRANCH  10  11
ENDBRANCH   8  10
BRANCH   1  19
HETATM   19  O1  UNL     1      28.413  -0.679  53.021  1.00  0.00    -0.358 OA
HETATM   20  C1  UNL     1      29.404  -0.047  53.796  1.00  0.00     0.209 C 
ENDBRANCH   1  19
BRANCH   5  21
HETATM   21  C7  UNL     1      22.824   0.331  52.631  1.00  0.00    -0.026 A 
HETATM   22  C8  UNL     1      22.802   1.000  51.443  1.00  0.00     0.015 A 
HETATM   23  C9  UNL     1      21.578   1.096  50.833  1.00  0.00     0.045 A 
HETATM   24  C10 UNL     1      20.395   0.582  51.314  1.00  0.00     0.138 A 
HETATM   25  F1  UNL     1      19.231   0.734  50.630  1.00  0.00    -0.204 F 
HETATM   26  C11 UNL     1      20.447  -0.089  52.515  1.00  0.00     0.073 A 
HETATM   27 CL1  UNL     1      18.938  -0.736  53.110  1.00  0.00    -0.081 Cl
HETATM   28  C12 UNL     1      21.669  -0.216  53.177  1.00  0.00     0.039 A 
ENDBRANCH   5  21
TORSDOF 6
ENDMDL
MODEL 5
REMARK VINA RESULT:      -8.0      1.914      2.575
REMARK  6 active torsions:
REMARK  status: ('A' for Active; 'I' for Inactive)
REMARK    1  A    between atoms: O1_2  and  C2_3 
REMARK    2  A    between atoms: C6_7  and  C7_8 
REMARK    3  A    between atoms: C14_18  and  C15_19 
REMARK    4  A    between atoms: C15_19  and  C16_20 
REMARK    5  A    between atoms: C16_20  and  C17_21 
REMARK    6  A    between atoms: C17_21  and  N2_22 
ROOT
HETATM    1  C2  UNL     1      23.053   3.414  51.949  1.00  0.00     0.076 C 
HETATM    2  C3  UNL     1      22.625   2.173  52.390  1.00  0.00     0.039 C 
HETATM    3  C4  UNL     1      23.017   1.404  51.072  1.00  0.00     0.095 C 
HETATM    4  C5  UNL     1      24.277   1.507  51.960  1.00  0.00    -0.055 C 
HETATM    5  C6  UNL     1      24.394   0.438  52.716  1.00  0.00    -0.027 C 
HETATM    6  C13 UNL     1      23.051  -0.072  53.214  1.00  0.00     0.159 C 
HETATM    7  N1  UNL     1      22.172   1.150  53.331  1.00  0.00    -0.387 N 
HETATM    8  C14 UNL     1      24.473   2.878  51.414  1.00  0.00     0.074 C 
HETATM    9  H11 UNL     1      21.353   1.665  53.806  1.00  0.00     0.159 HD
ENDROOT
BRANCH   8  10
HETATM   10  C15 UNL     1      24.776   3.133  50.070  1.00  0.00     0.018 C 
BRANCH  10  11
HETATM   11  C16 UNL     1      26.164   3.732  49.880  1.00  0.00     0.031 C 
BRANCH  11  12
HETATM   12  C17 UNL     1      26.133   5.102  49.252  1.00  0.00     0.272 C 
BRANCH  12  13
HETATM   13  N2  UNL     1      24.942   5.859  49.613  1.00  0.00     0.092 N 
HETATM   14  C18 UNL     1      24.341   6.398  48.403  1.00  0.00     0.298 C 
HETATM   15  C19 UNL     1      23.205   7.337  48.663  1.00  0.00     0.198 C 
HETATM   16  O2  UNL     1      23.704   8.427  49.367  1.00  0.00    -0.388 OA
HETATM   17  C20 UNL     1      24.167   7.972  50.604  1.00  0.00     0.198 C 
HETATM   18  C21 UNL     1      25.296   6.981  50.453  1.00  0.00     0.298 C 
ENDBRANCH  12  13
ENDBRANCH  11  12
ENDBRANCH  10  11
ENDBRANCH   8  10
BRANCH   1  19
HETATM   19  O1  UNL     1      21.909   4.222  52.309  1.00  0.00    -0.358 OA
HETATM   20  C1  UNL     1      21.633   5.350  51.511  1.00  0.00     0.209 C 
ENDBRANCH   1  19
BRANCH   5  21
HETATM   21  C7  UNL     1      25.796   0.103  52.883  1.00  0.00    -0.026 A 
HETATM   22  C8  UNL     1      26.406  -1.110  52.752  1.00  0.00     0.015 A 
HETATM   23  C9  UNL     1      27.760  -1.126  52.965  1.00  0.00     0.045 A 
HETATM   24  C10 UNL     1      28.536  -0.037  53.293  1.00  0.00     0.138 A 
HETATM   25  F1  UNL     1      29.875  -0.160  53.484  1.00  0.00    -0.204 F 
HETATM   26  C11 UNL     1      27.895   1.174  53.418  1.00  0.00     0.073 A 
HETATM   27 CL1  UNL     1      28.895   2.545  53.833  1.00  0.00    -0.081 Cl
HETATM   28  C12 UNL     1      26.516   1.245  53.212  1.00  0.00     0.039 A 
ENDBRANCH   5  21
TORSDOF 6
ENDMDL
MODEL 6
REMARK VINA RESULT:      -7.9      2.168      3.136
REMARK  6 active torsions:
REMARK  status: ('A' for Active; 'I' for Inactive)
REMARK    1  A    between atoms: O1_2  and  C2_3 
REMARK    2  A    between atoms: C6_7  and  C7_8 
REMARK    3  A    between atoms: C14_18  and  C15_19 
REMARK    4  A    between atoms: C15_19  and  C16_20 
REMARK    5  A    between atoms: C16_20  and  C17_21 
REMARK    6  A    between atoms: C17_21  and  N2_22 
ROOT
HETATM    1  C2  UNL     1      24.344   4.321  51.158  1.00  0.00     0.076 C 
HETATM    2  C3  UNL     1      23.805   3.156  51.678  1.00  0.00     0.039 C 
HETATM    3  C4  UNL     1      24.309   2.227  50.510  1.00  0.00     0.095 C 
HETATM    4  C5  UNL     1      25.461   2.384  51.528  1.00  0.00    -0.055 C 
HETATM    5  C6  UNL     1      25.435   1.406  52.406  1.00  0.00    -0.027 C 
HETATM    6  C13 UNL     1      24.019   1.008  52.790  1.00  0.00     0.159 C 
HETATM    7  N1  UNL     1      23.195   2.266  52.664  1.00  0.00    -0.387 N 
HETATM    8  C14 UNL     1      25.787   3.676  50.862  1.00  0.00     0.074 C 
HETATM    9  H11 UNL     1      22.353   2.862  52.976  1.00  0.00     0.159 HD
ENDROOT
BRANCH   8  10
HETATM   10  C15 UNL     1      26.257   3.762  49.545  1.00  0.00     0.018 C 
BRANCH  10  11
HETATM   11  C16 UNL     1      25.964   5.113  48.901  1.00  0.00     0.031 C 
BRANCH  11  12
HETATM   12  C17 UNL     1      27.210   5.922  48.640  1.00  0.00     0.272 C 
BRANCH  12  13
HETATM   13  N2  UNL     1      26.972   7.358  48.713  1.00  0.00     0.092 N 
HETATM   14  C18 UNL     1      28.220   8.025  49.053  1.00  0.00     0.298 C 
HETATM   15  C19 UNL     1      28.064   9.488  49.323  1.00  0.00     0.198 C 
HETATM   16  O2  UNL     1      27.235   9.633  50.427  1.00  0.00    -0.388 OA
HETATM   17  C20 UNL     1      25.975   9.129  50.096  1.00  0.00     0.198 C 
HETATM   18  C21 UNL     1      26.026   7.657  49.763  1.00  0.00     0.298 C 
ENDBRANCH  12  13
ENDBRANCH  11  12
ENDBRANCH  10  11
ENDBRANCH   8  10
BRANCH   1  19
HETATM   19  O1  UNL     1      23.208   5.207  51.286  1.00  0.00    -0.358 OA
HETATM   20  C1  UNL     1      22.498   5.527  50.112  1.00  0.00     0.209 C 
ENDBRANCH   1  19
BRANCH   5  21
HETATM   21  C7  UNL     1      26.789   1.041  52.777  1.00  0.00    -0.026 A 
HETATM   22  C8  UNL     1      27.822   1.852  53.144  1.00  0.00     0.015 A 
HETATM   23  C9  UNL     1      29.000   1.221  53.451  1.00  0.00     0.045 A 
HETATM   24  C10 UNL     1      29.217  -0.139  53.418  1.00  0.00     0.138 A 
HETATM   25  F1  UNL     1      30.427  -0.666  53.741  1.00  0.00    -0.204 F 
HETATM   26  C11 UNL     1      28.157  -0.933  53.044  1.00  0.00     0.073 A 
HETATM   27 CL1  UNL     1      28.449  -2.655  53.010  1.00  0.00    -0.081 Cl
HETATM   28  C12 UNL     1      26.935  -0.340  52.722  1.00  0.00     0.039 A 
ENDBRANCH   5  21
TORSDOF 6
ENDMDL
MODEL 7
REMARK VINA RESULT:      -7.8      3.509      5.784
REMARK  6 active torsions:
REMARK  status: ('A' for Active; 'I' for Inactive)
REMARK    1  A    between atoms: O1_2  and  C2_3 
REMARK    2  A    between atoms: C6_7  and  C7_8 
REMARK    3  A    between atoms: C14_18  and  C15_19 
REMARK    4  A    between atoms: C15_19  and  C16_20 
REMARK    5  A    between atoms: C16_20  and  C17_21 
REMARK    6  A    between atoms: C17_21  and  N2_22 
ROOT
HETATM    1  C2  UNL     1      21.078   2.720  51.098  1.00  0.00     0.076 C 
HETATM    2  C3  UNL     1      21.260   4.092  51.152  1.00  0.00     0.039 C 
HETATM    3  C4  UNL     1      22.250   4.061  52.377  1.00  0.00     0.095 C 
HETATM    4  C5  UNL     1      23.069   3.802  51.092  1.00  0.00    -0.055 C 
HETATM    5  C6  UNL     1      23.555   4.930  50.622  1.00  0.00    -0.027 C 
HETATM    6  C13 UNL     1      22.588   6.092  50.786  1.00  0.00     0.159 C 
HETATM    7  N1  UNL     1      21.208   5.485  50.713  1.00  0.00    -0.387 N 
HETATM    8  C14 UNL     1      22.648   2.377  51.188  1.00  0.00     0.074 C 
HETATM    9  H11 UNL     1      20.164   5.576  50.463  1.00  0.00     0.159 HD
ENDROOT
BRANCH   8  10
HETATM   10  C15 UNL     1      23.048   1.526  52.226  1.00  0.00     0.018 C 
BRANCH  10  11
HETATM   11  C16 UNL     1      24.521   1.142  52.140  1.00  0.00     0.031 C 
BRANCH  11  12
HETATM   12  C17 UNL     1      25.145   0.902  53.492  1.00  0.00     0.272 C 
BRANCH  12  13
HETATM   13  N2  UNL     1      26.600   0.846  53.436  1.00  0.00     0.092 N 
HETATM   14  C18 UNL     1      27.093   0.209  54.648  1.00  0.00     0.298 C 
HETATM   15  C19 UNL     1      28.583   0.248  54.783  1.00  0.00     0.198 C 
HETATM   16  O2  UNL     1      28.971   1.579  54.860  1.00  0.00    -0.388 OA
HETATM   17  C20 UNL     1      28.640   2.201  53.653  1.00  0.00     0.198 C 
HETATM   18  C21 UNL     1      27.152   2.181  53.398  1.00  0.00     0.298 C 
ENDBRANCH  12  13
ENDBRANCH  11  12
ENDBRANCH  10  11
ENDBRANCH   8  10
BRANCH   1  19
HETATM   19  O1  UNL     1      19.637   2.657  51.001  1.00  0.00    -0.358 OA
HETATM   20  C1  UNL     1      19.089   1.894  49.951  1.00  0.00     0.209 C 
ENDBRANCH   1  19
BRANCH   5  21
HETATM   21  C7  UNL     1      24.863   4.698  50.038  1.00  0.00    -0.026 A 
HETATM   22  C8  UNL     1      25.599   3.551  50.022  1.00  0.00     0.015 A 
HETATM   23  C9  UNL     1      26.811   3.626  49.384  1.00  0.00     0.045 A 
HETATM   24  C10 UNL     1      27.331   4.745  48.773  1.00  0.00     0.138 A 
HETATM   25  F1  UNL     1      28.547   4.715  48.168  1.00  0.00    -0.204 F 
HETATM   26  C11 UNL     1      26.566   5.889  48.805  1.00  0.00     0.073 A 
HETATM   27 CL1  UNL     1      27.240   7.298  48.024  1.00  0.00    -0.081 Cl
HETATM   28  C12 UNL     1      25.324   5.865  49.442  1.00  0.00     0.039 A 
ENDBRANCH   5  21
TORSDOF 6
ENDMDL
MODEL 8
REMARK VINA RESULT:      -7.7      2.631      6.193
REMARK  6 active torsions:
REMARK  status: ('A' for Active; 'I' for Inactive)
REMARK    1  A    between atoms: O1_2  and  C2_3 
REMARK    2  A    between atoms: C6_7  and  C7_8 
REMARK    3  A    between atoms: C14_18  and  C15_19 
REMARK    4  A    between atoms: C15_19  and  C16_20 
REMARK    5  A    between atoms: C16_20  and  C17_21 
REMARK    6  A    between atoms: C17_21  and  N2_22 
ROOT
HETATM    1  C2  UNL     1      22.276   1.238  50.998  1.00  0.00     0.076 C 
HETATM    2  C3  UNL     1      23.194   2.242  50.738  1.00  0.00     0.039 C 
HETATM    3  C4  UNL     1      23.317   2.719  52.234  1.00  0.00     0.095 C 
HETATM    4  C5  UNL     1      24.272   1.520  52.033  1.00  0.00    -0.055 C 
HETATM    5  C6  UNL     1      25.476   1.941  51.713  1.00  0.00    -0.027 C 
HETATM    6  C13 UNL     1      25.443   3.156  50.799  1.00  0.00     0.159 C 
HETATM    7  N1  UNL     1      24.179   3.018  49.987  1.00  0.00    -0.387 N 
HETATM    8  C14 UNL     1      23.096   0.632  52.242  1.00  0.00     0.074 C 
HETATM    9  H11 UNL     1      23.634   3.202  49.076  1.00  0.00     0.159 HD
ENDROOT
BRANCH   8  10
HETATM   10  C15 UNL     1      22.411   0.538  53.461  1.00  0.00     0.018 C 
BRANCH  10  11
HETATM   11  C16 UNL     1      21.374  -0.579  53.472  1.00  0.00     0.031 C 
BRANCH  11  12
HETATM   12  C17 UNL     1      19.964  -0.070  53.635  1.00  0.00     0.272 C 
BRANCH  12  13
HETATM   13  N2  UNL     1      19.025  -0.717  52.728  1.00  0.00     0.092 N 
HETATM   14  C18 UNL     1      18.458   0.287  51.841  1.00  0.00     0.298 C 
HETATM   15  C19 UNL     1      17.352  -0.230  50.976  1.00  0.00     0.198 C 
HETATM   16  O2  UNL     1      16.317  -0.642  51.807  1.00  0.00    -0.388 OA
HETATM   17  C20 UNL     1      16.779  -1.707  52.584  1.00  0.00     0.198 C 
HETATM   18  C21 UNL     1      17.931  -1.300  53.471  1.00  0.00     0.298 C 
ENDBRANCH  12  13
ENDBRANCH  11  12
ENDBRANCH  10  11
ENDBRANCH   8  10
BRANCH   1  19
HETATM   19  O1  UNL     1      21.304   1.506  49.960  1.00  0.00    -0.358 OA
HETATM   20  C1  UNL     1      20.547   2.688  50.069  1.00  0.00     0.209 C 
ENDBRANCH   1  19
BRANCH   5  21
HETATM   21  C7  UNL     1      26.475   1.068  52.302  1.00  0.00    -0.026 A 
HETATM   22  C8  UNL     1      26.590  -0.287  52.204  1.00  0.00     0.015 A 
HETATM   23  C9  UNL     1      27.650  -0.847  52.867  1.00  0.00     0.045 A 
HETATM   24  C10 UNL     1      28.588  -0.165  53.609  1.00  0.00     0.138 A 
HETATM   25  F1  UNL     1      29.604  -0.817  54.231  1.00  0.00    -0.204 F 
HETATM   26  C11 UNL     1      28.448   1.202  53.691  1.00  0.00     0.073 A 
HETATM   27 CL1  UNL     1      29.647   2.052  54.634  1.00  0.00    -0.081 Cl
HETATM   28  C12 UNL     1      27.385   1.823  53.033  1.00  0.00     0.039 A 
ENDBRANCH   5  21
TORSDOF 6
ENDMDL
MODEL 9
REMARK VINA RESULT:      -7.7      3.549      6.837
REMARK  6 active torsions:
REMARK  status: ('A' for Active; 'I' for Inactive)
REMARK    1  A    between atoms: O1_2  and  C2_3 
REMARK    2  A    between atoms: C6_7  and  C7_8 
REMARK    3  A    between atoms: C14_18  and  C15_19 
REMARK    4  A    between atoms: C15_19  and  C16_20 
REMARK    5  A    between atoms: C16_20  and  C17_21 
REMARK    6  A    between atoms: C17_21  and  N2_22 
ROOT
HETATM    1  C2  UNL     1      22.006   3.652  52.169  1.00  0.00     0.076 C 
HETATM    2  C3  UNL     1      22.127   5.011  51.933  1.00  0.00     0.039 C 
HETATM    3  C4  UNL     1      23.327   5.228  52.931  1.00  0.00     0.095 C 
HETATM    4  C5  UNL     1      23.906   4.741  51.584  1.00  0.00    -0.055 C 
HETATM    5  C6  UNL     1      24.240   5.764  50.830  1.00  0.00    -0.027 C 
HETATM    6  C13 UNL     1      23.264   6.923  50.958  1.00  0.00     0.159 C 
HETATM    7  N1  UNL     1      21.926   6.295  51.262  1.00  0.00    -0.387 N 
HETATM    8  C14 UNL     1      23.580   3.354  52.019  1.00  0.00     0.074 C 
HETATM    9  H11 UNL     1      20.851   6.322  51.204  1.00  0.00     0.159 HD
ENDROOT
BRANCH   8  10
HETATM   10  C15 UNL     1      24.207   2.722  53.101  1.00  0.00     0.018 C 
BRANCH  10  11
HETATM   11  C16 UNL     1      25.120   1.581  52.669  1.00  0.00     0.031 C 
BRANCH  11  12
HETATM   12  C17 UNL     1      24.394   0.266  52.531  1.00  0.00     0.272 C 
BRANCH  12  13
HETATM   13  N2  UNL     1      23.460   0.023  53.622  1.00  0.00     0.092 N 
HETATM   14  C18 UNL     1      24.045  -0.946  54.536  1.00  0.00     0.298 C 
HETATM   15  C19 UNL     1      23.107  -1.404  55.608  1.00  0.00     0.198 C 
HETATM   16  O2  UNL     1      22.038  -2.046  54.995  1.00  0.00    -0.388 OA
HETATM   17  C20 UNL     1      21.359  -1.110  54.211  1.00  0.00     0.198 C 
HETATM   18  C21 UNL     1      22.235  -0.551  53.115  1.00  0.00     0.298 C 
ENDBRANCH  12  13
ENDBRANCH  11  12
ENDBRANCH  10  11
ENDBRANCH   8  10
BRANCH   1  19
HETATM   19  O1  UNL     1      20.576   3.552  52.361  1.00  0.00    -0.358 OA
HETATM   20  C1  UNL     1      19.986   2.284  52.196  1.00  0.00     0.209 C 
ENDBRANCH   1  19
BRANCH   5  21
HETATM   21  C7  UNL     1      25.428   5.444  50.061  1.00  0.00    -0.026 A 
HETATM   22  C8  UNL     1      26.011   4.228  49.857  1.00  0.00     0.015 A 
HETATM   23  C9  UNL     1      27.134   4.227  49.071  1.00  0.00     0.045 A 
HETATM   24  C10 UNL     1      27.708   5.332  48.484  1.00  0.00     0.138 A 
HETATM   25  F1  UNL     1      28.826   5.223  47.721  1.00  0.00    -0.204 F 
HETATM   26  C11 UNL     1      27.099   6.546  48.707  1.00  0.00     0.073 A 
HETATM   27 CL1  UNL     1      27.838   7.938  47.954  1.00  0.00    -0.081 Cl
HETATM   28  C12 UNL     1      25.951   6.602  49.500  1.00  0.00     0.039 A 
ENDBRANCH   5  21
TORSDOF 6
ENDMDL
