MODEL 1
REMARK VINA RESULT:      -8.6      0.000      0.000
REMARK  4 active torsions:
REMARK  status: ('A' for Active; 'I' for Inactive)
REMARK    1  A    between atoms: O1_2  and  C2_3 
REMARK    2  A    between atoms: C6_9  and  N3_10 
REMARK    3  A    between atoms: N3_10  and  C7_11 
REMARK    4  A    between atoms: C18_22  and  O2_23 
ROOT
HETATM    1  C2  UNL     1      27.553   0.288  53.867  1.00  0.00     0.103 A 
HETATM    2  C3  UNL     1      27.868   1.203  52.884  1.00  0.00     0.072 A 
HETATM    3  C4  UNL     1      26.826   1.800  52.207  1.00  0.00     0.075 A 
HETATM    4  N1  UNL     1      27.107   2.680  51.250  1.00  0.00    -0.241 NA
HETATM    5  C5  UNL     1      26.183   3.313  50.527  1.00  0.00     0.235 A 
HETATM    6  N2  UNL     1      24.892   3.081  50.745  1.00  0.00    -0.224 NA
HETATM    7  C6  UNL     1      24.484   2.199  51.702  1.00  0.00     0.138 A 
HETATM    8  C16 UNL     1      25.483   1.574  52.417  1.00  0.00     0.041 A 
HETATM    9  C17 UNL     1      25.261   0.649  53.412  1.00  0.00     0.057 A 
HETATM   10  C18 UNL     1      26.232   0.001  54.142  1.00  0.00     0.100 A 
ENDROOT
BRANCH   7  11
HETATM   11  N3  UNL     1      23.102   1.894  51.989  1.00  0.00    -0.368 N 
HETATM   12  H6  UNL     1      23.084   1.747  53.040  1.00  0.00     0.161 HD
BRANCH  11  13
HETATM   13  C7  UNL     1      21.753   1.678  51.659  1.00  0.00     0.098 C 
HETATM   14  C8  UNL     1      20.747   2.262  52.712  1.00  0.00     0.064 C 
HETATM   15  C9  UNL     1      20.417   0.895  53.243  1.00  0.00    -0.059 C 
HETATM   16  C10 UNL     1      19.937   0.252  52.147  1.00  0.00    -0.009 C 
HETATM   17  C15 UNL     1      20.668   0.419  54.648  1.00  0.00     0.007 C 
HETATM   18  C11 UNL     1      21.356   0.206  51.626  1.00  0.00     0.054 C 
HETATM   19  C12 UNL     1      22.236  -0.698  52.394  1.00  0.00    -0.016 C 
HETATM   20  C13 UNL     1      22.349  -1.200  53.652  1.00  0.00    -0.003 C 
HETATM   21  C14 UNL     1      21.482  -0.685  54.757  1.00  0.00     0.000 C 
ENDBRANCH  11  13
ENDBRANCH   7  11
BRANCH  10  22
HETATM   22  O2  UNL     1      25.927  -0.923  55.135  1.00  0.00    -0.358 OA
HETATM   23  H17 UNL     1      25.484  -1.789  54.790  1.00  0.00     0.217 HD
ENDBRANCH  10  22
BRANCH   1  24
HETATM   24  O1  UNL     1      28.547  -0.347  54.583  1.00  0.00    -0.353 OA
HETATM   25  C1  UNL     1      29.698  -0.875  53.974  1.00  0.00     0.210 C 
ENDBRANCH   1  24
TORSDOF 4
ENDMDL
MODEL 2
REMARK VINA RESULT:      -8.3      2.839      6.499
REMARK  4 active torsions:
REMARK  status: ('A' for Active; 'I' for Inactive)
REMARK    1  A    between atoms: O1_2  and  C2_3 
REMARK    2  A    between atoms: C6_9  and  N3_10 
REMARK    3  A    between atoms: N3_10  and  C7_11 
REMARK    4  A    between atoms: C18_22  and  O2_23 
ROOT
HETATM    1  C2  UNL     1      21.481   3.157  52.178  1.00  0.00     0.103 A 
HETATM    2  C3  UNL     1      20.655   2.196  52.723  1.00  0.00     0.072 A 
HETATM    3  C4  UNL     1      21.240   1.035  53.182  1.00  0.00     0.075 A 
HETATM    4  N1  UNL     1      20.462   0.091  53.704  1.00  0.00    -0.241 NA
HETATM    5  C5  UNL     1      20.915  -1.073  54.172  1.00  0.00     0.235 A 
HETATM    6  N2  UNL     1      22.216  -1.345  54.133  1.00  0.00    -0.224 NA
HETATM    7  C6  UNL     1      23.111  -0.452  53.620  1.00  0.00     0.138 A 
HETATM    8  C16 UNL     1      22.585   0.733  53.151  1.00  0.00     0.041 A 
HETATM    9  C17 UNL     1      23.332   1.744  52.591  1.00  0.00     0.057 A 
HETATM   10  C18 UNL     1      22.841   2.937  52.107  1.00  0.00     0.100 A 
ENDROOT
BRANCH   7  11
HETATM   11  N3  UNL     1      24.534  -0.683  53.542  1.00  0.00    -0.368 N 
HETATM   12  H6  UNL     1      24.739  -0.673  52.500  1.00  0.00     0.161 HD
BRANCH  11  13
HETATM   13  C7  UNL     1      25.815  -0.918  54.071  1.00  0.00     0.098 C 
HETATM   14  C8  UNL     1      26.264   0.152  55.126  1.00  0.00     0.064 C 
HETATM   15  C9  UNL     1      27.223   0.789  54.158  1.00  0.00    -0.059 C 
HETATM   16  C10 UNL     1      28.061  -0.234  53.845  1.00  0.00    -0.009 C 
HETATM   17  C15 UNL     1      27.146   2.203  53.655  1.00  0.00     0.007 C 
HETATM   18  C11 UNL     1      26.933  -0.833  53.037  1.00  0.00     0.054 C 
HETATM   19  C12 UNL     1      26.605  -0.062  51.821  1.00  0.00    -0.016 C 
HETATM   20  C13 UNL     1      26.671   1.217  51.366  1.00  0.00    -0.003 C 
HETATM   21  C14 UNL     1      27.036   2.335  52.289  1.00  0.00     0.000 C 
ENDBRANCH  11  13
ENDBRANCH   7  11
BRANCH  10  22
HETATM   22  O2  UNL     1      23.663   3.912  51.556  1.00  0.00    -0.358 OA
HETATM   23  H17 UNL     1      23.446   4.149  50.575  1.00  0.00     0.217 HD
ENDBRANCH  10  22
BRANCH   1  24
HETATM   24  O1  UNL     1      20.963   4.343  51.700  1.00  0.00    -0.353 OA
HETATM   25  C1  UNL     1      20.356   4.447  50.437  1.00  0.00     0.210 C 
ENDBRANCH   1  24
TORSDOF 4
ENDMDL
MODEL 3
REMARK VINA RESULT:      -8.0      2.318      4.223
REMARK  4 active torsions:
REMARK  status: ('A' for Active; 'I' for Inactive)
REMARK    1  A    between atoms: O1_2  and  C2_3 
REMARK    2  A    between atoms: C6_9  and  N3_10 
REMARK    3  A    between atoms: N3_10  and  C7_11 
REMARK    4  A    between atoms: C18_22  and  O2_23 
ROOT
HETATM    1  C2  UNL     1      28.308   0.698  53.459  1.00  0.00     0.103 A 
HETATM    2  C3  UNL     1      27.239  -0.169  53.552  1.00  0.00     0.072 A 
HETATM    3  C4  UNL     1      25.972   0.363  53.442  1.00  0.00     0.075 A 
HETATM    4  N1  UNL     1      24.926  -0.453  53.536  1.00  0.00    -0.241 NA
HETATM    5  C5  UNL     1      23.658  -0.050  53.452  1.00  0.00     0.235 A 
HETATM    6  N2  UNL     1      23.378   1.236  53.261  1.00  0.00    -0.224 NA
HETATM    7  C6  UNL     1      24.369   2.166  53.149  1.00  0.00     0.138 A 
HETATM    8  C16 UNL     1      25.661   1.692  53.244  1.00  0.00     0.041 A 
HETATM    9  C17 UNL     1      26.784   2.482  53.165  1.00  0.00     0.057 A 
HETATM   10  C18 UNL     1      28.087   2.046  53.262  1.00  0.00     0.100 A 
ENDROOT
BRANCH   7  11
HETATM   11  N3  UNL     1      24.140   3.577  52.947  1.00  0.00    -0.368 N 
HETATM   12  H6  UNL     1      24.965   4.043  53.425  1.00  0.00     0.161 HD
BRANCH  11  13
HETATM   13  C7  UNL     1      23.432   4.694  52.471  1.00  0.00     0.098 C 
HETATM   14  C8  UNL     1      21.971   4.361  52.006  1.00  0.00     0.064 C 
HETATM   15  C9  UNL     1      22.343   4.485  50.554  1.00  0.00    -0.059 C 
HETATM   16  C10 UNL     1      22.796   5.763  50.466  1.00  0.00    -0.009 C 
HETATM   17  C15 UNL     1      22.269   3.382  49.536  1.00  0.00     0.007 C 
HETATM   18  C11 UNL     1      24.031   5.313  51.213  1.00  0.00     0.054 C 
HETATM   19  C12 UNL     1      24.901   4.415  50.426  1.00  0.00    -0.016 C 
HETATM   20  C13 UNL     1      24.800   3.512  49.415  1.00  0.00    -0.003 C 
HETATM   21  C14 UNL     1      23.460   3.073  48.919  1.00  0.00     0.000 C 
ENDBRANCH  11  13
ENDBRANCH   7  11
BRANCH  10  22
HETATM   22  O2  UNL     1      29.171   2.909  53.170  1.00  0.00    -0.358 OA
HETATM   23  H17 UNL     1      29.366   3.443  54.032  1.00  0.00     0.217 HD
ENDBRANCH  10  22
BRANCH   1  24
HETATM   24  O1  UNL     1      29.603   0.233  53.560  1.00  0.00    -0.353 OA
HETATM   25  C1  UNL     1      29.917  -1.136  53.554  1.00  0.00     0.210 C 
ENDBRANCH   1  24
TORSDOF 4
ENDMDL
MODEL 4
REMARK VINA RESULT:      -7.9      2.468      4.694
REMARK  4 active torsions:
REMARK  status: ('A' for Active; 'I' for Inactive)
REMARK    1  A    between atoms: O1_2  and  C2_3 
REMARK    2  A    between atoms: C6_9  and  N3_10 
REMARK    3  A    between atoms: N3_10  and  C7_11 
REMARK    4  A    between atoms: C18_22  and  O2_23 
ROOT
HETATM    1  C2  UNL     1      26.999   0.988  52.892  1.00  0.00     0.103 A 
HETATM    2  C3  UNL     1      26.108   0.042  53.355  1.00  0.00     0.072 A 
HETATM    3  C4  UNL     1      24.783   0.184  53.002  1.00  0.00     0.075 A 
HETATM    4  N1  UNL     1      23.905  -0.712  53.444  1.00  0.00    -0.241 NA
HETATM    5  C5  UNL     1      22.600  -0.672  53.173  1.00  0.00     0.235 A 
HETATM    6  N2  UNL     1      22.106   0.306  52.419  1.00  0.00    -0.224 NA
HETATM    7  C6  UNL     1      22.911   1.282  51.909  1.00  0.00     0.138 A 
HETATM    8  C16 UNL     1      24.251   1.189  52.223  1.00  0.00     0.041 A 
HETATM    9  C17 UNL     1      25.208   2.086  51.807  1.00  0.00     0.057 A 
HETATM   10  C18 UNL     1      26.551   2.029  52.105  1.00  0.00     0.100 A 
ENDROOT
BRANCH   7  11
HETATM   11  N3  UNL     1      22.444   2.374  51.089  1.00  0.00    -0.368 N 
HETATM   12  H6  UNL     1      22.327   3.178  51.772  1.00  0.00     0.161 HD
BRANCH  11  13
HETATM   13  C7  UNL     1      22.048   2.980  49.884  1.00  0.00     0.098 C 
HETATM   14  C8  UNL     1      23.084   2.797  48.720  1.00  0.00     0.064 C 
HETATM   15  C9  UNL     1      23.538   4.227  48.820  1.00  0.00    -0.059 C 
HETATM   16  C10 UNL     1      22.395   4.925  48.593  1.00  0.00    -0.009 C 
HETATM   17  C15 UNL     1      24.929   4.679  49.171  1.00  0.00     0.007 C 
HETATM   18  C11 UNL     1      21.932   4.498  49.968  1.00  0.00     0.054 C 
HETATM   19  C12 UNL     1      22.694   5.125  51.066  1.00  0.00    -0.016 C 
HETATM   20  C13 UNL     1      23.931   5.638  51.298  1.00  0.00    -0.003 C 
HETATM   21  C14 UNL     1      25.021   5.480  50.286  1.00  0.00     0.000 C 
ENDBRANCH  11  13
ENDBRANCH   7  11
BRANCH  10  22
HETATM   22  O2  UNL     1      27.458   2.976  51.645  1.00  0.00    -0.358 OA
HETATM   23  H17 UNL     1      28.173   3.254  52.336  1.00  0.00     0.217 HD
ENDBRANCH  10  22
BRANCH   1  24
HETATM   24  O1  UNL     1      28.340   0.907  53.207  1.00  0.00    -0.353 OA
HETATM   25  C1  UNL     1      28.795   0.561  54.490  1.00  0.00     0.210 C 
ENDBRANCH   1  24
TORSDOF 4
ENDMDL
MODEL 5
REMARK VINA RESULT:      -7.8      2.563      5.684
REMARK  4 active torsions:
REMARK  status: ('A' for Active; 'I' for Inactive)
REMARK    1  A    between atoms: O1_2  and  C2_3 
REMARK    2  A    between atoms: C6_9  and  N3_10 
REMARK    3  A    between atoms: N3_10  and  C7_11 
REMARK    4  A    between atoms: C18_22  and  O2_23 
ROOT
HETATM    1  C2  UNL     1      23.773  -0.247  53.294  1.00  0.00     0.103 A 
HETATM    2  C3  UNL     1      25.063  -0.295  53.780  1.00  0.00     0.072 A 
HETATM    3  C4  UNL     1      25.968   0.619  53.284  1.00  0.00     0.075 A 
HETATM    4  N1  UNL     1      27.219   0.586  53.732  1.00  0.00    -0.241 NA
HETATM    5  C5  UNL     1      28.180   1.414  53.320  1.00  0.00     0.235 A 
HETATM    6  N2  UNL     1      27.912   2.344  52.409  1.00  0.00    -0.224 NA
HETATM    7  C6  UNL     1      26.663   2.473  51.876  1.00  0.00     0.138 A 
HETATM    8  C16 UNL     1      25.711   1.590  52.339  1.00  0.00     0.041 A 
HETATM    9  C17 UNL     1      24.403   1.565  51.911  1.00  0.00     0.057 A 
HETATM   10  C18 UNL     1      23.428   0.694  52.346  1.00  0.00     0.100 A 
ENDROOT
BRANCH   7  11
HETATM   11  N3  UNL     1      26.302   3.455  50.881  1.00  0.00    -0.368 N 
HETATM   12  H6  UNL     1      26.270   4.369  51.421  1.00  0.00     0.161 HD
BRANCH  11  13
HETATM   13  C7  UNL     1      25.963   3.889  49.588  1.00  0.00     0.098 C 
HETATM   14  C8  UNL     1      26.802   5.122  49.100  1.00  0.00     0.064 C 
HETATM   15  C9  UNL     1      25.640   6.059  49.281  1.00  0.00    -0.059 C 
HETATM   16  C10 UNL     1      24.694   5.529  48.463  1.00  0.00    -0.009 C 
HETATM   17  C15 UNL     1      25.601   7.229  50.224  1.00  0.00     0.007 C 
HETATM   18  C11 UNL     1      24.536   4.412  49.468  1.00  0.00     0.054 C 
HETATM   19  C12 UNL     1      23.918   4.844  50.738  1.00  0.00    -0.016 C 
HETATM   20  C13 UNL     1      23.807   5.966  51.498  1.00  0.00    -0.003 C 
HETATM   21  C14 UNL     1      24.599   7.191  51.165  1.00  0.00     0.000 C 
ENDBRANCH  11  13
ENDBRANCH   7  11
BRANCH  10  22
HETATM   22  O2  UNL     1      22.126   0.733  51.864  1.00  0.00    -0.358 OA
HETATM   23  H17 UNL     1      21.534  -0.056  52.169  1.00  0.00     0.217 HD
ENDBRANCH  10  22
BRANCH   1  24
HETATM   24  O1  UNL     1      22.815  -1.131  53.747  1.00  0.00    -0.353 OA
HETATM   25  C1  UNL     1      22.082  -0.913  54.925  1.00  0.00     0.210 C 
ENDBRANCH   1  24
TORSDOF 4
ENDMDL
MODEL 6
REMARK VINA RESULT:      -7.8      2.596      6.247
REMARK  4 active torsions:
REMARK  status: ('A' for Active; 'I' for Inactive)
REMARK    1  A    between atoms: O1_2  and  C2_3 
REMARK    2  A    between atoms: C6_9  and  N3_10 
REMARK    3  A    between atoms: N3_10  and  C7_11 
REMARK    4  A    between atoms: C18_22  and  O2_23 
ROOT
HETATM    1  C2  UNL     1      19.258  -0.486  53.040  1.00  0.00     0.103 A 
HETATM    2  C3  UNL     1      19.009  -0.045  51.757  1.00  0.00     0.072 A 
HETATM    3  C4  UNL     1      20.052   0.532  51.065  1.00  0.00     0.075 A 
HETATM    4  N1  UNL     1      19.833   0.971  49.829  1.00  0.00    -0.241 NA
HETATM    5  C5  UNL     1      20.762   1.551  49.069  1.00  0.00     0.235 A 
HETATM    6  N2  UNL     1      21.996   1.717  49.536  1.00  0.00    -0.224 NA
HETATM    7  C6  UNL     1      22.339   1.305  50.790  1.00  0.00     0.138 A 
HETATM    8  C16 UNL     1      21.337   0.714  51.530  1.00  0.00     0.041 A 
HETATM    9  C17 UNL     1      21.495   0.247  52.815  1.00  0.00     0.057 A 
HETATM   10  C18 UNL     1      20.517  -0.343  53.585  1.00  0.00     0.100 A 
ENDROOT
BRANCH   7  11
HETATM   11  N3  UNL     1      23.655   1.458  51.364  1.00  0.00    -0.368 N 
HETATM   12  H6  UNL     1      23.971   0.463  51.552  1.00  0.00     0.161 HD
BRANCH  11  13
HETATM   13  C7  UNL     1      24.765   2.188  51.821  1.00  0.00     0.098 C 
HETATM   14  C8  UNL     1      26.084   1.889  51.026  1.00  0.00     0.064 C 
HETATM   15  C9  UNL     1      26.656   1.085  52.162  1.00  0.00    -0.059 C 
HETATM   16  C10 UNL     1      26.680   1.980  53.184  1.00  0.00    -0.009 C 
HETATM   17  C15 UNL     1      27.010  -0.375  52.106  1.00  0.00     0.007 C 
HETATM   18  C11 UNL     1      25.176   1.854  53.251  1.00  0.00     0.054 C 
HETATM   19  C12 UNL     1      24.716   0.540  53.744  1.00  0.00    -0.016 C 
HETATM   20  C13 UNL     1      25.139  -0.751  53.778  1.00  0.00    -0.003 C 
HETATM   21  C14 UNL     1      26.354  -1.173  53.015  1.00  0.00     0.000 C 
ENDBRANCH  11  13
ENDBRANCH   7  11
BRANCH  10  22
HETATM   22  O2  UNL     1      20.756  -0.791  54.879  1.00  0.00    -0.358 OA
HETATM   23  H17 UNL     1      20.340  -1.710  55.096  1.00  0.00     0.217 HD
ENDBRANCH  10  22
BRANCH   1  24
HETATM   24  O1  UNL     1      18.260  -1.073  53.790  1.00  0.00    -0.353 OA
HETATM   25  C1  UNL     1      17.822  -2.389  53.567  1.00  0.00     0.210 C 
ENDBRANCH   1  24
TORSDOF 4
ENDMDL
MODEL 7
REMARK VINA RESULT:      -7.7      2.321      4.024
REMARK  4 active torsions:
REMARK  status: ('A' for Active; 'I' for Inactive)
REMARK    1  A    between atoms: O1_2  and  C2_3 
REMARK    2  A    between atoms: C6_9  and  N3_10 
REMARK    3  A    between atoms: N3_10  and  C7_11 
REMARK    4  A    between atoms: C18_22  and  O2_23 
ROOT
HETATM    1  C2  UNL     1      27.682   1.618  53.250  1.00  0.00     0.103 A 
HETATM    2  C3  UNL     1      27.245   0.675  54.156  1.00  0.00     0.072 A 
HETATM    3  C4  UNL     1      25.936   0.252  54.060  1.00  0.00     0.075 A 
HETATM    4  N1  UNL     1      25.492  -0.651  54.929  1.00  0.00    -0.241 NA
HETATM    5  C5  UNL     1      24.247  -1.127  54.936  1.00  0.00     0.235 A 
HETATM    6  N2  UNL     1      23.365  -0.700  54.037  1.00  0.00    -0.224 NA
HETATM    7  C6  UNL     1      23.707   0.227  53.096  1.00  0.00     0.138 A 
HETATM    8  C16 UNL     1      25.007   0.683  53.138  1.00  0.00     0.041 A 
HETATM    9  C17 UNL     1      25.527   1.622  52.276  1.00  0.00     0.057 A 
HETATM   10  C18 UNL     1      26.816   2.105  52.291  1.00  0.00     0.100 A 
ENDROOT
BRANCH   7  11
HETATM   11  N3  UNL     1      22.801   0.739  52.095  1.00  0.00    -0.368 N 
HETATM   12  H6  UNL     1      23.438   1.024  51.295  1.00  0.00     0.161 HD
BRANCH  11  13
HETATM   13  C7  UNL     1      21.540   1.080  51.577  1.00  0.00     0.098 C 
HETATM   14  C8  UNL     1      21.292   0.540  50.124  1.00  0.00     0.064 C 
HETATM   15  C9  UNL     1      21.459   1.908  49.524  1.00  0.00    -0.059 C 
HETATM   16  C10 UNL     1      20.490   2.632  50.143  1.00  0.00    -0.009 C 
HETATM   17  C15 UNL     1      22.525   2.306  48.540  1.00  0.00     0.007 C 
HETATM   18  C11 UNL     1      21.334   2.580  51.396  1.00  0.00     0.054 C 
HETATM   19  C12 UNL     1      22.573   3.376  51.304  1.00  0.00    -0.016 C 
HETATM   20  C13 UNL     1      23.445   3.818  50.359  1.00  0.00    -0.003 C 
HETATM   21  C14 UNL     1      23.344   3.334  48.947  1.00  0.00     0.000 C 
ENDBRANCH  11  13
ENDBRANCH   7  11
BRANCH  10  22
HETATM   22  O2  UNL     1      27.267   3.055  51.384  1.00  0.00    -0.358 OA
HETATM   23  H17 UNL     1      28.089   2.763  50.832  1.00  0.00     0.217 HD
ENDBRANCH  10  22
BRANCH   1  24
HETATM   24  O1  UNL     1      28.979   2.086  53.288  1.00  0.00    -0.353 OA
HETATM   25  C1  UNL     1      29.713   2.181  54.483  1.00  0.00     0.210 C 
ENDBRANCH   1  24
TORSDOF 4
ENDMDL
MODEL 8
REMARK VINA RESULT:      -7.6      1.487      2.834
REMARK  4 active torsions:
REMARK  status: ('A' for Active; 'I' for Inactive)
REMARK    1  A    between atoms: O1_2  and  C2_3 
REMARK    2  A    between atoms: C6_9  and  N3_10 
REMARK    3  A    between atoms: N3_10  and  C7_11 
REMARK    4  A    between atoms: C18_22  and  O2_23 
ROOT
HETATM    1  C2  UNL     1      27.140  -0.061  53.408  1.00  0.00     0.103 A 
HETATM    2  C3  UNL     1      27.534   0.885  52.485  1.00  0.00     0.072 A 
HETATM    3  C4  UNL     1      26.562   1.711  51.961  1.00  0.00     0.075 A 
HETATM    4  N1  UNL     1      26.917   2.625  51.063  1.00  0.00    -0.241 NA
HETATM    5  C5  UNL     1      26.065   3.471  50.485  1.00  0.00     0.235 A 
HETATM    6  N2  UNL     1      24.773   3.433  50.798  1.00  0.00    -0.224 NA
HETATM    7  C6  UNL     1      24.292   2.537  51.707  1.00  0.00     0.138 A 
HETATM    8  C16 UNL     1      25.219   1.687  52.271  1.00  0.00     0.041 A 
HETATM    9  C17 UNL     1      24.916   0.715  53.197  1.00  0.00     0.057 A 
HETATM   10  C18 UNL     1      25.814  -0.155  53.776  1.00  0.00     0.100 A 
ENDROOT
BRANCH   7  11
HETATM   11  N3  UNL     1      22.903   2.436  52.090  1.00  0.00    -0.368 N 
HETATM   12  H6  UNL     1      22.765   3.239  52.770  1.00  0.00     0.161 HD
BRANCH  11  13
HETATM   13  C7  UNL     1      21.618   1.867  52.074  1.00  0.00     0.098 C 
HETATM   14  C8  UNL     1      21.572   0.439  51.425  1.00  0.00     0.064 C 
HETATM   15  C9  UNL     1      20.915   0.962  50.178  1.00  0.00    -0.059 C 
HETATM   16  C10 UNL     1      19.769   1.519  50.650  1.00  0.00    -0.009 C 
HETATM   17  C15 UNL     1      21.500   0.907  48.794  1.00  0.00     0.007 C 
HETATM   18  C11 UNL     1      20.616   2.634  51.219  1.00  0.00     0.054 C 
HETATM   19  C12 UNL     1      21.211   3.507  50.187  1.00  0.00    -0.016 C 
HETATM   20  C13 UNL     1      21.613   3.440  48.891  1.00  0.00    -0.003 C 
HETATM   21  C14 UNL     1      21.665   2.127  48.177  1.00  0.00     0.000 C 
ENDBRANCH  11  13
ENDBRANCH   7  11
BRANCH  10  22
HETATM   22  O2  UNL     1      25.429  -1.112  54.707  1.00  0.00    -0.358 OA
HETATM   23  H17 UNL     1      25.584  -2.087  54.406  1.00  0.00     0.217 HD
ENDBRANCH  10  22
BRANCH   1  24
HETATM   24  O1  UNL     1      28.060  -0.921  53.973  1.00  0.00    -0.353 OA
HETATM   25  C1  UNL     1      29.440  -0.654  53.976  1.00  0.00     0.210 C 
ENDBRANCH   1  24
TORSDOF 4
ENDMDL
MODEL 9
REMARK VINA RESULT:      -7.2      3.201      4.439
REMARK  4 active torsions:
REMARK  status: ('A' for Active; 'I' for Inactive)
REMARK    1  A    between atoms: O1_2  and  C2_3 
REMARK    2  A    between atoms: C6_9  and  N3_10 
REMARK    3  A    between atoms: N3_10  and  C7_11 
REMARK    4  A    between atoms: C18_22  and  O2_23 
ROOT
HETATM    1  C2  UNL     1      25.721   5.277  49.087  1.00  0.00     0.103 A 
HETATM    2  C3  UNL     1      26.614   4.362  49.603  1.00  0.00     0.072 A 
HETATM    3  C4  UNL     1      26.111   3.355  50.399  1.00  0.00     0.075 A 
HETATM    4  N1  UNL     1      26.956   2.466  50.913  1.00  0.00    -0.241 NA
HETATM    5  C5  UNL     1      26.585   1.455  51.701  1.00  0.00     0.235 A 
HETATM    6  N2  UNL     1      25.303   1.291  52.013  1.00  0.00    -0.224 NA
HETATM    7  C6  UNL     1      24.345   2.141  51.544  1.00  0.00     0.138 A 
HETATM    8  C16 UNL     1      24.788   3.167  50.735  1.00  0.00     0.041 A 
HETATM    9  C17 UNL     1      23.969   4.124  50.180  1.00  0.00     0.057 A 
HETATM   10  C18 UNL     1      24.376   5.164  49.374  1.00  0.00     0.100 A 
ENDROOT
BRANCH   7  11
HETATM   11  N3  UNL     1      22.938   2.026  51.846  1.00  0.00    -0.368 N 
HETATM   12  H6  UNL     1      22.856   2.403  52.835  1.00  0.00     0.161 HD
BRANCH  11  13
HETATM   13  C7  UNL     1      21.601   1.691  51.569  1.00  0.00     0.098 C 
HETATM   14  C8  UNL     1      20.584   2.242  52.629  1.00  0.00     0.064 C 
HETATM   15  C9  UNL     1      20.378   0.877  53.227  1.00  0.00    -0.059 C 
HETATM   16  C10 UNL     1      19.919   0.151  52.174  1.00  0.00    -0.009 C 
HETATM   17  C15 UNL     1      20.706   0.484  54.641  1.00  0.00     0.007 C 
HETATM   18  C11 UNL     1      21.321   0.193  51.610  1.00  0.00     0.054 C 
HETATM   19  C12 UNL     1      22.291  -0.605  52.386  1.00  0.00    -0.016 C 
HETATM   20  C13 UNL     1      22.480  -1.042  53.659  1.00  0.00    -0.003 C 
HETATM   21  C14 UNL     1      21.607  -0.548  54.769  1.00  0.00     0.000 C 
ENDBRANCH  11  13
ENDBRANCH   7  11
BRANCH  10  22
HETATM   22  O2  UNL     1      23.485   6.092  48.849  1.00  0.00    -0.358 OA
HETATM   23  H17 UNL     1      23.917   6.986  48.566  1.00  0.00     0.217 HD
ENDBRANCH  10  22
BRANCH   1  24
HETATM   24  O1  UNL     1      26.155   6.311  48.283  1.00  0.00    -0.353 OA
HETATM   25  C1  UNL     1      27.462   6.822  48.350  1.00  0.00     0.210 C 
ENDBRANCH   1  24
TORSDOF 4
ENDMDL
