MODEL 1
REMARK VINA RESULT:      -8.6      0.000      0.000
REMARK  3 active torsions:
REMARK  status: ('A' for Active; 'I' for Inactive)
REMARK    1  A    between atoms: O1_2  and  C2_3 
REMARK    2  A    between atoms: C10_14  and  N3_15 
REMARK    3  A    between atoms: N3_15  and  C11_16 
ROOT
HETATM    1  C2  UNL     1      23.623  -0.475  53.544  1.00  0.00     0.070 A 
HETATM    2  C3  UNL     1      24.945  -0.858  53.466  1.00  0.00     0.037 A 
HETATM    3  C4  UNL     1      25.877  -0.002  52.923  1.00  0.00     0.014 A 
HETATM    4  C5  UNL     1      25.533   1.266  52.439  1.00  0.00    -0.006 A 
HETATM    5  C6  UNL     1      24.178   1.607  52.541  1.00  0.00     0.088 A 
HETATM    6  C7  UNL     1      23.233   0.767  53.080  1.00  0.00     0.074 A 
HETATM    7  O2  UNL     1      23.689   2.853  52.091  1.00  0.00    -0.289 OA
HETATM    8  C8  UNL     1      24.206   3.598  51.005  1.00  0.00     0.202 A 
HETATM    9  N1  UNL     1      23.232   4.238  50.312  1.00  0.00    -0.215 NA
HETATM   10  C9  UNL     1      23.595   4.979  49.254  1.00  0.00     0.238 A 
HETATM   11  N2  UNL     1      24.872   5.058  48.927  1.00  0.00    -0.222 NA
HETATM   12  C10 UNL     1      25.905   4.473  49.534  1.00  0.00     0.160 A 
HETATM   13  C17 UNL     1      25.537   3.715  50.618  1.00  0.00     0.129 A 
HETATM   14  N4  UNL     1      26.640   3.107  51.278  1.00  0.00    -0.379 N 
HETATM   15  C18 UNL     1      26.788   1.837  51.958  1.00  0.00     0.161 C 
HETATM   16  H13 UNL     1      27.481   3.761  51.229  1.00  0.00     0.160 HD
ENDROOT
BRANCH  12  17
HETATM   17  N3  UNL     1      27.258   4.587  49.137  1.00  0.00    -0.339 N 
HETATM   18  H8  UNL     1      28.028   3.905  49.231  1.00  0.00     0.167 HD
BRANCH  17  19
HETATM   19  C11 UNL     1      27.858   5.690  48.480  1.00  0.00     0.035 A 
HETATM   20  C12 UNL     1      27.267   6.895  48.117  1.00  0.00     0.029 A 
HETATM   21  C13 UNL     1      27.878   7.933  47.501  1.00  0.00     0.004 A 
HETATM   22  C14 UNL     1      29.205   7.835  47.185  1.00  0.00     0.019 A 
HETATM   23  C15 UNL     1      29.843   6.660  47.523  1.00  0.00     0.013 A 
HETATM   24 BR1  UNL     1      31.707   6.604  47.043  1.00  0.00    -0.051 Br
HETATM   25  C16 UNL     1      29.192   5.621  48.150  1.00  0.00     0.048 A 
ENDBRANCH  17  19
ENDBRANCH  12  17
BRANCH   1  26
HETATM   26  O1  UNL     1      22.566  -1.228  54.065  1.00  0.00    -0.356 OA
HETATM   27  C1  UNL     1      21.541  -0.482  54.713  1.00  0.00     0.210 C 
ENDBRANCH   1  26
TORSDOF 3
ENDMDL
MODEL 2
REMARK VINA RESULT:      -8.5      3.046      7.589
REMARK  3 active torsions:
REMARK  status: ('A' for Active; 'I' for Inactive)
REMARK    1  A    between atoms: O1_2  and  C2_3 
REMARK    2  A    between atoms: C10_14  and  N3_15 
REMARK    3  A    between atoms: N3_15  and  C11_16 
ROOT
HETATM    1  C2  UNL     1      27.910   7.476  48.427  1.00  0.00     0.070 A 
HETATM    2  C3  UNL     1      28.664   6.334  48.256  1.00  0.00     0.037 A 
HETATM    3  C4  UNL     1      28.120   5.103  48.544  1.00  0.00     0.014 A 
HETATM    4  C5  UNL     1      26.808   4.957  49.012  1.00  0.00    -0.006 A 
HETATM    5  C6  UNL     1      26.085   6.147  49.170  1.00  0.00     0.088 A 
HETATM    6  C7  UNL     1      26.610   7.385  48.887  1.00  0.00     0.074 A 
HETATM    7  O2  UNL     1      24.752   6.149  49.635  1.00  0.00    -0.289 OA
HETATM    8  C8  UNL     1      24.194   5.221  50.546  1.00  0.00     0.202 A 
HETATM    9  N1  UNL     1      23.299   5.799  51.384  1.00  0.00    -0.215 NA
HETATM   10  C9  UNL     1      22.701   5.022  52.299  1.00  0.00     0.238 A 
HETATM   11  N2  UNL     1      23.000   3.737  52.351  1.00  0.00    -0.222 NA
HETATM   12  C10 UNL     1      23.860   3.070  51.582  1.00  0.00     0.160 A 
HETATM   13  C17 UNL     1      24.474   3.862  50.644  1.00  0.00     0.129 A 
HETATM   14  N4  UNL     1      25.376   3.147  49.809  1.00  0.00    -0.379 N 
HETATM   15  C18 UNL     1      26.631   3.519  49.190  1.00  0.00     0.161 C 
HETATM   16  H13 UNL     1      24.998   2.164  49.645  1.00  0.00     0.160 HD
ENDROOT
BRANCH  12  17
HETATM   17  N3  UNL     1      24.149   1.688  51.685  1.00  0.00    -0.339 N 
HETATM   18  H8  UNL     1      23.859   0.910  51.071  1.00  0.00     0.167 HD
BRANCH  17  19
HETATM   19  C11 UNL     1      24.944   1.061  52.676  1.00  0.00     0.035 A 
HETATM   20  C12 UNL     1      24.586   0.027  53.533  1.00  0.00     0.029 A 
HETATM   21  C13 UNL     1      25.379  -0.557  54.461  1.00  0.00     0.004 A 
HETATM   22  C14 UNL     1      26.668  -0.121  54.606  1.00  0.00     0.019 A 
HETATM   23  C15 UNL     1      27.078   0.905  53.781  1.00  0.00     0.013 A 
HETATM   24 BR1  UNL     1      28.902   1.459  54.052  1.00  0.00    -0.051 Br
HETATM   25  C16 UNL     1      26.244   1.478  52.846  1.00  0.00     0.048 A 
ENDBRANCH  17  19
ENDBRANCH  12  17
BRANCH   1  26
HETATM   26  O1  UNL     1      28.319   8.790  48.181  1.00  0.00    -0.356 OA
HETATM   27  C1  UNL     1      29.408   9.254  48.972  1.00  0.00     0.210 C 
ENDBRANCH   1  26
TORSDOF 3
ENDMDL
MODEL 3
REMARK VINA RESULT:      -8.4      6.523      9.869
REMARK  3 active torsions:
REMARK  status: ('A' for Active; 'I' for Inactive)
REMARK    1  A    between atoms: O1_2  and  C2_3 
REMARK    2  A    between atoms: C10_14  and  N3_15 
REMARK    3  A    between atoms: N3_15  and  C11_16 
ROOT
HETATM    1  C2  UNL     1      26.632   0.819  54.215  1.00  0.00     0.070 A 
HETATM    2  C3  UNL     1      26.340  -0.099  55.201  1.00  0.00     0.037 A 
HETATM    3  C4  UNL     1      25.119  -0.735  55.206  1.00  0.00     0.014 A 
HETATM    4  C5  UNL     1      24.143  -0.485  54.234  1.00  0.00    -0.006 A 
HETATM    5  C6  UNL     1      24.489   0.456  53.255  1.00  0.00     0.088 A 
HETATM    6  C7  UNL     1      25.702   1.101  53.233  1.00  0.00     0.074 A 
HETATM    7  O2  UNL     1      23.601   0.807  52.215  1.00  0.00    -0.289 OA
HETATM    8  C8  UNL     1      22.189   0.831  52.308  1.00  0.00     0.202 A 
HETATM    9  N1  UNL     1      21.645   1.845  51.591  1.00  0.00    -0.215 NA
HETATM   10  C9  UNL     1      20.310   1.976  51.601  1.00  0.00     0.238 A 
HETATM   11  N2  UNL     1      19.581   1.125  52.300  1.00  0.00    -0.222 NA
HETATM   12  C10 UNL     1      20.010   0.099  53.036  1.00  0.00     0.160 A 
HETATM   13  C17 UNL     1      21.376  -0.038  53.028  1.00  0.00     0.129 A 
HETATM   14  N4  UNL     1      21.833  -1.144  53.796  1.00  0.00    -0.379 N 
HETATM   15  C18 UNL     1      23.021  -1.347  54.597  1.00  0.00     0.161 C 
HETATM   16  H13 UNL     1      21.124  -1.937  53.724  1.00  0.00     0.160 HD
ENDROOT
BRANCH  12  17
HETATM   17  N3  UNL     1      19.182  -0.781  53.772  1.00  0.00    -0.339 N 
HETATM   18  H8  UNL     1      19.270  -1.097  54.751  1.00  0.00     0.167 HD
BRANCH  17  19
HETATM   19  C11 UNL     1      18.003  -1.419  53.312  1.00  0.00     0.035 A 
HETATM   20  C12 UNL     1      17.016  -0.898  52.485  1.00  0.00     0.029 A 
HETATM   21  C13 UNL     1      15.907  -1.543  52.056  1.00  0.00     0.004 A 
HETATM   22  C14 UNL     1      15.693  -2.836  52.448  1.00  0.00     0.019 A 
HETATM   23  C15 UNL     1      16.642  -3.405  53.272  1.00  0.00     0.013 A 
HETATM   24 BR1  UNL     1      16.265  -5.224  53.778  1.00  0.00    -0.051 Br
HETATM   25  C16 UNL     1      17.761  -2.719  53.691  1.00  0.00     0.048 A 
ENDBRANCH  17  19
ENDBRANCH  12  17
BRANCH   1  26
HETATM   26  O1  UNL     1      27.821   1.544  54.077  1.00  0.00    -0.356 OA
HETATM   27  C1  UNL     1      29.018   0.776  54.128  1.00  0.00     0.210 C 
ENDBRANCH   1  26
TORSDOF 3
ENDMDL
MODEL 4
REMARK VINA RESULT:      -8.2      2.010      2.583
REMARK  3 active torsions:
REMARK  status: ('A' for Active; 'I' for Inactive)
REMARK    1  A    between atoms: O1_2  and  C2_3 
REMARK    2  A    between atoms: C10_14  and  N3_15 
REMARK    3  A    between atoms: N3_15  and  C11_16 
ROOT
HETATM    1  C2  UNL     1      22.655  -0.508  53.246  1.00  0.00     0.070 A 
HETATM    2  C3  UNL     1      24.008  -0.353  53.461  1.00  0.00     0.037 A 
HETATM    3  C4  UNL     1      24.582   0.893  53.351  1.00  0.00     0.014 A 
HETATM    4  C5  UNL     1      23.836   2.033  53.025  1.00  0.00    -0.006 A 
HETATM    5  C6  UNL     1      22.466   1.821  52.816  1.00  0.00     0.088 A 
HETATM    6  C7  UNL     1      21.875   0.585  52.921  1.00  0.00     0.074 A 
HETATM    7  O2  UNL     1      21.594   2.880  52.480  1.00  0.00    -0.289 OA
HETATM    8  C8  UNL     1      21.940   4.025  51.724  1.00  0.00     0.202 A 
HETATM    9  N1  UNL     1      20.928   4.433  50.919  1.00  0.00    -0.215 NA
HETATM   10  C9  UNL     1      21.133   5.511  50.148  1.00  0.00     0.238 A 
HETATM   11  N2  UNL     1      22.299   6.130  50.198  1.00  0.00    -0.222 NA
HETATM   12  C10 UNL     1      23.356   5.816  50.948  1.00  0.00     0.160 A 
HETATM   13  C17 UNL     1      23.149   4.713  51.739  1.00  0.00     0.129 A 
HETATM   14  N4  UNL     1      24.267   4.389  52.554  1.00  0.00    -0.379 N 
HETATM   15  C18 UNL     1      24.804   3.125  53.011  1.00  0.00     0.161 C 
HETATM   16  H13 UNL     1      24.757   5.289  52.851  1.00  0.00     0.160 HD
ENDROOT
BRANCH  12  17
HETATM   17  N3  UNL     1      24.587   6.513  50.958  1.00  0.00    -0.339 N 
HETATM   18  H8  UNL     1      24.930   7.227  51.620  1.00  0.00     0.167 HD
BRANCH  17  19
HETATM   19  C11 UNL     1      25.658   6.353  50.044  1.00  0.00     0.035 A 
HETATM   20  C12 UNL     1      26.146   5.174  49.495  1.00  0.00     0.029 A 
HETATM   21  C13 UNL     1      27.166   5.062  48.613  1.00  0.00     0.004 A 
HETATM   22  C14 UNL     1      27.810   6.193  48.190  1.00  0.00     0.019 A 
HETATM   23  C15 UNL     1      27.367   7.394  48.704  1.00  0.00     0.013 A 
HETATM   24 BR1  UNL     1      28.326   8.934  48.059  1.00  0.00    -0.051 Br
HETATM   25  C16 UNL     1      26.324   7.472  49.601  1.00  0.00     0.048 A 
ENDBRANCH  17  19
ENDBRANCH  12  17
BRANCH   1  26
HETATM   26  O1  UNL     1      21.930  -1.703  53.319  1.00  0.00    -0.356 OA
HETATM   27  C1  UNL     1      20.838  -1.704  54.231  1.00  0.00     0.210 C 
ENDBRANCH   1  26
TORSDOF 3
ENDMDL
MODEL 5
REMARK VINA RESULT:      -8.1      5.225      7.186
REMARK  3 active torsions:
REMARK  status: ('A' for Active; 'I' for Inactive)
REMARK    1  A    between atoms: O1_2  and  C2_3 
REMARK    2  A    between atoms: C10_14  and  N3_15 
REMARK    3  A    between atoms: N3_15  and  C11_16 
ROOT
HETATM    1  C2  UNL     1      27.404  -0.713  53.209  1.00  0.00     0.070 A 
HETATM    2  C3  UNL     1      27.370   0.342  52.322  1.00  0.00     0.037 A 
HETATM    3  C4  UNL     1      26.211   1.066  52.161  1.00  0.00     0.014 A 
HETATM    4  C5  UNL     1      25.042   0.773  52.874  1.00  0.00    -0.006 A 
HETATM    5  C6  UNL     1      25.128  -0.307  53.761  1.00  0.00     0.088 A 
HETATM    6  C7  UNL     1      26.276  -1.042  53.936  1.00  0.00     0.074 A 
HETATM    7  O2  UNL     1      24.026  -0.715  54.544  1.00  0.00    -0.289 OA
HETATM    8  C8  UNL     1      22.666  -0.618  54.167  1.00  0.00     0.202 A 
HETATM    9  N1  UNL     1      21.933  -1.668  54.613  1.00  0.00    -0.215 NA
HETATM   10  C9  UNL     1      20.625  -1.693  54.318  1.00  0.00     0.238 A 
HETATM   11  N2  UNL     1      20.102  -0.706  53.613  1.00  0.00    -0.222 NA
HETATM   12  C10 UNL     1      20.726   0.367  53.127  1.00  0.00     0.160 A 
HETATM   13  C17 UNL     1      22.065   0.396  53.427  1.00  0.00     0.129 A 
HETATM   14  N4  UNL     1      22.727   1.549  52.927  1.00  0.00    -0.379 N 
HETATM   15  C18 UNL     1      24.066   1.758  52.416  1.00  0.00     0.161 C 
HETATM   16  H13 UNL     1      22.060   2.381  52.965  1.00  0.00     0.160 HD
ENDROOT
BRANCH  12  17
HETATM   17  N3  UNL     1      20.116   1.394  52.369  1.00  0.00    -0.339 N 
HETATM   18  H8  UNL     1      19.406   2.087  52.657  1.00  0.00     0.167 HD
BRANCH  17  19
HETATM   19  C11 UNL     1      20.377   1.717  51.014  1.00  0.00     0.035 A 
HETATM   20  C12 UNL     1      20.885   0.889  50.020  1.00  0.00     0.029 A 
HETATM   21  C13 UNL     1      21.110   1.230  48.730  1.00  0.00     0.004 A 
HETATM   22  C14 UNL     1      20.823   2.502  48.317  1.00  0.00     0.019 A 
HETATM   23  C15 UNL     1      20.316   3.368  49.263  1.00  0.00     0.013 A 
HETATM   24 BR1  UNL     1      19.942   5.136  48.599  1.00  0.00    -0.051 Br
HETATM   25  C16 UNL     1      20.099   2.988  50.569  1.00  0.00     0.048 A 
ENDBRANCH  17  19
ENDBRANCH  12  17
BRANCH   1  26
HETATM   26  O1  UNL     1      28.499  -1.539  53.481  1.00  0.00    -0.356 OA
HETATM   27  C1  UNL     1      29.728  -0.867  53.736  1.00  0.00     0.210 C 
ENDBRANCH   1  26
TORSDOF 3
ENDMDL
MODEL 6
REMARK VINA RESULT:      -8.1      5.374      8.221
REMARK  3 active torsions:
REMARK  status: ('A' for Active; 'I' for Inactive)
REMARK    1  A    between atoms: O1_2  and  C2_3 
REMARK    2  A    between atoms: C10_14  and  N3_15 
REMARK    3  A    between atoms: N3_15  and  C11_16 
ROOT
HETATM    1  C2  UNL     1      27.960   0.495  53.611  1.00  0.00     0.070 A 
HETATM    2  C3  UNL     1      27.293  -0.129  54.643  1.00  0.00     0.037 A 
HETATM    3  C4  UNL     1      25.922  -0.245  54.603  1.00  0.00     0.014 A 
HETATM    4  C5  UNL     1      25.161   0.252  53.537  1.00  0.00    -0.006 A 
HETATM    5  C6  UNL     1      25.887   0.877  52.514  1.00  0.00     0.088 A 
HETATM    6  C7  UNL     1      27.255   1.002  52.536  1.00  0.00     0.074 A 
HETATM    7  O2  UNL     1      25.250   1.425  51.379  1.00  0.00    -0.289 OA
HETATM    8  C8  UNL     1      23.956   1.997  51.356  1.00  0.00     0.202 A 
HETATM    9  N1  UNL     1      23.879   3.057  50.515  1.00  0.00    -0.215 NA
HETATM   10  C9  UNL     1      22.701   3.689  50.405  1.00  0.00     0.238 A 
HETATM   11  N2  UNL     1      21.669   3.263  51.111  1.00  0.00    -0.222 NA
HETATM   12  C10 UNL     1      21.635   2.238  51.963  1.00  0.00     0.160 A 
HETATM   13  C17 UNL     1      22.839   1.589  52.078  1.00  0.00     0.129 A 
HETATM   14  N4  UNL     1      22.797   0.483  52.970  1.00  0.00    -0.379 N 
HETATM   15  C18 UNL     1      23.779  -0.070  53.879  1.00  0.00     0.161 C 
HETATM   16  H13 UNL     1      21.840   0.018  52.908  1.00  0.00     0.160 HD
ENDROOT
BRANCH  12  17
HETATM   17  N3  UNL     1      20.500   1.827  52.702  1.00  0.00    -0.339 N 
HETATM   18  H8  UNL     1      20.215   2.082  53.661  1.00  0.00     0.167 HD
BRANCH  17  19
HETATM   19  C11 UNL     1      19.465   0.967  52.256  1.00  0.00     0.035 A 
HETATM   20  C12 UNL     1      18.674   1.098  51.121  1.00  0.00     0.029 A 
HETATM   21  C13 UNL     1      17.701   0.248  50.720  1.00  0.00     0.004 A 
HETATM   22  C14 UNL     1      17.434  -0.863  51.473  1.00  0.00     0.019 A 
HETATM   23  C15 UNL     1      18.189  -1.044  52.612  1.00  0.00     0.013 A 
HETATM   24 BR1  UNL     1      17.749  -2.628  53.613  1.00  0.00    -0.051 Br
HETATM   25  C16 UNL     1      19.174  -0.157  52.992  1.00  0.00     0.048 A 
ENDBRANCH  17  19
ENDBRANCH  12  17
BRANCH   1  26
HETATM   26  O1  UNL     1      29.342   0.690  53.508  1.00  0.00    -0.356 OA
HETATM   27  C1  UNL     1      30.135  -0.490  53.571  1.00  0.00     0.210 C 
ENDBRANCH   1  26
TORSDOF 3
ENDMDL
MODEL 7
REMARK VINA RESULT:      -8.1      3.159      4.938
REMARK  3 active torsions:
REMARK  status: ('A' for Active; 'I' for Inactive)
REMARK    1  A    between atoms: O1_2  and  C2_3 
REMARK    2  A    between atoms: C10_14  and  N3_15 
REMARK    3  A    between atoms: N3_15  and  C11_16 
ROOT
HETATM    1  C2  UNL     1      26.467   0.033  53.933  1.00  0.00     0.070 A 
HETATM    2  C3  UNL     1      25.102  -0.079  54.087  1.00  0.00     0.037 A 
HETATM    3  C4  UNL     1      24.258   0.481  53.155  1.00  0.00     0.014 A 
HETATM    4  C5  UNL     1      24.735   1.172  52.035  1.00  0.00    -0.006 A 
HETATM    5  C6  UNL     1      26.129   1.259  51.925  1.00  0.00     0.088 A 
HETATM    6  C7  UNL     1      26.988   0.706  52.844  1.00  0.00     0.074 A 
HETATM    7  O2  UNL     1      26.749   1.928  50.847  1.00  0.00    -0.289 OA
HETATM    8  C8  UNL     1      26.225   3.050  50.162  1.00  0.00     0.202 A 
HETATM    9  N1  UNL     1      27.194   3.922  49.790  1.00  0.00    -0.215 NA
HETATM   10  C9  UNL     1      26.823   5.031  49.133  1.00  0.00     0.238 A 
HETATM   11  N2  UNL     1      25.544   5.233  48.874  1.00  0.00    -0.222 NA
HETATM   12  C10 UNL     1      24.516   4.447  49.192  1.00  0.00     0.160 A 
HETATM   13  C17 UNL     1      24.891   3.311  49.864  1.00  0.00     0.129 A 
HETATM   14  N4  UNL     1      23.797   2.462  50.185  1.00  0.00    -0.379 N 
HETATM   15  C18 UNL     1      23.536   1.598  51.317  1.00  0.00     0.161 C 
HETATM   16  H13 UNL     1      23.071   2.516  49.407  1.00  0.00     0.160 HD
ENDROOT
BRANCH  12  17
HETATM   17  N3  UNL     1      23.159   4.715  48.894  1.00  0.00    -0.339 N 
HETATM   18  H8  UNL     1      22.376   4.925  49.534  1.00  0.00     0.167 HD
BRANCH  17  19
HETATM   19  C11 UNL     1      22.571   4.780  47.606  1.00  0.00     0.035 A 
HETATM   20  C12 UNL     1      21.964   3.754  46.890  1.00  0.00     0.029 A 
HETATM   21  C13 UNL     1      21.401   3.857  45.665  1.00  0.00     0.004 A 
HETATM   22  C14 UNL     1      21.404   5.068  45.028  1.00  0.00     0.019 A 
HETATM   23  C15 UNL     1      21.994   6.123  45.692  1.00  0.00     0.013 A 
HETATM   24 BR1  UNL     1      21.956   7.788  44.728  1.00  0.00    -0.051 Br
HETATM   25  C16 UNL     1      22.559   5.984  46.941  1.00  0.00     0.048 A 
ENDBRANCH  17  19
ENDBRANCH  12  17
BRANCH   1  26
HETATM   26  O1  UNL     1      27.449  -0.477  54.789  1.00  0.00    -0.356 OA
HETATM   27  C1  UNL     1      28.686   0.227  54.794  1.00  0.00     0.210 C 
ENDBRANCH   1  26
TORSDOF 3
ENDMDL
MODEL 8
REMARK VINA RESULT:      -8.1      5.800      9.039
REMARK  3 active torsions:
REMARK  status: ('A' for Active; 'I' for Inactive)
REMARK    1  A    between atoms: O1_2  and  C2_3 
REMARK    2  A    between atoms: C10_14  and  N3_15 
REMARK    3  A    between atoms: N3_15  and  C11_16 
ROOT
HETATM    1  C2  UNL     1      26.732   1.492  54.029  1.00  0.00     0.070 A 
HETATM    2  C3  UNL     1      26.523   0.216  54.508  1.00  0.00     0.037 A 
HETATM    3  C4  UNL     1      25.337  -0.431  54.243  1.00  0.00     0.014 A 
HETATM    4  C5  UNL     1      24.315   0.161  53.492  1.00  0.00    -0.006 A 
HETATM    5  C6  UNL     1      24.577   1.457  53.028  1.00  0.00     0.088 A 
HETATM    6  C7  UNL     1      25.754   2.120  53.282  1.00  0.00     0.074 A 
HETATM    7  O2  UNL     1      23.635   2.176  52.258  1.00  0.00    -0.289 OA
HETATM    8  C8  UNL     1      22.228   2.068  52.367  1.00  0.00     0.202 A 
HETATM    9  N1  UNL     1      21.607   3.258  52.178  1.00  0.00    -0.215 NA
HETATM   10  C9  UNL     1      20.268   3.289  52.258  1.00  0.00     0.238 A 
HETATM   11  N2  UNL     1      19.610   2.173  52.514  1.00  0.00    -0.222 NA
HETATM   12  C10 UNL     1      20.117   0.957  52.716  1.00  0.00     0.160 A 
HETATM   13  C17 UNL     1      21.487   0.922  52.635  1.00  0.00     0.129 A 
HETATM   14  N4  UNL     1      22.027  -0.378  52.829  1.00  0.00    -0.379 N 
HETATM   15  C18 UNL     1      23.253  -0.840  53.447  1.00  0.00     0.161 C 
HETATM   16  H13 UNL     1      21.358  -1.101  52.421  1.00  0.00     0.160 HD
ENDROOT
BRANCH  12  17
HETATM   17  N3  UNL     1      19.363  -0.207  52.995  1.00  0.00    -0.339 N 
HETATM   18  H8  UNL     1      19.558  -0.970  53.663  1.00  0.00     0.167 HD
BRANCH  17  19
HETATM   19  C11 UNL     1      18.124  -0.574  52.412  1.00  0.00     0.035 A 
HETATM   20  C12 UNL     1      17.179  -1.467  52.902  1.00  0.00     0.029 A 
HETATM   21  C13 UNL     1      15.998  -1.783  52.322  1.00  0.00     0.004 A 
HETATM   22  C14 UNL     1      15.658  -1.191  51.136  1.00  0.00     0.019 A 
HETATM   23  C15 UNL     1      16.560  -0.296  50.602  1.00  0.00     0.013 A 
HETATM   24 BR1  UNL     1      16.005   0.490  48.934  1.00  0.00    -0.051 Br
HETATM   25  C16 UNL     1      17.755   0.004  51.220  1.00  0.00     0.048 A 
ENDBRANCH  17  19
ENDBRANCH  12  17
BRANCH   1  26
HETATM   26  O1  UNL     1      27.876   2.275  54.213  1.00  0.00    -0.356 OA
HETATM   27  C1  UNL     1      29.117   1.601  54.037  1.00  0.00     0.210 C 
ENDBRANCH   1  26
TORSDOF 3
ENDMDL
MODEL 9
REMARK VINA RESULT:      -8.0      4.947      7.095
REMARK  3 active torsions:
REMARK  status: ('A' for Active; 'I' for Inactive)
REMARK    1  A    between atoms: O1_2  and  C2_3 
REMARK    2  A    between atoms: C10_14  and  N3_15 
REMARK    3  A    between atoms: N3_15  and  C11_16 
ROOT
HETATM    1  C2  UNL     1      16.616  -0.926  51.682  1.00  0.00     0.070 A 
HETATM    2  C3  UNL     1      16.945  -1.714  52.764  1.00  0.00     0.037 A 
HETATM    3  C4  UNL     1      18.133  -1.507  53.428  1.00  0.00     0.014 A 
HETATM    4  C5  UNL     1      19.038  -0.510  53.045  1.00  0.00    -0.006 A 
HETATM    5  C6  UNL     1      18.657   0.263  51.940  1.00  0.00     0.088 A 
HETATM    6  C7  UNL     1      17.476   0.072  51.265  1.00  0.00     0.074 A 
HETATM    7  O2  UNL     1      19.474   1.303  51.444  1.00  0.00    -0.289 OA
HETATM    8  C8  UNL     1      20.888   1.329  51.479  1.00  0.00     0.202 A 
HETATM    9  N1  UNL     1      21.418   1.910  50.374  1.00  0.00    -0.215 NA
HETATM   10  C9  UNL     1      22.754   1.994  50.287  1.00  0.00     0.238 A 
HETATM   11  N2  UNL     1      23.498   1.513  51.267  1.00  0.00    -0.222 NA
HETATM   12  C10 UNL     1      23.084   0.925  52.390  1.00  0.00     0.160 A 
HETATM   13  C17 UNL     1      21.717   0.839  52.483  1.00  0.00     0.129 A 
HETATM   14  N4  UNL     1      21.275   0.230  53.688  1.00  0.00    -0.379 N 
HETATM   15  C18 UNL     1      20.146  -0.625  53.990  1.00  0.00     0.161 C 
HETATM   16  H13 UNL     1      21.939   0.495  54.479  1.00  0.00     0.160 HD
ENDROOT
BRANCH  12  17
HETATM   17  N3  UNL     1      23.928   0.422  53.407  1.00  0.00    -0.339 N 
HETATM   18  H8  UNL     1      23.696   0.151  54.377  1.00  0.00     0.167 HD
BRANCH  17  19
HETATM   19  C11 UNL     1      25.315   0.149  53.301  1.00  0.00     0.035 A 
HETATM   20  C12 UNL     1      25.928  -1.055  52.977  1.00  0.00     0.029 A 
HETATM   21  C13 UNL     1      27.258  -1.274  52.872  1.00  0.00     0.004 A 
HETATM   22  C14 UNL     1      28.125  -0.240  53.098  1.00  0.00     0.019 A 
HETATM   23  C15 UNL     1      27.571   0.981  53.423  1.00  0.00     0.013 A 
HETATM   24 BR1  UNL     1      28.858   2.380  53.725  1.00  0.00    -0.051 Br
HETATM   25  C16 UNL     1      26.210   1.170  53.522  1.00  0.00     0.048 A 
ENDBRANCH  17  19
ENDBRANCH  12  17
BRANCH   1  26
HETATM   26  O1  UNL     1      15.454  -1.014  50.909  1.00  0.00    -0.356 OA
HETATM   27  C1  UNL     1      15.511  -0.374  49.638  1.00  0.00     0.210 C 
ENDBRANCH   1  26
TORSDOF 3
ENDMDL
