MODEL 1
REMARK VINA RESULT:      -9.2      0.000      0.000
REMARK  4 active torsions:
REMARK  status: ('A' for Active; 'I' for Inactive)
REMARK    1  A    between atoms: C13_14  and  C14_15 
REMARK    2  A    between atoms: C14_15  and  C15_16 
REMARK    3  A    between atoms: C15_16  and  C16_17 
REMARK    4  A    between atoms: C16_17  and  O2_18 
ROOT
HETATM    1  O1  UNL     1      20.291   3.270  52.729  1.00  0.00    -0.268 OA
HETATM    2  C1  UNL     1      21.315   3.260  51.995  1.00  0.00     0.246 C 
HETATM    3  C2  UNL     1      21.215   3.969  50.688  1.00  0.00     0.078 C 
HETATM    4  C3  UNL     1      22.270   4.620  50.204  1.00  0.00    -0.057 C 
HETATM    5  C4  UNL     1      22.244   5.353  48.879  1.00  0.00     0.040 C 
HETATM    6  C5  UNL     1      23.773   5.151  48.604  1.00  0.00     0.040 C 
HETATM    7  C6  UNL     1      24.241   5.874  49.821  1.00  0.00    -0.066 C 
HETATM    8  C7  UNL     1      24.728   6.579  50.862  1.00  0.00    -0.021 C 
HETATM    9  C8  UNL     1      23.775   5.880  51.727  1.00  0.00     0.051 C 
HETATM   10  C9  UNL     1      23.610   4.845  50.685  1.00  0.00     0.039 C 
HETATM   11  C10 UNL     1      24.381   3.604  50.958  1.00  0.00    -0.014 A 
HETATM   12  C11 UNL     1      25.643   3.386  50.453  1.00  0.00     0.011 A 
HETATM   13  C12 UNL     1      26.292   2.218  50.788  1.00  0.00     0.008 A 
HETATM   14  C13 UNL     1      25.770   1.233  51.600  1.00  0.00    -0.055 A 
HETATM   15  C22 UNL     1      24.510   1.471  52.095  1.00  0.00     0.037 A 
HETATM   16  C23 UNL     1      23.806   2.630  51.792  1.00  0.00     0.043 A 
HETATM   17  N1  UNL     1      22.511   2.568  52.459  1.00  0.00    -0.323 N 
HETATM   18  H23 UNL     1      22.403   1.990  53.328  1.00  0.00     0.169 HD
ENDROOT
BRANCH  14  19
HETATM   19  C14 UNL     1      26.654   0.076  51.835  1.00  0.00     0.054 C 
BRANCH  19  20
HETATM   20  C15 UNL     1      27.263  -0.024  53.189  1.00  0.00     0.006 A 
HETATM   21  C17 UNL     1      28.055  -1.297  53.204  1.00  0.00    -0.014 A 
HETATM   22  C18 UNL     1      29.319  -1.602  53.382  1.00  0.00    -0.003 A 
HETATM   23  C19 UNL     1      30.188  -0.463  53.625  1.00  0.00    -0.004 A 
HETATM   24  C20 UNL     1      29.609   0.723  53.636  1.00  0.00    -0.026 A 
HETATM   25  C21 UNL     1      28.187   1.133  53.439  1.00  0.00     0.043 A 
BRANCH  20  26
HETATM   26  C16 UNL     1      26.220  -0.058  54.291  1.00  0.00     0.178 C 
BRANCH  26  27
HETATM   27  O2  UNL     1      26.614   0.805  55.308  1.00  0.00    -0.400 OA
HETATM   28  H15 UNL     1      26.528   0.426  56.211  1.00  0.00     0.209 HD
ENDBRANCH  26  27
ENDBRANCH  20  26
ENDBRANCH  19  20
ENDBRANCH  14  19
TORSDOF 4
ENDMDL
MODEL 2
REMARK VINA RESULT:      -9.1      2.193      3.181
REMARK  4 active torsions:
REMARK  status: ('A' for Active; 'I' for Inactive)
REMARK    1  A    between atoms: C13_14  and  C14_15 
REMARK    2  A    between atoms: C14_15  and  C15_16 
REMARK    3  A    between atoms: C15_16  and  C16_17 
REMARK    4  A    between atoms: C16_17  and  O2_18 
ROOT
HETATM    1  O1  UNL     1      27.518   5.615  48.225  1.00  0.00    -0.268 OA
HETATM    2  C1  UNL     1      26.748   5.160  49.112  1.00  0.00     0.246 C 
HETATM    3  C2  UNL     1      25.849   6.137  49.790  1.00  0.00     0.078 C 
HETATM    4  C3  UNL     1      24.620   5.771  50.145  1.00  0.00    -0.057 C 
HETATM    5  C4  UNL     1      23.657   6.706  50.845  1.00  0.00     0.040 C 
HETATM    6  C5  UNL     1      22.903   5.556  51.597  1.00  0.00     0.040 C 
HETATM    7  C6  UNL     1      22.453   4.843  50.368  1.00  0.00    -0.066 C 
HETATM    8  C7  UNL     1      21.954   4.195  49.296  1.00  0.00    -0.021 C 
HETATM    9  C8  UNL     1      23.282   4.276  48.681  1.00  0.00     0.051 C 
HETATM   10  C9  UNL     1      23.864   4.551  50.011  1.00  0.00     0.039 C 
HETATM   11  C10 UNL     1      24.503   3.362  50.635  1.00  0.00    -0.014 A 
HETATM   12  C11 UNL     1      23.836   2.532  51.507  1.00  0.00     0.011 A 
HETATM   13  C12 UNL     1      24.502   1.435  52.009  1.00  0.00     0.008 A 
HETATM   14  C13 UNL     1      25.804   1.097  51.703  1.00  0.00    -0.055 A 
HETATM   15  C22 UNL     1      26.450   1.938  50.828  1.00  0.00     0.037 A 
HETATM   16  C23 UNL     1      25.831   3.059  50.291  1.00  0.00     0.043 A 
HETATM   17  N1  UNL     1      26.784   3.736  49.419  1.00  0.00    -0.323 N 
HETATM   18  H23 UNL     1      27.560   3.186  48.975  1.00  0.00     0.169 HD
ENDROOT
BRANCH  14  19
HETATM   19  C14 UNL     1      26.303  -0.133  52.345  1.00  0.00     0.054 C 
BRANCH  19  20
HETATM   20  C15 UNL     1      27.111   0.050  53.581  1.00  0.00     0.006 A 
HETATM   21  C17 UNL     1      28.106  -1.072  53.607  1.00  0.00    -0.014 A 
HETATM   22  C18 UNL     1      29.416  -1.151  53.605  1.00  0.00    -0.003 A 
HETATM   23  C19 UNL     1      30.100   0.130  53.570  1.00  0.00    -0.004 A 
HETATM   24  C20 UNL     1      29.332   1.203  53.543  1.00  0.00    -0.026 A 
HETATM   25  C21 UNL     1      27.847   1.358  53.542  1.00  0.00     0.043 A 
BRANCH  20  26
HETATM   26  C16 UNL     1      26.262   0.009  54.838  1.00  0.00     0.178 C 
BRANCH  26  27
HETATM   27  O2  UNL     1      25.451  -1.120  54.795  1.00  0.00    -0.400 OA
HETATM   28  H15 UNL     1      24.531  -0.965  55.105  1.00  0.00     0.209 HD
ENDBRANCH  26  27
ENDBRANCH  20  26
ENDBRANCH  19  20
ENDBRANCH  14  19
TORSDOF 4
ENDMDL
MODEL 3
REMARK VINA RESULT:      -9.0      1.731      2.293
REMARK  4 active torsions:
REMARK  status: ('A' for Active; 'I' for Inactive)
REMARK    1  A    between atoms: C13_14  and  C14_15 
REMARK    2  A    between atoms: C14_15  and  C15_16 
REMARK    3  A    between atoms: C15_16  and  C16_17 
REMARK    4  A    between atoms: C16_17  and  O2_18 
ROOT
HETATM    1  O1  UNL     1      20.190   0.546  53.101  1.00  0.00    -0.268 OA
HETATM    2  C1  UNL     1      21.171   0.780  52.346  1.00  0.00     0.246 C 
HETATM    3  C2  UNL     1      20.943   0.633  50.880  1.00  0.00     0.078 C 
HETATM    4  C3  UNL     1      21.548   1.459  50.029  1.00  0.00    -0.057 C 
HETATM    5  C4  UNL     1      21.372   1.362  48.528  1.00  0.00     0.040 C 
HETATM    6  C5  UNL     1      22.789   1.949  48.207  1.00  0.00     0.040 C 
HETATM    7  C6  UNL     1      22.563   3.261  48.877  1.00  0.00    -0.066 C 
HETATM    8  C7  UNL     1      22.395   4.492  49.401  1.00  0.00    -0.021 C 
HETATM    9  C8  UNL     1      21.831   3.861  50.597  1.00  0.00     0.051 C 
HETATM   10  C9  UNL     1      22.442   2.578  50.190  1.00  0.00     0.039 C 
HETATM   11  C10 UNL     1      23.696   2.262  50.923  1.00  0.00    -0.014 A 
HETATM   12  C11 UNL     1      24.943   2.586  50.439  1.00  0.00     0.011 A 
HETATM   13  C12 UNL     1      26.045   2.281  51.206  1.00  0.00     0.008 A 
HETATM   14  C13 UNL     1      26.000   1.667  52.440  1.00  0.00    -0.055 A 
HETATM   15  C22 UNL     1      24.745   1.353  52.906  1.00  0.00     0.037 A 
HETATM   16  C23 UNL     1      23.597   1.635  52.177  1.00  0.00     0.043 A 
HETATM   17  N1  UNL     1      22.444   1.170  52.939  1.00  0.00    -0.323 N 
HETATM   18  H23 UNL     1      22.509   1.096  53.984  1.00  0.00     0.169 HD
ENDROOT
BRANCH  14  19
HETATM   19  C14 UNL     1      27.307   1.455  53.088  1.00  0.00     0.054 C 
BRANCH  19  20
HETATM   20  C15 UNL     1      27.452   0.212  53.892  1.00  0.00     0.006 A 
HETATM   21  C17 UNL     1      26.994  -0.915  53.014  1.00  0.00    -0.014 A 
HETATM   22  C18 UNL     1      27.552  -2.000  52.531  1.00  0.00    -0.003 A 
HETATM   23  C19 UNL     1      28.941  -2.189  52.914  1.00  0.00    -0.004 A 
HETATM   24  C20 UNL     1      29.466  -1.260  53.689  1.00  0.00    -0.026 A 
HETATM   25  C21 UNL     1      28.889  -0.010  54.267  1.00  0.00     0.043 A 
BRANCH  20  26
HETATM   26  C16 UNL     1      26.619   0.243  55.160  1.00  0.00     0.178 C 
BRANCH  26  27
HETATM   27  O2  UNL     1      25.782  -0.868  55.174  1.00  0.00    -0.400 OA
HETATM   28  H15 UNL     1      25.774  -1.375  54.333  1.00  0.00     0.209 HD
ENDBRANCH  26  27
ENDBRANCH  20  26
ENDBRANCH  19  20
ENDBRANCH  14  19
TORSDOF 4
ENDMDL
MODEL 4
REMARK VINA RESULT:      -8.8      2.143      3.571
REMARK  4 active torsions:
REMARK  status: ('A' for Active; 'I' for Inactive)
REMARK    1  A    between atoms: C13_14  and  C14_15 
REMARK    2  A    between atoms: C14_15  and  C15_16 
REMARK    3  A    between atoms: C15_16  and  C16_17 
REMARK    4  A    between atoms: C16_17  and  O2_18 
ROOT
HETATM    1  O1  UNL     1      22.059   5.952  51.586  1.00  0.00    -0.268 OA
HETATM    2  C1  UNL     1      22.038   4.742  51.936  1.00  0.00     0.246 C 
HETATM    3  C2  UNL     1      20.697   4.108  52.090  1.00  0.00     0.078 C 
HETATM    4  C3  UNL     1      20.524   2.833  51.752  1.00  0.00    -0.057 C 
HETATM    5  C4  UNL     1      19.195   2.121  51.890  1.00  0.00     0.040 C 
HETATM    6  C5  UNL     1      19.841   0.710  52.108  1.00  0.00     0.040 C 
HETATM    7  C6  UNL     1      20.551   0.666  50.798  1.00  0.00    -0.066 C 
HETATM    8  C7  UNL     1      21.155   0.534  49.600  1.00  0.00    -0.021 C 
HETATM    9  C8  UNL     1      21.672   1.896  49.757  1.00  0.00     0.051 C 
HETATM   10  C9  UNL     1      21.392   1.818  51.206  1.00  0.00     0.039 C 
HETATM   11  C10 UNL     1      22.599   1.537  52.027  1.00  0.00    -0.014 A 
HETATM   12  C11 UNL     1      22.962   0.264  52.404  1.00  0.00     0.011 A 
HETATM   13  C12 UNL     1      24.116   0.100  53.138  1.00  0.00     0.008 A 
HETATM   14  C13 UNL     1      24.951   1.125  53.532  1.00  0.00    -0.055 A 
HETATM   15  C22 UNL     1      24.571   2.388  53.143  1.00  0.00     0.037 A 
HETATM   16  C23 UNL     1      23.418   2.616  52.403  1.00  0.00     0.043 A 
HETATM   17  N1  UNL     1      23.299   4.050  52.168  1.00  0.00    -0.323 N 
HETATM   18  H23 UNL     1      24.162   4.647  52.166  1.00  0.00     0.169 HD
ENDROOT
BRANCH  14  19
HETATM   19  C14 UNL     1      26.142   0.710  54.296  1.00  0.00     0.054 C 
BRANCH  19  20
HETATM   20  C15 UNL     1      27.434   0.722  53.560  1.00  0.00     0.006 A 
HETATM   21  C17 UNL     1      28.493   0.356  54.557  1.00  0.00    -0.014 A 
HETATM   22  C18 UNL     1      29.370  -0.615  54.665  1.00  0.00    -0.003 A 
HETATM   23  C19 UNL     1      29.337  -1.583  53.584  1.00  0.00    -0.004 A 
HETATM   24  C20 UNL     1      28.443  -1.373  52.636  1.00  0.00    -0.026 A 
HETATM   25  C21 UNL     1      27.424  -0.297  52.457  1.00  0.00     0.043 A 
BRANCH  20  26
HETATM   26  C16 UNL     1      27.746   2.081  52.961  1.00  0.00     0.178 C 
BRANCH  26  27
HETATM   27  O2  UNL     1      28.348   2.873  53.933  1.00  0.00    -0.400 OA
HETATM   28  H15 UNL     1      27.897   2.849  54.805  1.00  0.00     0.209 HD
ENDBRANCH  26  27
ENDBRANCH  20  26
ENDBRANCH  19  20
ENDBRANCH  14  19
TORSDOF 4
ENDMDL
MODEL 5
REMARK VINA RESULT:      -8.8      1.938      7.364
REMARK  4 active torsions:
REMARK  status: ('A' for Active; 'I' for Inactive)
REMARK    1  A    between atoms: C13_14  and  C14_15 
REMARK    2  A    between atoms: C14_15  and  C15_16 
REMARK    3  A    between atoms: C15_16  and  C16_17 
REMARK    4  A    between atoms: C16_17  and  O2_18 
ROOT
HETATM    1  O1  UNL     1      29.752   2.440  54.723  1.00  0.00    -0.268 OA
HETATM    2  C1  UNL     1      28.882   1.923  53.972  1.00  0.00     0.246 C 
HETATM    3  C2  UNL     1      29.044   0.476  53.651  1.00  0.00     0.078 C 
HETATM    4  C3  UNL     1      27.970  -0.300  53.527  1.00  0.00    -0.057 C 
HETATM    5  C4  UNL     1      28.057  -1.774  53.193  1.00  0.00     0.040 C 
HETATM    6  C5  UNL     1      26.665  -1.813  52.474  1.00  0.00     0.040 C 
HETATM    7  C6  UNL     1      25.871  -1.388  53.661  1.00  0.00    -0.066 C 
HETATM    8  C7  UNL     1      25.090  -1.079  54.716  1.00  0.00    -0.021 C 
HETATM    9  C8  UNL     1      26.015   0.013  55.029  1.00  0.00     0.051 C 
HETATM   10  C9  UNL     1      26.552  -0.069  53.654  1.00  0.00     0.039 C 
HETATM   11  C10 UNL     1      26.017   0.981  52.747  1.00  0.00    -0.014 A 
HETATM   12  C11 UNL     1      24.924   0.777  51.937  1.00  0.00     0.011 A 
HETATM   13  C12 UNL     1      24.482   1.821  51.154  1.00  0.00     0.008 A 
HETATM   14  C13 UNL     1      25.057   3.074  51.116  1.00  0.00    -0.055 A 
HETATM   15  C22 UNL     1      26.147   3.257  51.935  1.00  0.00     0.037 A 
HETATM   16  C23 UNL     1      26.638   2.242  52.745  1.00  0.00     0.043 A 
HETATM   17  N1  UNL     1      27.794   2.753  53.471  1.00  0.00    -0.323 N 
HETATM   18  H23 UNL     1      27.878   3.783  53.653  1.00  0.00     0.169 HD
ENDROOT
BRANCH  14  19
HETATM   19  C14 UNL     1      24.402   4.041  50.216  1.00  0.00     0.054 C 
BRANCH  19  20
HETATM   20  C15 UNL     1      23.462   5.003  50.852  1.00  0.00     0.006 A 
HETATM   21  C17 UNL     1      22.273   5.096  49.944  1.00  0.00    -0.014 A 
HETATM   22  C18 UNL     1      20.990   4.845  50.066  1.00  0.00    -0.003 A 
HETATM   23  C19 UNL     1      20.590   4.360  51.375  1.00  0.00    -0.004 A 
HETATM   24  C20 UNL     1      21.550   4.231  52.271  1.00  0.00    -0.026 A 
HETATM   25  C21 UNL     1      23.018   4.496  52.194  1.00  0.00     0.043 A 
BRANCH  20  26
HETATM   26  C16 UNL     1      24.076   6.378  51.033  1.00  0.00     0.178 C 
BRANCH  26  27
HETATM   27  O2  UNL     1      24.359   6.570  52.382  1.00  0.00    -0.400 OA
HETATM   28  H15 UNL     1      24.118   7.461  52.720  1.00  0.00     0.209 HD
ENDBRANCH  26  27
ENDBRANCH  20  26
ENDBRANCH  19  20
ENDBRANCH  14  19
TORSDOF 4
ENDMDL
MODEL 6
REMARK VINA RESULT:      -8.4      2.819      7.225
REMARK  4 active torsions:
REMARK  status: ('A' for Active; 'I' for Inactive)
REMARK    1  A    between atoms: C13_14  and  C14_15 
REMARK    2  A    between atoms: C14_15  and  C15_16 
REMARK    3  A    between atoms: C15_16  and  C16_17 
REMARK    4  A    between atoms: C16_17  and  O2_18 
ROOT
HETATM    1  O1  UNL     1      26.042   3.942  50.645  1.00  0.00    -0.268 OA
HETATM    2  C1  UNL     1      25.577   2.878  51.134  1.00  0.00     0.246 C 
HETATM    3  C2  UNL     1      26.405   1.648  50.983  1.00  0.00     0.078 C 
HETATM    4  C3  UNL     1      26.430   0.742  51.958  1.00  0.00    -0.057 C 
HETATM    5  C4  UNL     1      27.239  -0.535  51.870  1.00  0.00     0.040 C 
HETATM    6  C5  UNL     1      26.271  -1.351  52.793  1.00  0.00     0.040 C 
HETATM    7  C6  UNL     1      26.430  -0.476  53.989  1.00  0.00    -0.066 C 
HETATM    8  C7  UNL     1      26.589   0.233  55.125  1.00  0.00    -0.021 C 
HETATM    9  C8  UNL     1      26.413   1.456  54.337  1.00  0.00     0.051 C 
HETATM   10  C9  UNL     1      25.806   0.654  53.255  1.00  0.00     0.039 C 
HETATM   11  C10 UNL     1      24.321   0.725  53.228  1.00  0.00    -0.014 A 
HETATM   12  C11 UNL     1      23.521  -0.199  53.860  1.00  0.00     0.011 A 
HETATM   13  C12 UNL     1      22.155  -0.031  53.806  1.00  0.00     0.008 A 
HETATM   14  C13 UNL     1      21.514   1.005  53.159  1.00  0.00    -0.055 A 
HETATM   15  C22 UNL     1      22.332   1.918  52.537  1.00  0.00     0.037 A 
HETATM   16  C23 UNL     1      23.716   1.801  52.556  1.00  0.00     0.043 A 
HETATM   17  N1  UNL     1      24.281   2.913  51.801  1.00  0.00    -0.323 N 
HETATM   18  H23 UNL     1      23.739   3.807  51.711  1.00  0.00     0.169 HD
ENDROOT
BRANCH  14  19
HETATM   19  C14 UNL     1      20.042   0.991  53.250  1.00  0.00     0.054 C 
BRANCH  19  20
HETATM   20  C15 UNL     1      19.308   0.627  52.009  1.00  0.00     0.006 A 
HETATM   21  C17 UNL     1      18.562   1.855  51.581  1.00  0.00    -0.014 A 
HETATM   22  C18 UNL     1      18.567   2.620  50.514  1.00  0.00    -0.003 A 
HETATM   23  C19 UNL     1      19.504   2.212  49.482  1.00  0.00    -0.004 A 
HETATM   24  C20 UNL     1      20.227   1.138  49.738  1.00  0.00    -0.026 A 
HETATM   25  C21 UNL     1      20.269   0.232  50.924  1.00  0.00     0.043 A 
BRANCH  20  26
HETATM   26  C16 UNL     1      18.332  -0.514  52.228  1.00  0.00     0.178 C 
BRANCH  26  27
HETATM   27  O2  UNL     1      18.503  -1.010  53.517  1.00  0.00    -0.400 OA
HETATM   28  H15 UNL     1      18.996  -0.407  54.116  1.00  0.00     0.209 HD
ENDBRANCH  26  27
ENDBRANCH  20  26
ENDBRANCH  19  20
ENDBRANCH  14  19
TORSDOF 4
ENDMDL
MODEL 7
REMARK VINA RESULT:      -8.4      2.716      3.917
REMARK  4 active torsions:
REMARK  status: ('A' for Active; 'I' for Inactive)
REMARK    1  A    between atoms: C13_14  and  C14_15 
REMARK    2  A    between atoms: C14_15  and  C15_16 
REMARK    3  A    between atoms: C15_16  and  C16_17 
REMARK    4  A    between atoms: C16_17  and  O2_18 
ROOT
HETATM    1  O1  UNL     1      27.285   8.822  49.566  1.00  0.00    -0.268 OA
HETATM    2  C1  UNL     1      26.407   7.935  49.739  1.00  0.00     0.246 C 
HETATM    3  C2  UNL     1      25.036   8.403  50.092  1.00  0.00     0.078 C 
HETATM    4  C3  UNL     1      23.973   7.753  49.624  1.00  0.00    -0.057 C 
HETATM    5  C4  UNL     1      22.552   8.165  49.949  1.00  0.00     0.040 C 
HETATM    6  C5  UNL     1      21.978   6.713  49.821  1.00  0.00     0.040 C 
HETATM    7  C6  UNL     1      22.366   6.523  48.394  1.00  0.00    -0.066 C 
HETATM    8  C7  UNL     1      22.625   6.319  47.087  1.00  0.00    -0.021 C 
HETATM    9  C8  UNL     1      23.977   6.834  47.316  1.00  0.00     0.051 C 
HETATM   10  C9  UNL     1      23.801   6.607  48.766  1.00  0.00     0.039 C 
HETATM   11  C10 UNL     1      24.463   5.369  49.255  1.00  0.00    -0.014 A 
HETATM   12  C11 UNL     1      23.803   4.166  49.362  1.00  0.00     0.011 A 
HETATM   13  C12 UNL     1      24.509   3.066  49.796  1.00  0.00     0.008 A 
HETATM   14  C13 UNL     1      25.845   3.073  50.137  1.00  0.00    -0.055 A 
HETATM   15  C22 UNL     1      26.485   4.284  50.021  1.00  0.00     0.037 A 
HETATM   16  C23 UNL     1      25.826   5.428  49.591  1.00  0.00     0.043 A 
HETATM   17  N1  UNL     1      26.777   6.533  49.590  1.00  0.00    -0.323 N 
HETATM   18  H23 UNL     1      27.802   6.334  49.483  1.00  0.00     0.169 HD
ENDROOT
BRANCH  14  19
HETATM   19  C14 UNL     1      26.396   1.771  50.556  1.00  0.00     0.054 C 
BRANCH  19  20
HETATM   20  C15 UNL     1      26.345   1.472  52.013  1.00  0.00     0.006 A 
HETATM   21  C17 UNL     1      26.398  -0.022  52.141  1.00  0.00    -0.014 A 
HETATM   22  C18 UNL     1      27.217  -0.875  52.710  1.00  0.00    -0.003 A 
HETATM   23  C19 UNL     1      28.351  -0.269  53.384  1.00  0.00    -0.004 A 
HETATM   24  C20 UNL     1      28.421   1.048  53.343  1.00  0.00    -0.026 A 
HETATM   25  C21 UNL     1      27.530   2.068  52.716  1.00  0.00     0.043 A 
BRANCH  20  26
HETATM   26  C16 UNL     1      25.080   1.995  52.666  1.00  0.00     0.178 C 
BRANCH  26  27
HETATM   27  O2  UNL     1      25.428   2.940  53.627  1.00  0.00    -0.400 OA
HETATM   28  H15 UNL     1      25.543   3.849  53.272  1.00  0.00     0.209 HD
ENDBRANCH  26  27
ENDBRANCH  20  26
ENDBRANCH  19  20
ENDBRANCH  14  19
TORSDOF 4
ENDMDL
MODEL 8
REMARK VINA RESULT:      -8.4      2.099      7.157
REMARK  4 active torsions:
REMARK  status: ('A' for Active; 'I' for Inactive)
REMARK    1  A    between atoms: C13_14  and  C14_15 
REMARK    2  A    between atoms: C14_15  and  C15_16 
REMARK    3  A    between atoms: C15_16  and  C16_17 
REMARK    4  A    between atoms: C16_17  and  O2_18 
ROOT
HETATM    1  O1  UNL     1      29.603   2.483  54.715  1.00  0.00    -0.268 OA
HETATM    2  C1  UNL     1      28.673   1.973  54.035  1.00  0.00     0.246 C 
HETATM    3  C2  UNL     1      28.858   0.563  53.589  1.00  0.00     0.078 C 
HETATM    4  C3  UNL     1      27.811  -0.258  53.534  1.00  0.00    -0.057 C 
HETATM    5  C4  UNL     1      27.922  -1.699  53.083  1.00  0.00     0.040 C 
HETATM    6  C5  UNL     1      26.457  -1.761  52.530  1.00  0.00     0.040 C 
HETATM    7  C6  UNL     1      25.794  -1.461  53.831  1.00  0.00    -0.066 C 
HETATM    8  C7  UNL     1      25.133  -1.268  54.990  1.00  0.00    -0.021 C 
HETATM    9  C8  UNL     1      26.040  -0.152  55.273  1.00  0.00     0.051 C 
HETATM   10  C9  UNL     1      26.410  -0.111  53.843  1.00  0.00     0.039 C 
HETATM   11  C10 UNL     1      25.725   0.970  53.086  1.00  0.00    -0.014 A 
HETATM   12  C11 UNL     1      24.552   0.765  52.396  1.00  0.00     0.011 A 
HETATM   13  C12 UNL     1      23.974   1.837  51.751  1.00  0.00     0.008 A 
HETATM   14  C13 UNL     1      24.485   3.117  51.740  1.00  0.00    -0.055 A 
HETATM   15  C22 UNL     1      25.656   3.300  52.437  1.00  0.00     0.037 A 
HETATM   16  C23 UNL     1      26.285   2.259  53.106  1.00  0.00     0.043 A 
HETATM   17  N1  UNL     1      27.497   2.779  53.728  1.00  0.00    -0.323 N 
HETATM   18  H23 UNL     1      27.557   3.797  53.976  1.00  0.00     0.169 HD
ENDROOT
BRANCH  14  19
HETATM   19  C14 UNL     1      23.685   4.109  50.998  1.00  0.00     0.054 C 
BRANCH  19  20
HETATM   20  C15 UNL     1      24.118   4.396  49.604  1.00  0.00     0.006 A 
HETATM   21  C17 UNL     1      24.402   5.867  49.543  1.00  0.00    -0.014 A 
HETATM   22  C18 UNL     1      25.459   6.598  49.274  1.00  0.00    -0.003 A 
HETATM   23  C19 UNL     1      26.656   5.838  48.957  1.00  0.00    -0.004 A 
HETATM   24  C20 UNL     1      26.538   4.524  48.978  1.00  0.00    -0.026 A 
HETATM   25  C21 UNL     1      25.372   3.639  49.275  1.00  0.00     0.043 A 
BRANCH  20  26
HETATM   26  C16 UNL     1      23.055   4.038  48.583  1.00  0.00     0.178 C 
BRANCH  26  27
HETATM   27  O2  UNL     1      22.354   5.191  48.241  1.00  0.00    -0.400 OA
HETATM   28  H15 UNL     1      22.697   6.009  48.664  1.00  0.00     0.209 HD
ENDBRANCH  26  27
ENDBRANCH  20  26
ENDBRANCH  19  20
ENDBRANCH  14  19
TORSDOF 4
ENDMDL
MODEL 9
REMARK VINA RESULT:      -8.4      5.471      6.610
REMARK  4 active torsions:
REMARK  status: ('A' for Active; 'I' for Inactive)
REMARK    1  A    between atoms: C13_14  and  C14_15 
REMARK    2  A    between atoms: C14_15  and  C15_16 
REMARK    3  A    between atoms: C15_16  and  C16_17 
REMARK    4  A    between atoms: C16_17  and  O2_18 
ROOT
HETATM    1  O1  UNL     1      25.463   2.913  50.374  1.00  0.00    -0.268 OA
HETATM    2  C1  UNL     1      25.733   3.875  49.607  1.00  0.00     0.246 C 
HETATM    3  C2  UNL     1      24.590   4.499  48.881  1.00  0.00     0.078 C 
HETATM    4  C3  UNL     1      24.581   5.811  48.662  1.00  0.00    -0.057 C 
HETATM    5  C4  UNL     1      23.460   6.512  47.924  1.00  0.00     0.040 C 
HETATM    6  C5  UNL     1      24.379   7.656  47.375  1.00  0.00     0.040 C 
HETATM    7  C6  UNL     1      24.795   8.169  48.711  1.00  0.00    -0.066 C 
HETATM    8  C7  UNL     1      25.149   8.725  49.888  1.00  0.00    -0.021 C 
HETATM    9  C8  UNL     1      25.435   7.379  50.391  1.00  0.00     0.051 C 
HETATM   10  C9  UNL     1      25.483   6.886  48.998  1.00  0.00     0.039 C 
HETATM   11  C10 UNL     1      26.866   6.711  48.481  1.00  0.00    -0.014 A 
HETATM   12  C11 UNL     1      27.521   7.688  47.767  1.00  0.00     0.011 A 
HETATM   13  C12 UNL     1      28.814   7.446  47.356  1.00  0.00     0.008 A 
HETATM   14  C13 UNL     1      29.515   6.286  47.607  1.00  0.00    -0.055 A 
HETATM   15  C22 UNL     1      28.842   5.324  48.323  1.00  0.00     0.037 A 
HETATM   16  C23 UNL     1      27.538   5.510  48.763  1.00  0.00     0.043 A 
HETATM   17  N1  UNL     1      27.118   4.309  49.475  1.00  0.00    -0.323 N 
HETATM   18  H23 UNL     1      27.840   3.695  49.926  1.00  0.00     0.169 HD
ENDROOT
BRANCH  14  19
HETATM   19  C14 UNL     1      30.894   6.257  47.086  1.00  0.00     0.054 C 
BRANCH  19  20
HETATM   20  C15 UNL     1      31.975   6.066  48.090  1.00  0.00     0.006 A 
HETATM   21  C17 UNL     1      32.290   4.600  48.099  1.00  0.00    -0.014 A 
HETATM   22  C18 UNL     1      33.359   3.879  47.850  1.00  0.00    -0.003 A 
HETATM   23  C19 UNL     1      34.532   4.647  47.472  1.00  0.00    -0.004 A 
HETATM   24  C20 UNL     1      34.385   5.957  47.426  1.00  0.00    -0.026 A 
HETATM   25  C21 UNL     1      33.204   6.831  47.694  1.00  0.00     0.043 A 
BRANCH  20  26
HETATM   26  C16 UNL     1      31.557   6.507  49.480  1.00  0.00     0.178 C 
BRANCH  26  27
HETATM   27  O2  UNL     1      31.614   5.411  50.335  1.00  0.00    -0.400 OA
HETATM   28  H15 UNL     1      32.410   5.393  50.911  1.00  0.00     0.209 HD
ENDBRANCH  26  27
ENDBRANCH  20  26
ENDBRANCH  19  20
ENDBRANCH  14  19
TORSDOF 4
ENDMDL
