MODEL 1
REMARK VINA RESULT:      -8.3      0.000      0.000
REMARK  7 active torsions:
REMARK  status: ('A' for Active; 'I' for Inactive)
REMARK    1  A    between atoms: C2_2  and  C3_3 
REMARK    2  A    between atoms: C3_3  and  N1_4 
REMARK    3  A    between atoms: C3_3  and  N2_5 
REMARK    4  A    between atoms: N2_5  and  C5_7 
REMARK    5  A    between atoms: C5_7  and  C6_8 
REMARK    6  A    between atoms: C6_8  and  C7_9 
REMARK    7  A    between atoms: C11_16  and  N5_17 
ROOT
HETATM    1  C7  UNL     1      23.487   0.350  52.764  1.00  0.00    -0.050 C 
HETATM    2  C8  UNL     1      23.444  -0.299  53.907  1.00  0.00     0.054 C 
HETATM    3  S1  UNL     1      21.895  -0.950  54.495  1.00  0.00    -0.108 SA
HETATM    4  C9  UNL     1      20.598  -0.155  53.573  1.00  0.00     0.211 C 
HETATM    5  N3  UNL     1      19.354  -0.835  53.450  1.00  0.00    -0.262 NA
HETATM    6  C10 UNL     1      18.553  -0.656  52.438  1.00  0.00     0.230 C 
HETATM    7  N4  UNL     1      18.933   0.229  51.406  1.00  0.00    -0.224 NA
HETATM    8  C11 UNL     1      20.062   0.866  51.377  1.00  0.00     0.137 C 
HETATM    9  C21 UNL     1      21.101   0.439  52.328  1.00  0.00     0.023 C 
HETATM   10  C22 UNL     1      22.335   0.716  51.962  1.00  0.00     0.021 C 
ENDROOT
BRANCH   8  11
HETATM   11  N5  UNL     1      20.407   1.786  50.317  1.00  0.00    -0.356 N 
HETATM   12  C12 UNL     1      20.871   1.398  48.993  1.00  0.00     0.131 C 
HETATM   13  C13 UNL     1      22.140   2.104  48.580  1.00  0.00     0.080 C 
HETATM   14  C14 UNL     1      22.542   3.036  49.677  1.00  0.00     0.044 A 
HETATM   15  N6  UNL     1      23.881   3.303  49.691  1.00  0.00    -0.265 NA
HETATM   16  C18 UNL     1      21.751   3.646  50.652  1.00  0.00    -0.011 A 
HETATM   17  C15 UNL     1      24.383   4.129  50.624  1.00  0.00     0.117 A 
HETATM   18  C16 UNL     1      23.658   4.757  51.603  1.00  0.00     0.020 A 
HETATM   19  C17 UNL     1      22.311   4.484  51.585  1.00  0.00     0.012 A 
HETATM   20  C19 UNL     1      20.324   3.247  50.489  1.00  0.00     0.117 C 
HETATM   21  C20 UNL     1      19.444   3.614  51.635  1.00  0.00     0.037 C 
ENDBRANCH   8  11
BRANCH   1  22
HETATM   22  C6  UNL     1      24.845   0.848  52.348  1.00  0.00     0.058 C 
BRANCH  22  23
HETATM   23  C5  UNL     1      25.871   0.036  53.103  1.00  0.00     0.123 C 
BRANCH  23  24
HETATM   24  N2  UNL     1      27.162   0.622  52.952  1.00  0.00    -0.389 N 
HETATM   25  C4  UNL     1      27.179   1.848  52.219  1.00  0.00     0.145 C 
BRANCH  24  26
HETATM   26  C3  UNL     1      28.002   0.608  54.100  1.00  0.00     0.314 C 
BRANCH  26  27
HETATM   27  C2  UNL     1      29.440   0.207  53.803  1.00  0.00     0.052 C 
HETATM   28  C1  UNL     1      29.391  -1.288  53.473  1.00  0.00     0.009 C 
ENDBRANCH  26  27
BRANCH  26  29
HETATM   29  N1  UNL     1      27.502  -0.442  55.002  1.00  0.00     0.101 N 
HETATM   30  H7  UNL     1      26.454  -0.348  55.020  1.00  0.00     0.315 HD
HETATM   31  H8  UNL     1      27.764  -1.388  54.645  1.00  0.00     0.315 HD
ENDBRANCH  26  29
ENDBRANCH  24  26
ENDBRANCH  23  24
ENDBRANCH  22  23
ENDBRANCH   1  22
TORSDOF 7
ENDMDL
MODEL 2
REMARK VINA RESULT:      -7.3      2.911      4.786
REMARK  7 active torsions:
REMARK  status: ('A' for Active; 'I' for Inactive)
REMARK    1  A    between atoms: C2_2  and  C3_3 
REMARK    2  A    between atoms: C3_3  and  N1_4 
REMARK    3  A    between atoms: C3_3  and  N2_5 
REMARK    4  A    between atoms: N2_5  and  C5_7 
REMARK    5  A    between atoms: C5_7  and  C6_8 
REMARK    6  A    between atoms: C6_8  and  C7_9 
REMARK    7  A    between atoms: C11_16  and  N5_17 
ROOT
HETATM    1  C7  UNL     1      25.203   2.855  50.508  1.00  0.00    -0.050 C 
HETATM    2  C8  UNL     1      26.282   2.837  51.259  1.00  0.00     0.054 C 
HETATM    3  S1  UNL     1      26.358   1.752  52.668  1.00  0.00    -0.108 SA
HETATM    4  C9  UNL     1      24.697   1.223  53.024  1.00  0.00     0.211 C 
HETATM    5  N3  UNL     1      24.523  -0.009  53.715  1.00  0.00    -0.262 NA
HETATM    6  C10 UNL     1      23.456  -0.743  53.583  1.00  0.00     0.230 C 
HETATM    7  N4  UNL     1      22.433  -0.322  52.705  1.00  0.00    -0.224 NA
HETATM    8  C11 UNL     1      22.497   0.752  51.982  1.00  0.00     0.137 C 
HETATM    9  C21 UNL     1      23.807   1.415  51.873  1.00  0.00     0.023 C 
HETATM   10  C22 UNL     1      23.969   2.148  50.792  1.00  0.00     0.021 C 
ENDROOT
BRANCH   8  11
HETATM   11  N5  UNL     1      21.419   1.168  51.114  1.00  0.00    -0.356 N 
HETATM   12  C12 UNL     1      21.173   0.645  49.777  1.00  0.00     0.131 C 
HETATM   13  C13 UNL     1      21.014   1.728  48.738  1.00  0.00     0.080 C 
HETATM   14  C14 UNL     1      21.137   3.055  49.414  1.00  0.00     0.044 A 
HETATM   15  N6  UNL     1      21.552   4.049  48.575  1.00  0.00    -0.265 NA
HETATM   16  C18 UNL     1      20.887   3.395  50.744  1.00  0.00    -0.011 A 
HETATM   17  C15 UNL     1      21.704   5.297  49.049  1.00  0.00     0.117 A 
HETATM   18  C16 UNL     1      21.474   5.690  50.341  1.00  0.00     0.020 A 
HETATM   19  C17 UNL     1      21.056   4.686  51.181  1.00  0.00     0.012 A 
HETATM   20  C19 UNL     1      20.443   2.197  51.513  1.00  0.00     0.117 C 
HETATM   21  C20 UNL     1      20.420   2.384  52.992  1.00  0.00     0.037 C 
ENDBRANCH   8  11
BRANCH   1  22
HETATM   22  C6  UNL     1      25.243   3.796  49.333  1.00  0.00     0.058 C 
BRANCH  22  23
HETATM   23  C5  UNL     1      26.553   4.546  49.404  1.00  0.00     0.123 C 
BRANCH  23  24
HETATM   24  N2  UNL     1      26.352   5.910  49.039  1.00  0.00    -0.389 N 
HETATM   25  C4  UNL     1      25.669   6.696  50.017  1.00  0.00     0.145 C 
BRANCH  24  26
HETATM   26  C3  UNL     1      27.449   6.566  48.414  1.00  0.00     0.314 C 
BRANCH  26  27
HETATM   27  C2  UNL     1      28.662   5.669  48.207  1.00  0.00     0.052 C 
HETATM   28  C1  UNL     1      29.855   6.617  48.057  1.00  0.00     0.009 C 
ENDBRANCH  26  27
BRANCH  26  29
HETATM   29  N1  UNL     1      27.917   7.617  49.332  1.00  0.00     0.101 N 
HETATM   30  H7  UNL     1      27.253   8.426  49.225  1.00  0.00     0.315 HD
HETATM   31  H8  UNL     1      27.901   7.276  50.319  1.00  0.00     0.315 HD
ENDBRANCH  26  29
ENDBRANCH  24  26
ENDBRANCH  23  24
ENDBRANCH  22  23
ENDBRANCH   1  22
TORSDOF 7
ENDMDL
MODEL 3
REMARK VINA RESULT:      -7.3      1.792      2.826
REMARK  7 active torsions:
REMARK  status: ('A' for Active; 'I' for Inactive)
REMARK    1  A    between atoms: C2_2  and  C3_3 
REMARK    2  A    between atoms: C3_3  and  N1_4 
REMARK    3  A    between atoms: C3_3  and  N2_5 
REMARK    4  A    between atoms: N2_5  and  C5_7 
REMARK    5  A    between atoms: C5_7  and  C6_8 
REMARK    6  A    between atoms: C6_8  and  C7_9 
REMARK    7  A    between atoms: C11_16  and  N5_17 
ROOT
HETATM    1  C7  UNL     1      23.408   0.060  53.482  1.00  0.00    -0.050 C 
HETATM    2  C8  UNL     1      22.524  -0.711  54.074  1.00  0.00     0.054 C 
HETATM    3  S1  UNL     1      20.790  -0.477  53.747  1.00  0.00    -0.108 SA
HETATM    4  C9  UNL     1      20.601   1.121  52.988  1.00  0.00     0.211 C 
HETATM    5  N3  UNL     1      19.461   1.338  52.164  1.00  0.00    -0.262 NA
HETATM    6  C10 UNL     1      19.456   2.195  51.184  1.00  0.00     0.230 C 
HETATM    7  N4  UNL     1      20.630   2.928  50.903  1.00  0.00    -0.224 NA
HETATM    8  C11 UNL     1      21.746   2.782  51.546  1.00  0.00     0.137 C 
HETATM    9  C21 UNL     1      21.867   1.611  52.429  1.00  0.00     0.023 C 
HETATM   10  C22 UNL     1      23.100   1.210  52.654  1.00  0.00     0.021 C 
ENDROOT
BRANCH   8  11
HETATM   11  N5  UNL     1      22.921   3.569  51.249  1.00  0.00    -0.356 N 
HETATM   12  C12 UNL     1      23.564   4.492  52.173  1.00  0.00     0.131 C 
HETATM   13  C13 UNL     1      23.794   5.860  51.579  1.00  0.00     0.080 C 
HETATM   14  C14 UNL     1      23.299   5.854  50.169  1.00  0.00     0.044 A 
HETATM   15  N6  UNL     1      22.945   7.094  49.719  1.00  0.00    -0.265 NA
HETATM   16  C18 UNL     1      23.160   4.782  49.287  1.00  0.00    -0.011 A 
HETATM   17  C15 UNL     1      22.484   7.237  48.465  1.00  0.00     0.117 A 
HETATM   18  C16 UNL     1      22.327   6.225  47.555  1.00  0.00     0.020 A 
HETATM   19  C17 UNL     1      22.685   4.980  48.013  1.00  0.00     0.012 A 
HETATM   20  C19 UNL     1      23.592   3.512  49.938  1.00  0.00     0.117 C 
HETATM   21  C20 UNL     1      23.226   2.277  49.189  1.00  0.00     0.037 C 
ENDBRANCH   8  11
BRANCH   1  22
HETATM   22  C6  UNL     1      24.849  -0.226  53.813  1.00  0.00     0.058 C 
BRANCH  22  23
HETATM   23  C5  UNL     1      25.670   0.149  52.602  1.00  0.00     0.123 C 
BRANCH  23  24
HETATM   24  N2  UNL     1      26.987   0.520  53.003  1.00  0.00    -0.389 N 
HETATM   25  C4  UNL     1      27.156   1.910  53.287  1.00  0.00     0.145 C 
BRANCH  24  26
HETATM   26  C3  UNL     1      27.640  -0.354  53.917  1.00  0.00     0.314 C 
BRANCH  26  27
HETATM   27  C2  UNL     1      28.998   0.151  54.383  1.00  0.00     0.052 C 
HETATM   28  C1  UNL     1      30.031  -0.642  53.579  1.00  0.00     0.009 C 
ENDBRANCH  26  27
BRANCH  26  29
HETATM   29  N1  UNL     1      27.935  -1.605  53.199  1.00  0.00     0.101 N 
HETATM   30  H7  UNL     1      27.798  -2.386  53.891  1.00  0.00     0.315 HD
HETATM   31  H8  UNL     1      27.282  -1.728  52.394  1.00  0.00     0.315 HD
ENDBRANCH  26  29
ENDBRANCH  24  26
ENDBRANCH  23  24
ENDBRANCH  22  23
ENDBRANCH   1  22
TORSDOF 7
ENDMDL
MODEL 4
REMARK VINA RESULT:      -7.2      2.549      5.205
REMARK  7 active torsions:
REMARK  status: ('A' for Active; 'I' for Inactive)
REMARK    1  A    between atoms: C2_2  and  C3_3 
REMARK    2  A    between atoms: C3_3  and  N1_4 
REMARK    3  A    between atoms: C3_3  and  N2_5 
REMARK    4  A    between atoms: N2_5  and  C5_7 
REMARK    5  A    between atoms: C5_7  and  C6_8 
REMARK    6  A    between atoms: C6_8  and  C7_9 
REMARK    7  A    between atoms: C11_16  and  N5_17 
ROOT
HETATM    1  C7  UNL     1      25.272   2.897  50.795  1.00  0.00    -0.050 C 
HETATM    2  C8  UNL     1      26.500   2.961  50.331  1.00  0.00     0.054 C 
HETATM    3  S1  UNL     1      27.004   4.363  49.357  1.00  0.00    -0.108 SA
HETATM    4  C9  UNL     1      25.527   5.203  48.829  1.00  0.00     0.211 C 
HETATM    5  N3  UNL     1      25.624   6.588  48.514  1.00  0.00    -0.262 NA
HETATM    6  C10 UNL     1      24.616   7.405  48.627  1.00  0.00     0.230 C 
HETATM    7  N4  UNL     1      23.380   6.915  49.102  1.00  0.00    -0.224 NA
HETATM    8  C11 UNL     1      23.182   5.688  49.471  1.00  0.00     0.137 C 
HETATM    9  C21 UNL     1      24.369   4.839  49.654  1.00  0.00     0.023 C 
HETATM   10  C22 UNL     1      24.204   3.826  50.478  1.00  0.00     0.021 C 
ENDROOT
BRANCH   8  11
HETATM   11  N5  UNL     1      21.894   5.214  49.926  1.00  0.00    -0.356 N 
HETATM   12  C12 UNL     1      21.375   5.374  51.277  1.00  0.00     0.131 C 
HETATM   13  C13 UNL     1      20.880   4.081  51.877  1.00  0.00     0.080 C 
HETATM   14  C14 UNL     1      21.054   2.993  50.868  1.00  0.00     0.044 A 
HETATM   15  N6  UNL     1      21.170   1.753  51.429  1.00  0.00    -0.265 NA
HETATM   16  C18 UNL     1      21.108   3.080  49.476  1.00  0.00    -0.011 A 
HETATM   17  C15 UNL     1      21.329   0.679  50.638  1.00  0.00     0.117 A 
HETATM   18  C16 UNL     1      21.388   0.702  49.269  1.00  0.00     0.020 A 
HETATM   19  C17 UNL     1      21.270   1.952  48.709  1.00  0.00     0.012 A 
HETATM   20  C19 UNL     1      20.963   4.497  49.037  1.00  0.00     0.117 C 
HETATM   21  C20 UNL     1      21.284   4.736  47.602  1.00  0.00     0.037 C 
ENDBRANCH   8  11
BRANCH   1  22
HETATM   22  C6  UNL     1      24.949   1.679  51.619  1.00  0.00     0.058 C 
BRANCH  22  23
HETATM   23  C5  UNL     1      25.265   2.014  53.058  1.00  0.00     0.123 C 
BRANCH  23  24
HETATM   24  N2  UNL     1      26.093   1.001  53.624  1.00  0.00    -0.389 N 
HETATM   25  C4  UNL     1      25.669  -0.337  53.354  1.00  0.00     0.145 C 
BRANCH  24  26
HETATM   26  C3  UNL     1      27.498   1.206  53.529  1.00  0.00     0.314 C 
BRANCH  26  27
HETATM   27  C2  UNL     1      28.307   0.362  54.503  1.00  0.00     0.052 C 
HETATM   28  C1  UNL     1      29.433  -0.260  53.673  1.00  0.00     0.009 C 
ENDBRANCH  26  27
BRANCH  26  29
HETATM   29  N1  UNL     1      27.770   2.597  53.927  1.00  0.00     0.101 N 
HETATM   30  H7  UNL     1      27.674   2.632  54.974  1.00  0.00     0.315 HD
HETATM   31  H8  UNL     1      28.739   2.874  53.652  1.00  0.00     0.315 HD
ENDBRANCH  26  29
ENDBRANCH  24  26
ENDBRANCH  23  24
ENDBRANCH  22  23
ENDBRANCH   1  22
TORSDOF 7
ENDMDL
MODEL 5
REMARK VINA RESULT:      -7.2      2.317      5.382
REMARK  7 active torsions:
REMARK  status: ('A' for Active; 'I' for Inactive)
REMARK    1  A    between atoms: C2_2  and  C3_3 
REMARK    2  A    between atoms: C3_3  and  N1_4 
REMARK    3  A    between atoms: C3_3  and  N2_5 
REMARK    4  A    between atoms: N2_5  and  C5_7 
REMARK    5  A    between atoms: C5_7  and  C6_8 
REMARK    6  A    between atoms: C6_8  and  C7_9 
REMARK    7  A    between atoms: C11_16  and  N5_17 
ROOT
HETATM    1  C7  UNL     1      25.890   2.134  51.252  1.00  0.00    -0.050 C 
HETATM    2  C8  UNL     1      26.761   1.445  51.954  1.00  0.00     0.054 C 
HETATM    3  S1  UNL     1      26.200   0.117  52.999  1.00  0.00    -0.108 SA
HETATM    4  C9  UNL     1      24.444   0.312  53.212  1.00  0.00     0.211 C 
HETATM    5  N3  UNL     1      23.679  -0.845  53.529  1.00  0.00    -0.262 NA
HETATM    6  C10 UNL     1      22.422  -0.965  53.208  1.00  0.00     0.230 C 
HETATM    7  N4  UNL     1      21.789   0.079  52.498  1.00  0.00    -0.224 NA
HETATM    8  C11 UNL     1      22.392   1.157  52.106  1.00  0.00     0.137 C 
HETATM    9  C21 UNL     1      23.862   1.170  52.173  1.00  0.00     0.023 C 
HETATM   10  C22 UNL     1      24.448   2.004  51.340  1.00  0.00     0.021 C 
ENDROOT
BRANCH   8  11
HETATM   11  N5  UNL     1      21.706   2.217  51.403  1.00  0.00    -0.356 N 
HETATM   12  C12 UNL     1      21.585   3.590  51.874  1.00  0.00     0.131 C 
HETATM   13  C13 UNL     1      20.164   4.097  51.859  1.00  0.00     0.080 C 
HETATM   14  C14 UNL     1      19.280   3.016  51.328  1.00  0.00     0.044 A 
HETATM   15  N6  UNL     1      17.987   3.118  51.758  1.00  0.00    -0.265 NA
HETATM   16  C18 UNL     1      19.596   1.955  50.478  1.00  0.00    -0.011 A 
HETATM   17  C15 UNL     1      17.080   2.212  51.356  1.00  0.00     0.117 A 
HETATM   18  C16 UNL     1      17.331   1.153  50.524  1.00  0.00     0.020 A 
HETATM   19  C17 UNL     1      18.632   1.054  50.094  1.00  0.00     0.012 A 
HETATM   20  C19 UNL     1      21.039   1.997  50.107  1.00  0.00     0.117 C 
HETATM   21  C20 UNL     1      21.542   0.764  49.437  1.00  0.00     0.037 C 
ENDBRANCH   8  11
BRANCH   1  22
HETATM   22  C6  UNL     1      26.466   3.226  50.390  1.00  0.00     0.058 C 
BRANCH  22  23
HETATM   23  C5  UNL     1      25.303   3.997  49.808  1.00  0.00     0.123 C 
BRANCH  23  24
HETATM   24  N2  UNL     1      25.330   5.344  50.274  1.00  0.00    -0.389 N 
HETATM   25  C4  UNL     1      25.944   6.273  49.379  1.00  0.00     0.145 C 
BRANCH  24  26
HETATM   26  C3  UNL     1      24.146   5.821  50.901  1.00  0.00     0.314 C 
BRANCH  26  27
HETATM   27  C2  UNL     1      23.136   6.416  49.930  1.00  0.00     0.052 C 
HETATM   28  C1  UNL     1      22.705   7.749  50.549  1.00  0.00     0.009 C 
ENDBRANCH  26  27
BRANCH  26  29
HETATM   29  N1  UNL     1      24.528   6.943  51.774  1.00  0.00     0.101 N 
HETATM   30  H7  UNL     1      23.660   7.521  51.915  1.00  0.00     0.315 HD
HETATM   31  H8  UNL     1      24.871   6.591  52.695  1.00  0.00     0.315 HD
ENDBRANCH  26  29
ENDBRANCH  24  26
ENDBRANCH  23  24
ENDBRANCH  22  23
ENDBRANCH   1  22
TORSDOF 7
ENDMDL
MODEL 6
REMARK VINA RESULT:      -7.2      3.722      6.754
REMARK  7 active torsions:
REMARK  status: ('A' for Active; 'I' for Inactive)
REMARK    1  A    between atoms: C2_2  and  C3_3 
REMARK    2  A    between atoms: C3_3  and  N1_4 
REMARK    3  A    between atoms: C3_3  and  N2_5 
REMARK    4  A    between atoms: N2_5  and  C5_7 
REMARK    5  A    between atoms: C5_7  and  C6_8 
REMARK    6  A    between atoms: C6_8  and  C7_9 
REMARK    7  A    between atoms: C11_16  and  N5_17 
ROOT
HETATM    1  C7  UNL     1      26.380   4.492  49.258  1.00  0.00    -0.050 C 
HETATM    2  C8  UNL     1      27.566   4.702  48.732  1.00  0.00     0.054 C 
HETATM    3  S1  UNL     1      28.007   6.333  48.171  1.00  0.00    -0.108 SA
HETATM    4  C9  UNL     1      26.504   7.274  48.035  1.00  0.00     0.211 C 
HETATM    5  N3  UNL     1      26.593   8.691  48.131  1.00  0.00    -0.262 NA
HETATM    6  C10 UNL     1      25.610   9.429  48.560  1.00  0.00     0.230 C 
HETATM    7  N4  UNL     1      24.410   8.809  48.972  1.00  0.00    -0.224 NA
HETATM    8  C11 UNL     1      24.226   7.525  48.982  1.00  0.00     0.137 C 
HETATM    9  C21 UNL     1      25.413   6.672  48.811  1.00  0.00     0.023 C 
HETATM   10  C22 UNL     1      25.302   5.461  49.315  1.00  0.00     0.021 C 
ENDROOT
BRANCH   8  11
HETATM   11  N5  UNL     1      22.974   6.925  49.385  1.00  0.00    -0.356 N 
HETATM   12  C12 UNL     1      22.502   6.819  50.758  1.00  0.00     0.131 C 
HETATM   13  C13 UNL     1      22.075   5.419  51.130  1.00  0.00     0.080 C 
HETATM   14  C14 UNL     1      22.248   4.538  49.936  1.00  0.00     0.044 A 
HETATM   15  N6  UNL     1      22.428   3.223  50.259  1.00  0.00    -0.265 NA
HETATM   16  C18 UNL     1      22.245   4.875  48.582  1.00  0.00    -0.011 A 
HETATM   17  C15 UNL     1      22.594   2.316  49.282  1.00  0.00     0.117 A 
HETATM   18  C16 UNL     1      22.599   2.587  47.939  1.00  0.00     0.020 A 
HETATM   19  C17 UNL     1      22.418   3.911  47.619  1.00  0.00     0.012 A 
HETATM   20  C19 UNL     1      22.035   6.342  48.411  1.00  0.00     0.117 C 
HETATM   21  C20 UNL     1      22.293   6.847  47.032  1.00  0.00     0.037 C 
ENDBRANCH   8  11
BRANCH   1  22
HETATM   22  C6  UNL     1      26.109   3.083  49.714  1.00  0.00     0.058 C 
BRANCH  22  23
HETATM   23  C5  UNL     1      25.783   3.145  51.188  1.00  0.00     0.123 C 
BRANCH  23  24
HETATM   24  N2  UNL     1      25.560   1.830  51.692  1.00  0.00    -0.389 N 
HETATM   25  C4  UNL     1      26.731   1.013  51.768  1.00  0.00     0.145 C 
BRANCH  24  26
HETATM   26  C3  UNL     1      24.690   1.720  52.813  1.00  0.00     0.314 C 
BRANCH  26  27
HETATM   27  C2  UNL     1      23.528   0.762  52.594  1.00  0.00     0.052 C 
HETATM   28  C1  UNL     1      23.762  -0.399  53.565  1.00  0.00     0.009 C 
ENDBRANCH  26  27
BRANCH  26  29
HETATM   29  N1  UNL     1      24.056   3.034  53.011  1.00  0.00     0.101 N 
HETATM   30  H7  UNL     1      23.722   3.057  54.009  1.00  0.00     0.315 HD
HETATM   31  H8  UNL     1      24.747   3.802  52.853  1.00  0.00     0.315 HD
ENDBRANCH  26  29
ENDBRANCH  24  26
ENDBRANCH  23  24
ENDBRANCH  22  23
ENDBRANCH   1  22
TORSDOF 7
ENDMDL
MODEL 7
REMARK VINA RESULT:      -7.0      1.755      6.676
REMARK  7 active torsions:
REMARK  status: ('A' for Active; 'I' for Inactive)
REMARK    1  A    between atoms: C2_2  and  C3_3 
REMARK    2  A    between atoms: C3_3  and  N1_4 
REMARK    3  A    between atoms: C3_3  and  N2_5 
REMARK    4  A    between atoms: N2_5  and  C5_7 
REMARK    5  A    between atoms: C5_7  and  C6_8 
REMARK    6  A    between atoms: C6_8  and  C7_9 
REMARK    7  A    between atoms: C11_16  and  N5_17 
ROOT
HETATM    1  C7  UNL     1      21.578   0.712  53.081  1.00  0.00    -0.050 C 
HETATM    2  C8  UNL     1      21.802  -0.490  53.563  1.00  0.00     0.054 C 
HETATM    3  S1  UNL     1      23.441  -0.933  54.100  1.00  0.00    -0.108 SA
HETATM    4  C9  UNL     1      24.567   0.265  53.421  1.00  0.00     0.211 C 
HETATM    5  N3  UNL     1      25.805   0.471  54.091  1.00  0.00    -0.262 NA
HETATM    6  C10 UNL     1      26.451   1.601  54.041  1.00  0.00     0.230 C 
HETATM    7  N4  UNL     1      25.899   2.679  53.315  1.00  0.00    -0.224 NA
HETATM    8  C11 UNL     1      24.755   2.632  52.707  1.00  0.00     0.137 C 
HETATM    9  C21 UNL     1      23.874   1.493  53.014  1.00  0.00     0.023 C 
HETATM   10  C22 UNL     1      22.593   1.713  52.811  1.00  0.00     0.021 C 
ENDROOT
BRANCH   8  11
HETATM   11  N5  UNL     1      24.233   3.747  51.950  1.00  0.00    -0.356 N 
HETATM   12  C12 UNL     1      23.424   4.825  52.500  1.00  0.00     0.131 C 
HETATM   13  C13 UNL     1      22.154   5.068  51.721  1.00  0.00     0.080 C 
HETATM   14  C14 UNL     1      22.114   4.117  50.570  1.00  0.00     0.044 A 
HETATM   15  N6  UNL     1      20.847   3.851  50.136  1.00  0.00    -0.265 NA
HETATM   16  C18 UNL     1      23.170   3.491  49.905  1.00  0.00    -0.011 A 
HETATM   17  C15 UNL     1      20.662   3.012  49.103  1.00  0.00     0.117 A 
HETATM   18  C16 UNL     1      21.656   2.371  48.412  1.00  0.00     0.020 A 
HETATM   19  C17 UNL     1      22.929   2.642  48.852  1.00  0.00     0.012 A 
HETATM   20  C19 UNL     1      24.474   3.894  50.503  1.00  0.00     0.117 C 
HETATM   21  C20 UNL     1      25.638   3.077  50.057  1.00  0.00     0.037 C 
ENDBRANCH   8  11
BRANCH   1  22
HETATM   22  C6  UNL     1      20.158   0.994  52.667  1.00  0.00     0.058 C 
BRANCH  22  23
HETATM   23  C5  UNL     1      19.391  -0.303  52.786  1.00  0.00     0.123 C 
BRANCH  23  24
HETATM   24  N2  UNL     1      18.104  -0.163  52.189  1.00  0.00    -0.389 N 
HETATM   25  C4  UNL     1      18.123   0.221  50.812  1.00  0.00     0.145 C 
BRANCH  24  26
HETATM   26  C3  UNL     1      17.146  -1.164  52.509  1.00  0.00     0.314 C 
BRANCH  26  27
HETATM   27  C2  UNL     1      15.721  -0.638  52.609  1.00  0.00     0.052 C 
HETATM   28  C1  UNL     1      14.887  -1.528  51.682  1.00  0.00     0.009 C 
ENDBRANCH  26  27
BRANCH  26  29
HETATM   29  N1  UNL     1      17.455  -1.656  53.862  1.00  0.00     0.101 N 
HETATM   30  H7  UNL     1      17.463  -0.814  54.492  1.00  0.00     0.315 HD
HETATM   31  H8  UNL     1      16.724  -2.330  54.183  1.00  0.00     0.315 HD
ENDBRANCH  26  29
ENDBRANCH  24  26
ENDBRANCH  23  24
ENDBRANCH  22  23
ENDBRANCH   1  22
TORSDOF 7
ENDMDL
MODEL 8
REMARK VINA RESULT:      -7.0      1.797      3.579
REMARK  7 active torsions:
REMARK  status: ('A' for Active; 'I' for Inactive)
REMARK    1  A    between atoms: C2_2  and  C3_3 
REMARK    2  A    between atoms: C3_3  and  N1_4 
REMARK    3  A    between atoms: C3_3  and  N2_5 
REMARK    4  A    between atoms: N2_5  and  C5_7 
REMARK    5  A    between atoms: C5_7  and  C6_8 
REMARK    6  A    between atoms: C6_8  and  C7_9 
REMARK    7  A    between atoms: C11_16  and  N5_17 
ROOT
HETATM    1  C7  UNL     1      23.417   0.059  53.476  1.00  0.00    -0.050 C 
HETATM    2  C8  UNL     1      23.102  -0.862  54.359  1.00  0.00     0.054 C 
HETATM    3  S1  UNL     1      21.418  -1.428  54.481  1.00  0.00    -0.108 SA
HETATM    4  C9  UNL     1      20.395  -0.242  53.637  1.00  0.00     0.211 C 
HETATM    5  N3  UNL     1      19.142  -0.685  53.128  1.00  0.00    -0.262 NA
HETATM    6  C10 UNL     1      18.567  -0.130  52.100  1.00  0.00     0.230 C 
HETATM    7  N4  UNL     1      19.212   0.940  51.442  1.00  0.00    -0.224 NA
HETATM    8  C11 UNL     1      20.377   1.398  51.778  1.00  0.00     0.137 C 
HETATM    9  C21 UNL     1      21.175   0.591  52.715  1.00  0.00     0.023 C 
HETATM   10  C22 UNL     1      22.476   0.784  52.645  1.00  0.00     0.021 C 
ENDROOT
BRANCH   8  11
HETATM   11  N5  UNL     1      20.997   2.514  51.100  1.00  0.00    -0.356 N 
HETATM   12  C12 UNL     1      21.335   3.786  51.721  1.00  0.00     0.131 C 
HETATM   13  C13 UNL     1      20.812   4.977  50.954  1.00  0.00     0.080 C 
HETATM   14  C14 UNL     1      20.100   4.481  49.737  1.00  0.00     0.044 A 
HETATM   15  N6  UNL     1      19.152   5.350  49.278  1.00  0.00    -0.265 NA
HETATM   16  C18 UNL     1      20.278   3.288  49.035  1.00  0.00    -0.011 A 
HETATM   17  C15 UNL     1      18.435   5.034  48.186  1.00  0.00     0.117 A 
HETATM   18  C16 UNL     1      18.565   3.881  47.457  1.00  0.00     0.020 A 
HETATM   19  C17 UNL     1      19.520   3.010  47.923  1.00  0.00     0.012 A 
HETATM   20  C19 UNL     1      21.347   2.465  49.669  1.00  0.00     0.117 C 
HETATM   21  C20 UNL     1      21.424   1.062  49.172  1.00  0.00     0.037 C 
ENDBRANCH   8  11
BRANCH   1  22
HETATM   22  C6  UNL     1      24.868   0.459  53.442  1.00  0.00     0.058 C 
BRANCH  22  23
HETATM   23  C5  UNL     1      25.201   0.812  52.011  1.00  0.00     0.123 C 
BRANCH  23  24
HETATM   24  N2  UNL     1      25.773   2.117  51.953  1.00  0.00    -0.389 N 
HETATM   25  C4  UNL     1      27.167   2.172  52.263  1.00  0.00     0.145 C 
BRANCH  24  26
HETATM   26  C3  UNL     1      25.380   2.932  50.855  1.00  0.00     0.314 C 
BRANCH  26  27
HETATM   27  C2  UNL     1      26.521   3.281  49.911  1.00  0.00     0.052 C 
HETATM   28  C1  UNL     1      26.167   4.651  49.324  1.00  0.00     0.009 C 
ENDBRANCH  26  27
BRANCH  26  29
HETATM   29  N1  UNL     1      24.941   4.227  51.401  1.00  0.00     0.101 N 
HETATM   30  H7  UNL     1      25.814   4.750  51.669  1.00  0.00     0.315 HD
HETATM   31  H8  UNL     1      24.412   4.768  50.681  1.00  0.00     0.315 HD
ENDBRANCH  26  29
ENDBRANCH  24  26
ENDBRANCH  23  24
ENDBRANCH  22  23
ENDBRANCH   1  22
TORSDOF 7
ENDMDL
MODEL 9
REMARK VINA RESULT:      -6.8      4.297      7.248
REMARK  7 active torsions:
REMARK  status: ('A' for Active; 'I' for Inactive)
REMARK    1  A    between atoms: C2_2  and  C3_3 
REMARK    2  A    between atoms: C3_3  and  N1_4 
REMARK    3  A    between atoms: C3_3  and  N2_5 
REMARK    4  A    between atoms: N2_5  and  C5_7 
REMARK    5  A    between atoms: C5_7  and  C6_8 
REMARK    6  A    between atoms: C6_8  and  C7_9 
REMARK    7  A    between atoms: C11_16  and  N5_17 
ROOT
HETATM    1  C7  UNL     1      26.480   4.757  49.141  1.00  0.00    -0.050 C 
HETATM    2  C8  UNL     1      27.700   4.623  48.673  1.00  0.00     0.054 C 
HETATM    3  S1  UNL     1      28.623   6.067  48.189  1.00  0.00    -0.108 SA
HETATM    4  C9  UNL     1      27.467   7.409  48.025  1.00  0.00     0.211 C 
HETATM    5  N3  UNL     1      27.959   8.735  48.175  1.00  0.00    -0.262 NA
HETATM    6  C10 UNL     1      27.212   9.719  48.590  1.00  0.00     0.230 C 
HETATM    7  N4  UNL     1      25.865   9.466  48.930  1.00  0.00    -0.224 NA
HETATM    8  C11 UNL     1      25.316   8.292  48.887  1.00  0.00     0.137 C 
HETATM    9  C21 UNL     1      26.211   7.134  48.734  1.00  0.00     0.023 C 
HETATM   10  C22 UNL     1      25.729   5.997  49.189  1.00  0.00     0.021 C 
ENDROOT
BRANCH   8  11
HETATM   11  N5  UNL     1      23.926   8.074  49.216  1.00  0.00    -0.356 N 
HETATM   12  C12 UNL     1      23.395   7.958  50.566  1.00  0.00     0.131 C 
HETATM   13  C13 UNL     1      22.537   6.731  50.761  1.00  0.00     0.080 C 
HETATM   14  C14 UNL     1      22.466   5.991  49.465  1.00  0.00     0.044 A 
HETATM   15  N6  UNL     1      22.213   4.658  49.620  1.00  0.00    -0.265 NA
HETATM   16  C18 UNL     1      22.619   6.473  48.164  1.00  0.00    -0.011 A 
HETATM   17  C15 UNL     1      22.120   3.870  48.536  1.00  0.00     0.117 A 
HETATM   18  C16 UNL     1      22.259   4.285  47.237  1.00  0.00     0.020 A 
HETATM   19  C17 UNL     1      22.514   5.627  47.087  1.00  0.00     0.012 A 
HETATM   20  C19 UNL     1      22.886   7.940  48.180  1.00  0.00     0.117 C 
HETATM   21  C20 UNL     1      23.339   8.500  46.875  1.00  0.00     0.037 C 
ENDBRANCH   8  11
BRANCH   1  22
HETATM   22  C6  UNL     1      25.789   3.479  49.535  1.00  0.00     0.058 C 
BRANCH  22  23
HETATM   23  C5  UNL     1      26.507   2.937  50.750  1.00  0.00     0.123 C 
BRANCH  23  24
HETATM   24  N2  UNL     1      25.559   2.486  51.714  1.00  0.00    -0.389 N 
HETATM   25  C4  UNL     1      24.263   2.196  51.187  1.00  0.00     0.145 C 
BRANCH  24  26
HETATM   26  C3  UNL     1      26.030   1.547  52.674  1.00  0.00     0.314 C 
BRANCH  26  27
HETATM   27  C2  UNL     1      26.950   0.484  52.091  1.00  0.00     0.052 C 
HETATM   28  C1  UNL     1      26.421  -0.853  52.617  1.00  0.00     0.009 C 
ENDBRANCH  26  27
BRANCH  26  29
HETATM   29  N1  UNL     1      24.864   0.798  53.170  1.00  0.00     0.101 N 
HETATM   30  H7  UNL     1      25.099  -0.223  53.067  1.00  0.00     0.315 HD
HETATM   31  H8  UNL     1      24.686   1.020  54.175  1.00  0.00     0.315 HD
ENDBRANCH  26  29
ENDBRANCH  24  26
ENDBRANCH  23  24
ENDBRANCH  22  23
ENDBRANCH   1  22
TORSDOF 7
ENDMDL
