MODEL 1
REMARK VINA RESULT:      -7.7      0.000      0.000
REMARK  1 active torsions:
REMARK  status: ('A' for Active; 'I' for Inactive)
REMARK    1  A    between atoms: N3_21  and  C17_22 
ROOT
HETATM    1 CL1  UNL     1      27.858   4.901  48.481  1.00  0.00    -0.083 Cl
HETATM    2  C1  UNL     1      29.384   5.859  48.224  1.00  0.00     0.046 C 
HETATM    3  C2  UNL     1      30.515   5.255  47.892  1.00  0.00     0.024 C 
HETATM    4  C3  UNL     1      31.677   4.458  47.526  1.00  0.00    -0.001 C 
HETATM    5  C4  UNL     1      33.012   4.453  47.266  1.00  0.00    -0.007 C 
HETATM    6  C5  UNL     1      34.057   5.599  47.284  1.00  0.00     0.157 C 
HETATM    7  N1  UNL     1      33.300   6.673  47.828  1.00  0.00    -0.338 N 
HETATM    8  C6  UNL     1      32.855   6.324  49.162  1.00  0.00     0.094 A 
HETATM    9  C7  UNL     1      32.096   7.114  49.887  1.00  0.00     0.034 A 
HETATM   10  C8  UNL     1      31.884   8.228  49.083  1.00  0.00     0.026 A 
HETATM   11  C9  UNL     1      31.027   9.162  49.046  1.00  0.00     0.103 C 
HETATM   12  N2  UNL     1      29.936   9.279  49.906  1.00  0.00    -0.364 N 
HETATM   13  C10 UNL     1      29.203   8.575  48.879  1.00  0.00     0.045 A 
HETATM   14  C11 UNL     1      28.471   9.650  48.345  1.00  0.00     0.049 A 
HETATM   15  C12 UNL     1      27.573   9.671  47.256  1.00  0.00     0.013 A 
HETATM   16 BR1  UNL     1      26.629  11.177  46.608  1.00  0.00    -0.051 Br
HETATM   17  C13 UNL     1      27.387   8.464  46.625  1.00  0.00     0.020 A 
HETATM   18  C14 UNL     1      28.150   7.415  47.210  1.00  0.00     0.017 A 
HETATM   19  C15 UNL     1      29.073   7.303  48.303  1.00  0.00     0.012 A 
HETATM   20  C16 UNL     1      32.628   7.897  47.900  1.00  0.00     0.141 A 
HETATM   21  N3  UNL     1      32.994   8.216  46.810  1.00  0.00    -0.209 NA
HETATM   22  H9  UNL     1      29.730   9.673  50.792  1.00  0.00     0.165 HD
ENDROOT
BRANCH  21  23
HETATM   23  C17 UNL     1      33.704   7.881  45.710  1.00  0.00     0.328 A 
HETATM   24  N4  UNL     1      34.345   9.086  45.667  1.00  0.00    -0.152 NA
HETATM   25  N5  UNL     1      34.620   8.129  44.719  1.00  0.00    -0.257 N 
HETATM   26  H13 UNL     1      35.324   8.406  44.016  1.00  0.00     0.187 HD
ENDBRANCH  21  23
TORSDOF 1
ENDMDL
MODEL 2
REMARK VINA RESULT:      -7.5      6.412      8.596
REMARK  1 active torsions:
REMARK  status: ('A' for Active; 'I' for Inactive)
REMARK    1  A    between atoms: N3_21  and  C17_22 
ROOT
HETATM    1 CL1  UNL     1      22.812   6.375  46.578  1.00  0.00    -0.083 Cl
HETATM    2  C1  UNL     1      23.267   5.588  48.155  1.00  0.00     0.046 C 
HETATM    3  C2  UNL     1      22.935   4.330  48.404  1.00  0.00     0.024 C 
HETATM    4  C3  UNL     1      22.509   2.945  48.536  1.00  0.00    -0.001 C 
HETATM    5  C4  UNL     1      22.436   1.853  49.343  1.00  0.00    -0.007 C 
HETATM    6  C5  UNL     1      22.886   1.642  50.813  1.00  0.00     0.157 C 
HETATM    7  N1  UNL     1      23.255   2.960  51.196  1.00  0.00    -0.338 N 
HETATM    8  C6  UNL     1      22.100   3.832  51.103  1.00  0.00     0.094 A 
HETATM    9  C7  UNL     1      22.160   5.119  51.356  1.00  0.00     0.034 A 
HETATM   10  C8  UNL     1      23.490   5.348  51.689  1.00  0.00     0.026 A 
HETATM   11  C9  UNL     1      24.249   6.364  51.720  1.00  0.00     0.103 C 
HETATM   12  N2  UNL     1      23.871   7.654  51.347  1.00  0.00    -0.364 N 
HETATM   13  C10 UNL     1      24.404   7.306  50.050  1.00  0.00     0.045 A 
HETATM   14  C11 UNL     1      25.607   8.031  50.096  1.00  0.00     0.049 A 
HETATM   15  C12 UNL     1      26.652   8.098  49.150  1.00  0.00     0.013 A 
HETATM   16 BR1  UNL     1      28.244   9.109  49.302  1.00  0.00    -0.051 Br
HETATM   17  C13 UNL     1      26.466   7.342  48.017  1.00  0.00     0.020 A 
HETATM   18  C14 UNL     1      25.232   6.634  48.025  1.00  0.00     0.017 A 
HETATM   19  C15 UNL     1      24.125   6.510  48.930  1.00  0.00     0.012 A 
HETATM   20  C16 UNL     1      24.062   4.036  51.581  1.00  0.00     0.141 A 
HETATM   21  N3  UNL     1      25.025   3.338  51.680  1.00  0.00    -0.209 NA
HETATM   22  H9  UNL     1      23.457   8.453  51.762  1.00  0.00     0.165 HD
ENDROOT
BRANCH  21  23
HETATM   23  C17 UNL     1      25.537   2.092  51.573  1.00  0.00     0.328 A 
HETATM   24  N4  UNL     1      26.818   2.550  51.448  1.00  0.00    -0.152 NA
HETATM   25  N5  UNL     1      26.568   1.198  51.422  1.00  0.00    -0.257 N 
HETATM   26  H13 UNL     1      27.404   0.605  51.307  1.00  0.00     0.187 HD
ENDBRANCH  21  23
TORSDOF 1
ENDMDL
MODEL 3
REMARK VINA RESULT:      -7.3      3.376      4.478
REMARK  1 active torsions:
REMARK  status: ('A' for Active; 'I' for Inactive)
REMARK    1  A    between atoms: N3_21  and  C17_22 
ROOT
HETATM    1 CL1  UNL     1      33.072   5.818  42.465  1.00  0.00    -0.083 Cl
HETATM    2  C1  UNL     1      33.163   5.767  44.282  1.00  0.00     0.046 C 
HETATM    3  C2  UNL     1      33.856   4.821  44.898  1.00  0.00     0.024 C 
HETATM    4  C3  UNL     1      34.657   3.730  45.436  1.00  0.00    -0.001 C 
HETATM    5  C4  UNL     1      35.087   3.082  46.550  1.00  0.00    -0.007 C 
HETATM    6  C5  UNL     1      34.786   3.330  48.052  1.00  0.00     0.157 C 
HETATM    7  N1  UNL     1      33.776   4.328  47.985  1.00  0.00    -0.338 N 
HETATM    8  C6  UNL     1      32.623   3.802  47.280  1.00  0.00     0.094 A 
HETATM    9  C7  UNL     1      31.554   4.522  47.031  1.00  0.00     0.034 A 
HETATM   10  C8  UNL     1      31.838   5.770  47.575  1.00  0.00     0.026 A 
HETATM   11  C9  UNL     1      31.398   6.947  47.408  1.00  0.00     0.103 C 
HETATM   12  N2  UNL     1      30.411   7.308  46.491  1.00  0.00    -0.364 N 
HETATM   13  C10 UNL     1      31.512   7.602  45.603  1.00  0.00     0.045 A 
HETATM   14  C11 UNL     1      31.491   9.005  45.671  1.00  0.00     0.049 A 
HETATM   15  C12 UNL     1      32.351   9.947  45.067  1.00  0.00     0.013 A 
HETATM   16 BR1  UNL     1      32.242  11.830  45.218  1.00  0.00    -0.051 Br
HETATM   17  C13 UNL     1      33.358   9.412  44.298  1.00  0.00     0.020 A 
HETATM   18  C14 UNL     1      33.327   7.990  44.264  1.00  0.00     0.017 A 
HETATM   19  C15 UNL     1      32.501   6.967  44.838  1.00  0.00     0.012 A 
HETATM   20  C16 UNL     1      33.151   5.572  48.122  1.00  0.00     0.141 A 
HETATM   21  N3  UNL     1      34.081   6.025  48.717  1.00  0.00    -0.209 NA
HETATM   22  H9  UNL     1      29.423   7.366  46.452  1.00  0.00     0.165 HD
ENDROOT
BRANCH  21  23
HETATM   23  C17 UNL     1      35.315   5.811  49.225  1.00  0.00     0.328 A 
HETATM   24  N4  UNL     1      35.813   6.967  48.697  1.00  0.00    -0.152 NA
HETATM   25  N5  UNL     1      36.629   6.143  49.434  1.00  0.00    -0.257 N 
HETATM   26  H13 UNL     1      37.600   6.477  49.540  1.00  0.00     0.187 HD
ENDBRANCH  21  23
TORSDOF 1
ENDMDL
MODEL 4
REMARK VINA RESULT:      -7.3      7.947     10.197
REMARK  1 active torsions:
REMARK  status: ('A' for Active; 'I' for Inactive)
REMARK    1  A    between atoms: N3_21  and  C17_22 
ROOT
HETATM    1 CL1  UNL     1      22.188   4.717  46.692  1.00  0.00    -0.083 Cl
HETATM    2  C1  UNL     1      22.317   4.215  48.438  1.00  0.00     0.046 C 
HETATM    3  C2  UNL     1      22.043   2.973  48.807  1.00  0.00     0.024 C 
HETATM    4  C3  UNL     1      21.715   1.578  49.063  1.00  0.00    -0.001 C 
HETATM    5  C4  UNL     1      21.543   0.608  50.000  1.00  0.00    -0.007 C 
HETATM    6  C5  UNL     1      21.645   0.656  51.547  1.00  0.00     0.157 C 
HETATM    7  N1  UNL     1      21.799   2.050  51.784  1.00  0.00    -0.338 N 
HETATM    8  C6  UNL     1      20.631   2.755  51.295  1.00  0.00     0.094 A 
HETATM    9  C7  UNL     1      20.520   4.063  51.342  1.00  0.00     0.034 A 
HETATM   10  C8  UNL     1      21.708   4.494  51.923  1.00  0.00     0.026 A 
HETATM   11  C9  UNL     1      22.348   5.588  51.958  1.00  0.00     0.103 C 
HETATM   12  N2  UNL     1      21.964   6.759  51.306  1.00  0.00    -0.364 N 
HETATM   13  C10 UNL     1      22.819   6.301  50.235  1.00  0.00     0.045 A 
HETATM   14  C11 UNL     1      23.911   7.165  50.431  1.00  0.00     0.049 A 
HETATM   15  C12 UNL     1      25.142   7.225  49.745  1.00  0.00     0.013 A 
HETATM   16 BR1  UNL     1      26.560   8.431  50.083  1.00  0.00    -0.051 Br
HETATM   17  C13 UNL     1      25.297   6.303  48.736  1.00  0.00     0.020 A 
HETATM   18  C14 UNL     1      24.161   5.460  48.583  1.00  0.00     0.017 A 
HETATM   19  C15 UNL     1      22.884   5.332  49.225  1.00  0.00     0.012 A 
HETATM   20  C16 UNL     1      22.397   3.257  52.160  1.00  0.00     0.141 A 
HETATM   21  N3  UNL     1      23.364   2.700  52.584  1.00  0.00    -0.209 NA
HETATM   22  H9  UNL     1      21.397   7.552  51.482  1.00  0.00     0.165 HD
ENDROOT
BRANCH  21  23
HETATM   23  C17 UNL     1      23.989   1.521  52.798  1.00  0.00     0.328 A 
HETATM   24  N4  UNL     1      25.078   2.119  53.366  1.00  0.00    -0.152 NA
HETATM   25  N5  UNL     1      25.034   0.751  53.243  1.00  0.00    -0.257 N 
HETATM   26  H13 UNL     1      25.863   0.256  53.608  1.00  0.00     0.187 HD
ENDBRANCH  21  23
TORSDOF 1
ENDMDL
MODEL 5
REMARK VINA RESULT:      -7.3      3.729      5.717
REMARK  1 active torsions:
REMARK  status: ('A' for Active; 'I' for Inactive)
REMARK    1  A    between atoms: N3_21  and  C17_22 
ROOT
HETATM    1 CL1  UNL     1      35.783   8.104  48.244  1.00  0.00    -0.083 Cl
HETATM    2  C1  UNL     1      34.010   8.285  47.869  1.00  0.00     0.046 C 
HETATM    3  C2  UNL     1      33.539   9.411  47.355  1.00  0.00     0.024 C 
HETATM    4  C3  UNL     1      33.166  10.700  46.791  1.00  0.00    -0.001 C 
HETATM    5  C4  UNL     1      32.153  11.502  46.367  1.00  0.00    -0.007 C 
HETATM    6  C5  UNL     1      30.619  11.275  46.339  1.00  0.00     0.157 C 
HETATM    7  N1  UNL     1      30.494  10.049  47.049  1.00  0.00    -0.338 N 
HETATM    8  C6  UNL     1      30.992  10.220  48.399  1.00  0.00     0.094 A 
HETATM    9  C7  UNL     1      31.039   9.237  49.268  1.00  0.00     0.034 A 
HETATM   10  C8  UNL     1      30.536   8.137  48.580  1.00  0.00     0.026 A 
HETATM   11  C9  UNL     1      30.607   6.879  48.718  1.00  0.00     0.103 C 
HETATM   12  N2  UNL     1      31.332   6.224  49.714  1.00  0.00    -0.364 N 
HETATM   13  C10 UNL     1      32.395   6.170  48.737  1.00  0.00     0.045 A 
HETATM   14  C11 UNL     1      32.305   4.814  48.378  1.00  0.00     0.049 A 
HETATM   15  C12 UNL     1      33.038   4.090  47.414  1.00  0.00     0.013 A 
HETATM   16 BR1  UNL     1      32.844   2.254  46.999  1.00  0.00    -0.051 Br
HETATM   17  C13 UNL     1      33.979   4.818  46.725  1.00  0.00     0.020 A 
HETATM   18  C14 UNL     1      34.027   6.180  47.132  1.00  0.00     0.017 A 
HETATM   19  C15 UNL     1      33.330   6.990  48.091  1.00  0.00     0.012 A 
HETATM   20  C16 UNL     1      30.232   8.697  47.293  1.00  0.00     0.141 A 
HETATM   21  N3  UNL     1      29.803   8.533  46.191  1.00  0.00    -0.209 NA
HETATM   22  H9  UNL     1      31.195   5.913  50.644  1.00  0.00     0.165 HD
ENDROOT
BRANCH  21  23
HETATM   23  C17 UNL     1      29.523   9.086  44.991  1.00  0.00     0.328 A 
HETATM   24  N4  UNL     1      28.324   8.438  44.891  1.00  0.00    -0.152 NA
HETATM   25  N5  UNL     1      28.734   9.281  43.885  1.00  0.00    -0.257 N 
HETATM   26  H13 UNL     1      28.075   9.367  43.095  1.00  0.00     0.187 HD
ENDBRANCH  21  23
TORSDOF 1
ENDMDL
MODEL 6
REMARK VINA RESULT:      -7.3      3.692      5.998
REMARK  1 active torsions:
REMARK  status: ('A' for Active; 'I' for Inactive)
REMARK    1  A    between atoms: N3_21  and  C17_22 
ROOT
HETATM    1 CL1  UNL     1      33.494   5.281  43.471  1.00  0.00    -0.083 Cl
HETATM    2  C1  UNL     1      33.236   6.138  45.056  1.00  0.00     0.046 C 
HETATM    3  C2  UNL     1      32.643   7.321  45.097  1.00  0.00     0.024 C 
HETATM    4  C3  UNL     1      31.976   8.611  44.989  1.00  0.00    -0.001 C 
HETATM    5  C4  UNL     1      31.546   9.723  45.641  1.00  0.00    -0.007 C 
HETATM    6  C5  UNL     1      31.656  10.135  47.133  1.00  0.00     0.157 C 
HETATM    7  N1  UNL     1      32.499   9.114  47.654  1.00  0.00    -0.338 N 
HETATM    8  C6  UNL     1      33.783   9.159  46.983  1.00  0.00     0.094 A 
HETATM    9  C7  UNL     1      34.745   8.301  47.233  1.00  0.00     0.034 A 
HETATM   10  C8  UNL     1      34.216   7.455  48.203  1.00  0.00     0.026 A 
HETATM   11  C9  UNL     1      34.480   6.288  48.621  1.00  0.00     0.103 C 
HETATM   12  N2  UNL     1      35.482   5.464  48.110  1.00  0.00    -0.364 N 
HETATM   13  C10 UNL     1      34.440   4.920  47.270  1.00  0.00     0.045 A 
HETATM   14  C11 UNL     1      34.234   3.695  47.929  1.00  0.00     0.049 A 
HETATM   15  C12 UNL     1      33.299   2.674  47.654  1.00  0.00     0.013 A 
HETATM   16 BR1  UNL     1      33.096   1.051  48.604  1.00  0.00    -0.051 Br
HETATM   17  C13 UNL     1      32.469   2.912  46.584  1.00  0.00     0.020 A 
HETATM   18  C14 UNL     1      32.726   4.162  45.956  1.00  0.00     0.017 A 
HETATM   19  C15 UNL     1      33.643   5.246  46.164  1.00  0.00     0.012 A 
HETATM   20  C16 UNL     1      32.903   8.003  48.401  1.00  0.00     0.141 A 
HETATM   21  N3  UNL     1      31.860   7.954  48.979  1.00  0.00    -0.209 NA
HETATM   22  H9  UNL     1      36.448   5.297  48.254  1.00  0.00     0.165 HD
ENDROOT
BRANCH  21  23
HETATM   23  C17 UNL     1      30.632   8.492  49.148  1.00  0.00     0.328 A 
HETATM   24  N4  UNL     1      29.999   7.315  48.867  1.00  0.00    -0.152 NA
HETATM   25  N5  UNL     1      29.261   8.435  49.170  1.00  0.00    -0.257 N 
HETATM   26  H13 UNL     1      28.239   8.295  49.164  1.00  0.00     0.187 HD
ENDBRANCH  21  23
TORSDOF 1
ENDMDL
MODEL 7
REMARK VINA RESULT:      -7.2      7.039      9.037
REMARK  1 active torsions:
REMARK  status: ('A' for Active; 'I' for Inactive)
REMARK    1  A    between atoms: N3_21  and  C17_22 
ROOT
HETATM    1 CL1  UNL     1      26.206   2.129  51.466  1.00  0.00    -0.083 Cl
HETATM    2  C1  UNL     1      25.295   3.535  50.754  1.00  0.00     0.046 C 
HETATM    3  C2  UNL     1      25.890   4.374  49.919  1.00  0.00     0.024 C 
HETATM    4  C3  UNL     1      26.670   5.208  49.016  1.00  0.00    -0.001 C 
HETATM    5  C4  UNL     1      26.697   6.328  48.246  1.00  0.00    -0.007 C 
HETATM    6  C5  UNL     1      25.624   7.421  48.001  1.00  0.00     0.157 C 
HETATM    7  N1  UNL     1      24.621   7.058  48.941  1.00  0.00    -0.338 N 
HETATM    8  C6  UNL     1      25.167   7.127  50.282  1.00  0.00     0.094 A 
HETATM    9  C7  UNL     1      24.475   6.801  51.349  1.00  0.00     0.034 A 
HETATM   10  C8  UNL     1      23.231   6.421  50.855  1.00  0.00     0.026 A 
HETATM   11  C9  UNL     1      22.263   5.726  51.290  1.00  0.00     0.103 C 
HETATM   12  N2  UNL     1      22.240   5.073  52.522  1.00  0.00    -0.364 N 
HETATM   13  C10 UNL     1      22.723   3.926  51.788  1.00  0.00     0.045 A 
HETATM   14  C11 UNL     1      21.539   3.170  51.741  1.00  0.00     0.049 A 
HETATM   15  C12 UNL     1      21.289   1.931  51.115  1.00  0.00     0.013 A 
HETATM   16 BR1  UNL     1      19.651   0.984  51.107  1.00  0.00    -0.051 Br
HETATM   17  C13 UNL     1      22.362   1.381  50.453  1.00  0.00     0.020 A 
HETATM   18  C14 UNL     1      23.531   2.188  50.537  1.00  0.00     0.017 A 
HETATM   19  C15 UNL     1      23.871   3.443  51.145  1.00  0.00     0.012 A 
HETATM   20  C16 UNL     1      23.394   6.608  49.441  1.00  0.00     0.141 A 
HETATM   21  N3  UNL     1      22.915   6.558  48.349  1.00  0.00    -0.209 NA
HETATM   22  H9  UNL     1      21.991   5.271  53.460  1.00  0.00     0.165 HD
ENDROOT
BRANCH  21  23
HETATM   23  C17 UNL     1      23.094   6.746  47.023  1.00  0.00     0.328 A 
HETATM   24  N4  UNL     1      21.883   6.200  46.708  1.00  0.00    -0.152 NA
HETATM   25  N5  UNL     1      22.706   6.665  45.710  1.00  0.00    -0.257 N 
HETATM   26  H13 UNL     1      22.328   6.564  44.754  1.00  0.00     0.187 HD
ENDBRANCH  21  23
TORSDOF 1
ENDMDL
MODEL 8
REMARK VINA RESULT:      -7.1      8.664     10.922
REMARK  1 active torsions:
REMARK  status: ('A' for Active; 'I' for Inactive)
REMARK    1  A    between atoms: N3_21  and  C17_22 
ROOT
HETATM    1 CL1  UNL     1      26.374   5.105  48.958  1.00  0.00    -0.083 Cl
HETATM    2  C1  UNL     1      24.619   4.932  49.411  1.00  0.00     0.046 C 
HETATM    3  C2  UNL     1      23.664   5.233  48.545  1.00  0.00     0.024 C 
HETATM    4  C3  UNL     1      22.726   5.596  47.492  1.00  0.00    -0.001 C 
HETATM    5  C4  UNL     1      21.423   5.767  47.143  1.00  0.00    -0.007 C 
HETATM    6  C5  UNL     1      20.119   5.611  47.970  1.00  0.00     0.157 C 
HETATM    7  N1  UNL     1      20.630   5.405  49.281  1.00  0.00    -0.338 N 
HETATM    8  C6  UNL     1      21.395   6.566  49.690  1.00  0.00     0.094 A 
HETATM    9  C7  UNL     1      22.021   6.634  50.842  1.00  0.00     0.034 A 
HETATM   10  C8  UNL     1      21.758   5.414  51.455  1.00  0.00     0.026 A 
HETATM   11  C9  UNL     1      22.295   4.738  52.384  1.00  0.00     0.103 C 
HETATM   12  N2  UNL     1      23.449   5.107  53.075  1.00  0.00    -0.364 N 
HETATM   13  C10 UNL     1      24.147   4.304  52.098  1.00  0.00     0.045 A 
HETATM   14  C11 UNL     1      24.434   3.179  52.891  1.00  0.00     0.049 A 
HETATM   15  C12 UNL     1      25.070   1.970  52.537  1.00  0.00     0.013 A 
HETATM   16 BR1  UNL     1      25.414   0.504  53.683  1.00  0.00    -0.051 Br
HETATM   17  C13 UNL     1      25.469   1.879  51.224  1.00  0.00     0.020 A 
HETATM   18  C14 UNL     1      25.155   3.046  50.473  1.00  0.00     0.017 A 
HETATM   19  C15 UNL     1      24.520   4.304  50.747  1.00  0.00     0.012 A 
HETATM   20  C16 UNL     1      20.931   4.756  50.483  1.00  0.00     0.141 A 
HETATM   21  N3  UNL     1      20.295   3.794  50.177  1.00  0.00    -0.209 NA
HETATM   22  H9  UNL     1      23.695   5.642  53.872  1.00  0.00     0.165 HD
ENDROOT
BRANCH  21  23
HETATM   23  C17 UNL     1      19.517   3.199  49.246  1.00  0.00     0.328 A 
HETATM   24  N4  UNL     1      19.927   1.945  49.598  1.00  0.00    -0.152 NA
HETATM   25  N5  UNL     1      19.015   2.107  48.582  1.00  0.00    -0.257 N 
HETATM   26  H13 UNL     1      18.693   1.230  48.145  1.00  0.00     0.187 HD
ENDBRANCH  21  23
TORSDOF 1
ENDMDL
MODEL 9
REMARK VINA RESULT:      -7.1      4.818      6.695
REMARK  1 active torsions:
REMARK  status: ('A' for Active; 'I' for Inactive)
REMARK    1  A    between atoms: N3_21  and  C17_22 
ROOT
HETATM    1 CL1  UNL     1      26.754   3.607  49.767  1.00  0.00    -0.083 Cl
HETATM    2  C1  UNL     1      26.367   5.324  49.301  1.00  0.00     0.046 C 
HETATM    3  C2  UNL     1      27.193   6.019  48.534  1.00  0.00     0.024 C 
HETATM    4  C3  UNL     1      28.188   6.657  47.684  1.00  0.00    -0.001 C 
HETATM    5  C4  UNL     1      28.581   7.798  47.057  1.00  0.00    -0.007 C 
HETATM    6  C5  UNL     1      27.946   9.214  47.028  1.00  0.00     0.157 C 
HETATM    7  N1  UNL     1      26.906   9.085  47.989  1.00  0.00    -0.338 N 
HETATM    8  C6  UNL     1      27.479   8.774  49.283  1.00  0.00     0.094 A 
HETATM    9  C7  UNL     1      26.746   8.556  50.351  1.00  0.00     0.034 A 
HETATM   10  C8  UNL     1      25.435   8.694  49.908  1.00  0.00     0.026 A 
HETATM   11  C9  UNL     1      24.299   8.316  50.326  1.00  0.00     0.103 C 
HETATM   12  N2  UNL     1      24.084   7.543  51.466  1.00  0.00    -0.364 N 
HETATM   13  C10 UNL     1      24.120   6.415  50.564  1.00  0.00     0.045 A 
HETATM   14  C11 UNL     1      22.746   6.121  50.513  1.00  0.00     0.049 A 
HETATM   15  C12 UNL     1      22.066   5.141  49.760  1.00  0.00     0.013 A 
HETATM   16 BR1  UNL     1      20.201   4.818  49.758  1.00  0.00    -0.051 Br
HETATM   17  C13 UNL     1      22.863   4.358  48.958  1.00  0.00     0.020 A 
HETATM   18  C14 UNL     1      24.241   4.700  49.053  1.00  0.00     0.017 A 
HETATM   19  C15 UNL     1      25.011   5.667  49.783  1.00  0.00     0.012 A 
HETATM   20  C16 UNL     1      25.614   9.012  48.520  1.00  0.00     0.141 A 
HETATM   21  N3  UNL     1      25.117   9.281  47.468  1.00  0.00    -0.209 NA
HETATM   22  H9  UNL     1      23.946   7.680  52.438  1.00  0.00     0.165 HD
ENDROOT
BRANCH  21  23
HETATM   23  C17 UNL     1      25.313   9.582  46.166  1.00  0.00     0.328 A 
HETATM   24  N4  UNL     1      24.201   8.898  45.765  1.00  0.00    -0.152 NA
HETATM   25  N5  UNL     1      24.985   9.537  44.834  1.00  0.00    -0.257 N 
HETATM   26  H13 UNL     1      24.658   9.451  43.859  1.00  0.00     0.187 HD
ENDBRANCH  21  23
TORSDOF 1
ENDMDL
