MODEL 1
REMARK VINA RESULT:      -8.1      0.000      0.000
REMARK  2 active torsions:
REMARK  status: ('A' for Active; 'I' for Inactive)
REMARK       I    between atoms: N1_1  and  C1_2 
REMARK       I    between atoms: C1_2  and  N2_4 
REMARK    1  A    between atoms: N2_4  and  C2_5 
REMARK    2  A    between atoms: N3_11  and  C8_12 
ROOT
HETATM    1  C2  UNL     1      26.054   2.112  53.088  1.00  0.00     0.038 A 
HETATM    2  C3  UNL     1      25.115   1.195  53.429  1.00  0.00     0.032 A 
HETATM    3  C4  UNL     1      23.982   0.903  52.692  1.00  0.00     0.036 A 
HETATM    4  C5  UNL     1      23.766   1.570  51.528  1.00  0.00     0.083 A 
HETATM    5  C6  UNL     1      24.697   2.513  51.143  1.00  0.00     0.066 A 
HETATM    6  C7  UNL     1      25.795   2.765  51.901  1.00  0.00     0.061 A 
HETATM    7  N3  UNL     1      24.505   3.232  49.931  1.00  0.00    -0.343 N 
HETATM    8  C13 UNL     1      23.373   3.048  49.042  1.00  0.00     0.176 A 
HETATM    9  C14 UNL     1      22.502   2.001  49.636  1.00  0.00     0.110 A 
HETATM   10  N4  UNL     1      22.635   1.322  50.731  1.00  0.00    -0.261 NA
ENDROOT
BRANCH   1  11
HETATM   11  N2  UNL     1      27.214   2.443  53.797  1.00  0.00    -0.309 N 
HETATM   12  C1  UNL     1      28.474   1.837  53.808  1.00  0.00     0.318 C 
HETATM   13  N1  UNL     1      29.599   2.250  54.567  1.00  0.00    -0.352 N 
HETATM   14  O1  UNL     1      28.670   0.838  53.100  1.00  0.00    -0.247 OA
HETATM   15  H1  UNL     1      29.741   2.627  55.529  1.00  0.00     0.160 HD
HETATM   16  H2  UNL     1      30.588   2.219  54.182  1.00  0.00     0.160 HD
HETATM   17  H3  UNL     1      27.208   3.281  54.452  1.00  0.00     0.170 HD
ENDBRANCH   1  11
BRANCH   7  18
HETATM   18  C8  UNL     1      25.418   4.218  49.463  1.00  0.00     0.017 A 
HETATM   19  C9  UNL     1      25.096   5.497  49.233  1.00  0.00     0.026 A 
HETATM   20  C10 UNL     1      26.307   6.197  48.760  1.00  0.00     0.017 A 
HETATM   21  C11 UNL     1      27.332   5.339  48.713  1.00  0.00    -0.006 A 
HETATM   22 BR1  UNL     1      29.153   5.587  48.199  1.00  0.00    -0.055 Br
HETATM   23  C12 UNL     1      26.856   4.001  49.158  1.00  0.00     0.103 A 
ENDBRANCH   7  18
TORSDOF 2
ENDMDL
MODEL 2
REMARK VINA RESULT:      -7.7      2.982      5.195
REMARK  2 active torsions:
REMARK  status: ('A' for Active; 'I' for Inactive)
REMARK       I    between atoms: N1_1  and  C1_2 
REMARK       I    between atoms: C1_2  and  N2_4 
REMARK    1  A    between atoms: N2_4  and  C2_5 
REMARK    2  A    between atoms: N3_11  and  C8_12 
ROOT
HETATM    1  C2  UNL     1      24.568   3.210  50.820  1.00  0.00     0.038 A 
HETATM    2  C3  UNL     1      23.275   3.177  50.416  1.00  0.00     0.032 A 
HETATM    3  C4  UNL     1      22.343   2.232  50.804  1.00  0.00     0.036 A 
HETATM    4  C5  UNL     1      22.724   1.247  51.659  1.00  0.00     0.083 A 
HETATM    5  C6  UNL     1      24.033   1.242  52.095  1.00  0.00     0.066 A 
HETATM    6  C7  UNL     1      24.912   2.192  51.685  1.00  0.00     0.061 A 
HETATM    7  N3  UNL     1      24.469   0.225  52.989  1.00  0.00    -0.343 N 
HETATM    8  C13 UNL     1      23.621  -0.838  53.494  1.00  0.00     0.176 A 
HETATM    9  C14 UNL     1      22.269  -0.650  52.908  1.00  0.00     0.110 A 
HETATM   10  N4  UNL     1      21.827   0.255  52.093  1.00  0.00    -0.261 NA
ENDROOT
BRANCH   1  11
HETATM   11  N2  UNL     1      25.548   4.141  50.457  1.00  0.00    -0.309 N 
HETATM   12  C1  UNL     1      26.684   3.995  49.654  1.00  0.00     0.318 C 
HETATM   13  N1  UNL     1      27.627   5.006  49.340  1.00  0.00    -0.352 N 
HETATM   14  O1  UNL     1      26.927   2.890  49.148  1.00  0.00    -0.247 OA
HETATM   15  H1  UNL     1      28.065   5.794  49.866  1.00  0.00     0.160 HD
HETATM   16  H2  UNL     1      28.069   5.096  48.379  1.00  0.00     0.160 HD
HETATM   17  H3  UNL     1      25.481   5.140  50.813  1.00  0.00     0.170 HD
ENDBRANCH   1  11
BRANCH   7  18
HETATM   18  C8  UNL     1      25.800   0.151  53.486  1.00  0.00     0.017 A 
HETATM   19  C9  UNL     1      26.233   0.778  54.586  1.00  0.00     0.026 A 
HETATM   20  C10 UNL     1      27.662   0.454  54.768  1.00  0.00     0.017 A 
HETATM   21  C11 UNL     1      28.066  -0.358  53.784  1.00  0.00    -0.006 A 
HETATM   22 BR1  UNL     1      29.768  -1.144  53.427  1.00  0.00    -0.055 Br
HETATM   23  C12 UNL     1      26.915  -0.624  52.880  1.00  0.00     0.103 A 
ENDBRANCH   7  18
TORSDOF 2
ENDMDL
MODEL 3
REMARK VINA RESULT:      -7.6      1.936      2.625
REMARK  2 active torsions:
REMARK  status: ('A' for Active; 'I' for Inactive)
REMARK       I    between atoms: N1_1  and  C1_2 
REMARK       I    between atoms: C1_2  and  N2_4 
REMARK    1  A    between atoms: N2_4  and  C2_5 
REMARK    2  A    between atoms: N3_11  and  C8_12 
ROOT
HETATM    1  C2  UNL     1      26.145   1.033  54.117  1.00  0.00     0.038 A 
HETATM    2  C3  UNL     1      25.740  -0.205  54.492  1.00  0.00     0.032 A 
HETATM    3  C4  UNL     1      24.555  -0.805  54.111  1.00  0.00     0.036 A 
HETATM    4  C5  UNL     1      23.708  -0.126  53.294  1.00  0.00     0.083 A 
HETATM    5  C6  UNL     1      24.081   1.138  52.887  1.00  0.00     0.066 A 
HETATM    6  C7  UNL     1      25.257   1.686  53.288  1.00  0.00     0.061 A 
HETATM    7  N3  UNL     1      23.220   1.881  52.032  1.00  0.00    -0.343 N 
HETATM    8  C13 UNL     1      21.943   1.400  51.540  1.00  0.00     0.176 A 
HETATM    9  C14 UNL     1      21.736   0.036  52.091  1.00  0.00     0.110 A 
HETATM   10  N4  UNL     1      22.486  -0.677  52.869  1.00  0.00    -0.261 NA
ENDROOT
BRANCH   1  11
HETATM   11  N2  UNL     1      27.331   1.683  54.474  1.00  0.00    -0.309 N 
HETATM   12  C1  UNL     1      28.649   1.458  54.061  1.00  0.00     0.318 C 
HETATM   13  N1  UNL     1      29.797   2.177  54.482  1.00  0.00    -0.352 N 
HETATM   14  O1  UNL     1      28.880   0.552  53.247  1.00  0.00    -0.247 OA
HETATM   15  H1  UNL     1      30.120   2.584  55.386  1.00  0.00     0.160 HD
HETATM   16  H2  UNL     1      30.588   2.425  53.820  1.00  0.00     0.160 HD
HETATM   17  H3  UNL     1      27.301   2.489  55.167  1.00  0.00     0.170 HD
ENDBRANCH   1  11
BRANCH   7  18
HETATM   18  C8  UNL     1      23.532   3.189  51.566  1.00  0.00     0.017 A 
HETATM   19  C9  UNL     1      23.135   4.319  52.165  1.00  0.00     0.026 A 
HETATM   20  C10 UNL     1      23.656   5.459  51.386  1.00  0.00     0.017 A 
HETATM   21  C11 UNL     1      24.353   5.005  50.338  1.00  0.00    -0.006 A 
HETATM   22 BR1  UNL     1      25.279   5.933  48.951  1.00  0.00    -0.055 Br
HETATM   23  C12 UNL     1      24.336   3.518  50.360  1.00  0.00     0.103 A 
ENDBRANCH   7  18
TORSDOF 2
ENDMDL
MODEL 4
REMARK VINA RESULT:      -7.5      2.563      3.807
REMARK  2 active torsions:
REMARK  status: ('A' for Active; 'I' for Inactive)
REMARK       I    between atoms: N1_1  and  C1_2 
REMARK       I    between atoms: C1_2  and  N2_4 
REMARK    1  A    between atoms: N2_4  and  C2_5 
REMARK    2  A    between atoms: N3_11  and  C8_12 
ROOT
HETATM    1  C2  UNL     1      25.114  -0.680  54.125  1.00  0.00     0.038 A 
HETATM    2  C3  UNL     1      24.414  -1.305  55.102  1.00  0.00     0.032 A 
HETATM    3  C4  UNL     1      23.047  -1.217  55.284  1.00  0.00     0.036 A 
HETATM    4  C5  UNL     1      22.319  -0.451  54.429  1.00  0.00     0.083 A 
HETATM    5  C6  UNL     1      22.992   0.203  53.418  1.00  0.00     0.066 A 
HETATM    6  C7  UNL     1      24.338   0.086  53.280  1.00  0.00     0.061 A 
HETATM    7  N3  UNL     1      22.265   1.015  52.504  1.00  0.00    -0.343 N 
HETATM    8  C13 UNL     1      20.829   1.215  52.552  1.00  0.00     0.176 A 
HETATM    9  C14 UNL     1      20.306   0.432  53.701  1.00  0.00     0.110 A 
HETATM   10  N4  UNL     1      20.925  -0.317  54.556  1.00  0.00    -0.261 NA
ENDROOT
BRANCH   1  11
HETATM   11  N2  UNL     1      26.494  -0.737  53.899  1.00  0.00    -0.309 N 
HETATM   12  C1  UNL     1      27.524   0.084  54.370  1.00  0.00     0.318 C 
HETATM   13  N1  UNL     1      28.907  -0.054  54.084  1.00  0.00    -0.352 N 
HETATM   14  O1  UNL     1      27.245   1.036  55.113  1.00  0.00    -0.247 OA
HETATM   15  H1  UNL     1      29.463  -0.315  53.241  1.00  0.00     0.160 HD
HETATM   16  H2  UNL     1      29.659   0.119  54.813  1.00  0.00     0.160 HD
HETATM   17  H3  UNL     1      26.895  -1.502  53.279  1.00  0.00     0.170 HD
ENDBRANCH   1  11
BRANCH   7  18
HETATM   18  C8  UNL     1      22.883   1.722  51.435  1.00  0.00     0.017 A 
HETATM   19  C9  UNL     1      22.497   1.646  50.155  1.00  0.00     0.026 A 
HETATM   20  C10 UNL     1      23.380   2.518  49.357  1.00  0.00     0.017 A 
HETATM   21  C11 UNL     1      24.277   3.103  50.158  1.00  0.00    -0.006 A 
HETATM   22 BR1  UNL     1      25.688   4.331  49.777  1.00  0.00    -0.055 Br
HETATM   23  C12 UNL     1      24.040   2.648  51.555  1.00  0.00     0.103 A 
ENDBRANCH   7  18
TORSDOF 2
ENDMDL
MODEL 5
REMARK VINA RESULT:      -7.4      1.984      2.574
REMARK  2 active torsions:
REMARK  status: ('A' for Active; 'I' for Inactive)
REMARK       I    between atoms: N1_1  and  C1_2 
REMARK       I    between atoms: C1_2  and  N2_4 
REMARK    1  A    between atoms: N2_4  and  C2_5 
REMARK    2  A    between atoms: N3_11  and  C8_12 
ROOT
HETATM    1  C2  UNL     1      26.017   0.355  52.997  1.00  0.00     0.038 A 
HETATM    2  C3  UNL     1      25.316  -0.553  53.717  1.00  0.00     0.032 A 
HETATM    3  C4  UNL     1      23.940  -0.580  53.844  1.00  0.00     0.036 A 
HETATM    4  C5  UNL     1      23.203   0.368  53.206  1.00  0.00     0.083 A 
HETATM    5  C6  UNL     1      23.877   1.313  52.461  1.00  0.00     0.066 A 
HETATM    6  C7  UNL     1      25.231   1.298  52.367  1.00  0.00     0.061 A 
HETATM    7  N3  UNL     1      23.141   2.322  51.779  1.00  0.00    -0.343 N 
HETATM    8  C13 UNL     1      21.695   2.438  51.806  1.00  0.00     0.176 A 
HETATM    9  C14 UNL     1      21.173   1.336  52.655  1.00  0.00     0.110 A 
HETATM   10  N4  UNL     1      21.801   0.400  53.292  1.00  0.00    -0.261 NA
ENDROOT
BRANCH   1  11
HETATM   11  N2  UNL     1      27.405   0.425  52.838  1.00  0.00    -0.309 N 
HETATM   12  C1  UNL     1      28.409   0.746  53.759  1.00  0.00     0.318 C 
HETATM   13  N1  UNL     1      29.803   0.790  53.502  1.00  0.00    -0.352 N 
HETATM   14  O1  UNL     1      28.091   1.025  54.924  1.00  0.00    -0.247 OA
HETATM   15  H1  UNL     1      30.395   1.106  52.704  1.00  0.00     0.160 HD
HETATM   16  H2  UNL     1      30.522   0.452  54.205  1.00  0.00     0.160 HD
HETATM   17  H3  UNL     1      27.838   0.212  51.890  1.00  0.00     0.170 HD
ENDBRANCH   1  11
BRANCH   7  18
HETATM   18  C8  UNL     1      23.759   3.332  50.990  1.00  0.00     0.017 A 
HETATM   19  C9  UNL     1      24.110   3.180  49.707  1.00  0.00     0.026 A 
HETATM   20  C10 UNL     1      24.718   4.444  49.245  1.00  0.00     0.017 A 
HETATM   21  C11 UNL     1      24.723   5.331  50.245  1.00  0.00    -0.006 A 
HETATM   22 BR1  UNL     1      25.354   7.131  50.321  1.00  0.00    -0.055 Br
HETATM   23  C12 UNL     1      24.112   4.702  51.447  1.00  0.00     0.103 A 
ENDBRANCH   7  18
TORSDOF 2
ENDMDL
MODEL 6
REMARK VINA RESULT:      -7.3      4.167      6.023
REMARK  2 active torsions:
REMARK  status: ('A' for Active; 'I' for Inactive)
REMARK       I    between atoms: N1_1  and  C1_2 
REMARK       I    between atoms: C1_2  and  N2_4 
REMARK    1  A    between atoms: N2_4  and  C2_5 
REMARK    2  A    between atoms: N3_11  and  C8_12 
ROOT
HETATM    1  C2  UNL     1      26.257  -0.053  52.133  1.00  0.00     0.038 A 
HETATM    2  C3  UNL     1      26.929   1.023  51.657  1.00  0.00     0.032 A 
HETATM    3  C4  UNL     1      26.396   2.288  51.494  1.00  0.00     0.036 A 
HETATM    4  C5  UNL     1      25.097   2.501  51.832  1.00  0.00     0.083 A 
HETATM    5  C6  UNL     1      24.375   1.432  52.322  1.00  0.00     0.066 A 
HETATM    6  C7  UNL     1      24.943   0.208  52.463  1.00  0.00     0.061 A 
HETATM    7  N3  UNL     1      23.012   1.617  52.685  1.00  0.00    -0.343 N 
HETATM    8  C13 UNL     1      22.301   2.876  52.578  1.00  0.00     0.176 A 
HETATM    9  C14 UNL     1      23.250   3.882  52.036  1.00  0.00     0.110 A 
HETATM   10  N4  UNL     1      24.492   3.762  51.692  1.00  0.00    -0.261 NA
ENDROOT
BRANCH   1  11
HETATM   11  N2  UNL     1      26.750  -1.350  52.316  1.00  0.00    -0.309 N 
HETATM   12  C1  UNL     1      27.823  -1.812  53.085  1.00  0.00     0.318 C 
HETATM   13  N1  UNL     1      28.250  -3.159  53.209  1.00  0.00    -0.352 N 
HETATM   14  O1  UNL     1      28.493  -0.998  53.737  1.00  0.00    -0.247 OA
HETATM   15  H1  UNL     1      28.332  -3.969  52.557  1.00  0.00     0.160 HD
HETATM   16  H2  UNL     1      28.591  -3.567  54.128  1.00  0.00     0.160 HD
HETATM   17  H3  UNL     1      26.281  -2.165  51.821  1.00  0.00     0.170 HD
ENDBRANCH   1  11
BRANCH   7  18
HETATM   18  C8  UNL     1      22.199   0.567  53.199  1.00  0.00     0.017 A 
HETATM   19  C9  UNL     1      22.608  -0.333  54.101  1.00  0.00     0.026 A 
HETATM   20  C10 UNL     1      21.484  -1.250  54.377  1.00  0.00     0.017 A 
HETATM   21  C11 UNL     1      20.424  -0.892  53.645  1.00  0.00    -0.006 A 
HETATM   22 BR1  UNL     1      18.672  -1.641  53.525  1.00  0.00    -0.055 Br
HETATM   23  C12 UNL     1      20.785   0.299  52.829  1.00  0.00     0.103 A 
ENDBRANCH   7  18
TORSDOF 2
ENDMDL
MODEL 7
REMARK VINA RESULT:      -7.2      3.924      6.085
REMARK  2 active torsions:
REMARK  status: ('A' for Active; 'I' for Inactive)
REMARK       I    between atoms: N1_1  and  C1_2 
REMARK       I    between atoms: C1_2  and  N2_4 
REMARK    1  A    between atoms: N2_4  and  C2_5 
REMARK    2  A    between atoms: N3_11  and  C8_12 
ROOT
HETATM    1  C2  UNL     1      21.854   1.769  51.916  1.00  0.00     0.038 A 
HETATM    2  C3  UNL     1      20.667   1.341  52.409  1.00  0.00     0.032 A 
HETATM    3  C4  UNL     1      20.512   0.397  53.408  1.00  0.00     0.036 A 
HETATM    4  C5  UNL     1      21.621  -0.163  53.959  1.00  0.00     0.083 A 
HETATM    5  C6  UNL     1      22.851   0.245  53.486  1.00  0.00     0.066 A 
HETATM    6  C7  UNL     1      22.952   1.176  52.503  1.00  0.00     0.061 A 
HETATM    7  N3  UNL     1      24.035  -0.319  54.038  1.00  0.00    -0.343 N 
HETATM    8  C13 UNL     1      24.051  -1.318  55.089  1.00  0.00     0.176 A 
HETATM    9  C14 UNL     1      22.640  -1.612  55.450  1.00  0.00     0.110 A 
HETATM   10  N4  UNL     1      21.536  -1.127  54.977  1.00  0.00    -0.261 NA
ENDROOT
BRANCH   1  11
HETATM   11  N2  UNL     1      22.062   2.719  50.909  1.00  0.00    -0.309 N 
HETATM   12  C1  UNL     1      22.194   2.559  49.525  1.00  0.00     0.318 C 
HETATM   13  N1  UNL     1      22.405   3.591  48.576  1.00  0.00    -0.352 N 
HETATM   14  O1  UNL     1      22.125   1.420  49.040  1.00  0.00    -0.247 OA
HETATM   15  H1  UNL     1      22.966   4.471  48.556  1.00  0.00     0.160 HD
HETATM   16  H2  UNL     1      21.942   3.591  47.622  1.00  0.00     0.160 HD
HETATM   17  H3  UNL     1      22.145   3.747  51.165  1.00  0.00     0.170 HD
ENDBRANCH   1  11
BRANCH   7  18
HETATM   18  C8  UNL     1      25.341   0.048  53.607  1.00  0.00     0.017 A 
HETATM   19  C9  UNL     1      26.036  -0.601  52.665  1.00  0.00     0.026 A 
HETATM   20  C10 UNL     1      27.336   0.080  52.502  1.00  0.00     0.017 A 
HETATM   21  C11 UNL     1      27.405   1.121  53.340  1.00  0.00    -0.006 A 
HETATM   22 BR1  UNL     1      28.788   2.403  53.636  1.00  0.00    -0.055 Br
HETATM   23  C12 UNL     1      26.139   1.193  54.119  1.00  0.00     0.103 A 
ENDBRANCH   7  18
TORSDOF 2
ENDMDL
MODEL 8
REMARK VINA RESULT:      -7.2      3.534      4.542
REMARK  2 active torsions:
REMARK  status: ('A' for Active; 'I' for Inactive)
REMARK       I    between atoms: N1_1  and  C1_2 
REMARK       I    between atoms: C1_2  and  N2_4 
REMARK    1  A    between atoms: N2_4  and  C2_5 
REMARK    2  A    between atoms: N3_11  and  C8_12 
ROOT
HETATM    1  C2  UNL     1      25.183  -0.068  53.804  1.00  0.00     0.038 A 
HETATM    2  C3  UNL     1      24.932  -0.937  54.812  1.00  0.00     0.032 A 
HETATM    3  C4  UNL     1      23.677  -1.379  55.190  1.00  0.00     0.036 A 
HETATM    4  C5  UNL     1      22.590  -0.924  54.514  1.00  0.00     0.083 A 
HETATM    5  C6  UNL     1      22.800  -0.037  53.478  1.00  0.00     0.066 A 
HETATM    6  C7  UNL     1      24.052   0.368  53.144  1.00  0.00     0.061 A 
HETATM    7  N3  UNL     1      21.686   0.461  52.747  1.00  0.00    -0.343 N 
HETATM    8  C13 UNL     1      20.306   0.101  53.012  1.00  0.00     0.176 A 
HETATM    9  C14 UNL     1      20.304  -0.853  54.152  1.00  0.00     0.110 A 
HETATM   10  N4  UNL     1      21.286  -1.332  54.846  1.00  0.00    -0.261 NA
ENDROOT
BRANCH   1  11
HETATM   11  N2  UNL     1      26.429   0.409  53.383  1.00  0.00    -0.309 N 
HETATM   12  C1  UNL     1      27.073   1.621  53.651  1.00  0.00     0.318 C 
HETATM   13  N1  UNL     1      28.349   2.018  53.176  1.00  0.00    -0.352 N 
HETATM   14  O1  UNL     1      26.509   2.458  54.370  1.00  0.00    -0.247 OA
HETATM   15  H1  UNL     1      28.868   1.909  52.277  1.00  0.00     0.160 HD
HETATM   16  H2  UNL     1      29.038   2.560  53.775  1.00  0.00     0.160 HD
HETATM   17  H3  UNL     1      27.040  -0.196  52.757  1.00  0.00     0.170 HD
ENDBRANCH   1  11
BRANCH   7  18
HETATM   18  C8  UNL     1      21.817   1.377  51.666  1.00  0.00     0.017 A 
HETATM   19  C9  UNL     1      21.821   2.709  51.799  1.00  0.00     0.026 A 
HETATM   20  C10 UNL     1      21.976   3.305  50.458  1.00  0.00     0.017 A 
HETATM   21  C11 UNL     1      22.065   2.333  49.543  1.00  0.00    -0.006 A 
HETATM   22 BR1  UNL     1      22.276   2.410  47.647  1.00  0.00    -0.055 Br
HETATM   23  C12 UNL     1      21.972   1.017  50.231  1.00  0.00     0.103 A 
ENDBRANCH   7  18
TORSDOF 2
ENDMDL
MODEL 9
REMARK VINA RESULT:      -7.1      2.958      5.286
REMARK  2 active torsions:
REMARK  status: ('A' for Active; 'I' for Inactive)
REMARK       I    between atoms: N1_1  and  C1_2 
REMARK       I    between atoms: C1_2  and  N2_4 
REMARK    1  A    between atoms: N2_4  and  C2_5 
REMARK    2  A    between atoms: N3_11  and  C8_12 
ROOT
HETATM    1  C2  UNL     1      23.577  -0.332  53.662  1.00  0.00     0.038 A 
HETATM    2  C3  UNL     1      24.184  -0.967  54.694  1.00  0.00     0.032 A 
HETATM    3  C4  UNL     1      25.479  -0.738  55.120  1.00  0.00     0.036 A 
HETATM    4  C5  UNL     1      26.228   0.193  54.473  1.00  0.00     0.083 A 
HETATM    5  C6  UNL     1      25.649   0.864  53.415  1.00  0.00     0.066 A 
HETATM    6  C7  UNL     1      24.373   0.604  53.034  1.00  0.00     0.061 A 
HETATM    7  N3  UNL     1      26.403   1.845  52.712  1.00  0.00    -0.343 N 
HETATM    8  C13 UNL     1      27.771   2.206  53.029  1.00  0.00     0.176 A 
HETATM    9  C14 UNL     1      28.198   1.376  54.185  1.00  0.00     0.110 A 
HETATM   10  N4  UNL     1      27.551   0.476  54.854  1.00  0.00    -0.261 NA
ENDROOT
BRANCH   1  11
HETATM   11  N2  UNL     1      22.274  -0.527  53.193  1.00  0.00    -0.309 N 
HETATM   12  C1  UNL     1      21.043  -0.216  53.780  1.00  0.00     0.318 C 
HETATM   13  N1  UNL     1      19.761  -0.454  53.222  1.00  0.00    -0.352 N 
HETATM   14  O1  UNL     1      21.026   0.322  54.897  1.00  0.00    -0.247 OA
HETATM   15  H1  UNL     1      19.331  -1.223  52.664  1.00  0.00     0.160 HD
HETATM   16  H2  UNL     1      18.959   0.234  53.322  1.00  0.00     0.160 HD
HETATM   17  H3  UNL     1      22.118  -0.981  52.244  1.00  0.00     0.170 HD
ENDBRANCH   1  11
BRANCH   7  18
HETATM   18  C8  UNL     1      25.879   2.581  51.612  1.00  0.00     0.017 A 
HETATM   19  C9  UNL     1      26.438   2.622  50.396  1.00  0.00     0.026 A 
HETATM   20  C10 UNL     1      25.604   3.485  49.537  1.00  0.00     0.017 A 
HETATM   21  C11 UNL     1      24.563   3.946  50.240  1.00  0.00    -0.006 A 
HETATM   22 BR1  UNL     1      23.123   5.095  49.740  1.00  0.00    -0.055 Br
HETATM   23  C12 UNL     1      24.646   3.411  51.625  1.00  0.00     0.103 A 
ENDBRANCH   7  18
TORSDOF 2
ENDMDL
