MODEL 1
REMARK VINA RESULT:      -7.6      0.000      0.000
REMARK  5 active torsions:
REMARK  status: ('A' for Active; 'I' for Inactive)
REMARK    1  A    between atoms: C3_3  and  S1_4 
REMARK    2  A    between atoms: S1_4  and  C4_5 
REMARK    3  A    between atoms: C7_9  and  C8_10 
REMARK    4  A    between atoms: C11_15  and  N4_16 
REMARK    5  A    between atoms: N4_16  and  C12_17 
ROOT
HETATM    1  C1  UNL     1      28.945   5.236  48.204  1.00  0.00     0.113 C 
HETATM    2  C2  UNL     1      27.530   5.352  48.561  1.00  0.00    -0.099 C 
HETATM    3  C3  UNL     1      26.358   5.449  48.847  1.00  0.00    -0.033 C 
ENDROOT
BRANCH   3   4
HETATM    4  S1  UNL     1      24.639   5.595  49.288  1.00  0.00    -0.062 SA
BRANCH   4   5
HETATM    5  C4  UNL     1      24.503   5.337  51.058  1.00  0.00     0.152 A 
HETATM    6  C5  UNL     1      23.132   5.690  51.514  1.00  0.00     0.112 A 
HETATM    7  N1  UNL     1      22.678   4.531  51.855  1.00  0.00    -0.266 NA
HETATM    8  C6  UNL     1      23.942   4.000  51.465  1.00  0.00     0.054 A 
HETATM    9  C7  UNL     1      24.429   2.746  51.471  1.00  0.00     0.045 C 
BRANCH   9  10
HETATM   10  C8  UNL     1      23.660   1.595  51.927  1.00  0.00     0.029 A 
HETATM   11  C9  UNL     1      22.569   1.292  51.145  1.00  0.00     0.133 A 
HETATM   12  N2  UNL     1      21.803   0.243  51.491  1.00  0.00    -0.253 NA
HETATM   13  C10 UNL     1      22.106  -0.484  52.580  1.00  0.00     0.234 A 
HETATM   14  N3  UNL     1      23.172  -0.169  53.325  1.00  0.00    -0.224 NA
HETATM   15  C11 UNL     1      23.989   0.856  53.054  1.00  0.00     0.141 A 
BRANCH  15  16
HETATM   16  N4  UNL     1      25.129   1.229  53.806  1.00  0.00    -0.340 N 
HETATM   17  H9  UNL     1      24.989   1.925  54.575  1.00  0.00     0.167 HD
BRANCH  16  18
HETATM   18  C12 UNL     1      26.464   0.790  53.671  1.00  0.00     0.035 A 
HETATM   19  C13 UNL     1      27.541   1.667  53.767  1.00  0.00     0.032 A 
HETATM   20  C14 UNL     1      28.843   1.271  53.641  1.00  0.00     0.046 A 
HETATM   21  C15 UNL     1      29.161  -0.038  53.409  1.00  0.00     0.138 A 
HETATM   22  F1  UNL     1      30.459  -0.392  53.290  1.00  0.00    -0.204 F 
HETATM   23  C16 UNL     1      28.145  -0.954  53.303  1.00  0.00     0.074 A 
HETATM   24 CL1  UNL     1      28.552  -2.630  53.007  1.00  0.00    -0.081 Cl
HETATM   25  C17 UNL     1      26.852  -0.511  53.437  1.00  0.00     0.056 A 
ENDBRANCH  16  18
ENDBRANCH  15  16
ENDBRANCH   9  10
ENDBRANCH   4   5
ENDBRANCH   3   4
TORSDOF 5
ENDMDL
MODEL 2
REMARK VINA RESULT:      -7.5      4.064      6.222
REMARK  5 active torsions:
REMARK  status: ('A' for Active; 'I' for Inactive)
REMARK    1  A    between atoms: C3_3  and  S1_4 
REMARK    2  A    between atoms: S1_4  and  C4_5 
REMARK    3  A    between atoms: C7_9  and  C8_10 
REMARK    4  A    between atoms: C11_15  and  N4_16 
REMARK    5  A    between atoms: N4_16  and  C12_17 
ROOT
HETATM    1  C1  UNL     1      25.705   3.289  49.664  1.00  0.00     0.113 C 
HETATM    2  C2  UNL     1      26.474   2.846  50.829  1.00  0.00    -0.099 C 
HETATM    3  C3  UNL     1      27.101   2.475  51.794  1.00  0.00    -0.033 C 
ENDROOT
BRANCH   3   4
HETATM    4  S1  UNL     1      28.041   1.943  53.210  1.00  0.00    -0.062 SA
BRANCH   4   5
HETATM    5  C4  UNL     1      27.595   0.241  53.558  1.00  0.00     0.152 A 
HETATM    6  C5  UNL     1      27.581   0.015  55.028  1.00  0.00     0.112 A 
HETATM    7  N1  UNL     1      26.322  -0.178  55.238  1.00  0.00    -0.266 NA
HETATM    8  C6  UNL     1      26.132   0.012  53.837  1.00  0.00     0.054 A 
HETATM    9  C7  UNL     1      25.027  -0.011  53.071  1.00  0.00     0.045 C 
BRANCH   9  10
HETATM   10  C8  UNL     1      23.693  -0.263  53.602  1.00  0.00     0.029 A 
HETATM   11  C9  UNL     1      23.665  -1.088  54.703  1.00  0.00     0.133 A 
HETATM   12  N2  UNL     1      22.475  -1.373  55.261  1.00  0.00    -0.253 NA
HETATM   13  C10 UNL     1      21.347  -0.857  54.744  1.00  0.00     0.234 A 
HETATM   14  N3  UNL     1      21.401  -0.057  53.672  1.00  0.00    -0.224 NA
HETATM   15  C11 UNL     1      22.540   0.279  53.055  1.00  0.00     0.141 A 
BRANCH  15  16
HETATM   16  N4  UNL     1      22.652   1.122  51.922  1.00  0.00    -0.340 N 
HETATM   17  H9  UNL     1      22.979   0.684  51.030  1.00  0.00     0.167 HD
BRANCH  16  18
HETATM   18  C12 UNL     1      22.381   2.503  51.814  1.00  0.00     0.035 A 
HETATM   19  C13 UNL     1      23.198   3.462  52.405  1.00  0.00     0.032 A 
HETATM   20  C14 UNL     1      22.962   4.806  52.317  1.00  0.00     0.046 A 
HETATM   21  C15 UNL     1      21.884   5.286  51.626  1.00  0.00     0.138 A 
HETATM   22  F1  UNL     1      21.682   6.620  51.561  1.00  0.00    -0.204 F 
HETATM   23  C16 UNL     1      21.038   4.392  51.020  1.00  0.00     0.074 A 
HETATM   24 CL1  UNL     1      19.659   5.008  50.136  1.00  0.00    -0.081 Cl
HETATM   25  C17 UNL     1      21.315   3.052  51.135  1.00  0.00     0.056 A 
ENDBRANCH  16  18
ENDBRANCH  15  16
ENDBRANCH   9  10
ENDBRANCH   4   5
ENDBRANCH   3   4
TORSDOF 5
ENDMDL
MODEL 3
REMARK VINA RESULT:      -7.4      2.321      2.909
REMARK  5 active torsions:
REMARK  status: ('A' for Active; 'I' for Inactive)
REMARK    1  A    between atoms: C3_3  and  S1_4 
REMARK    2  A    between atoms: S1_4  and  C4_5 
REMARK    3  A    between atoms: C7_9  and  C8_10 
REMARK    4  A    between atoms: C11_15  and  N4_16 
REMARK    5  A    between atoms: N4_16  and  C12_17 
ROOT
HETATM    1  C1  UNL     1      26.412   3.024  50.213  1.00  0.00     0.113 C 
HETATM    2  C2  UNL     1      25.023   3.097  49.755  1.00  0.00    -0.099 C 
HETATM    3  C3  UNL     1      23.879   3.157  49.366  1.00  0.00    -0.033 C 
ENDROOT
BRANCH   3   4
HETATM    4  S1  UNL     1      22.188   3.250  48.816  1.00  0.00    -0.062 SA
BRANCH   4   5
HETATM    5  C4  UNL     1      21.139   3.288  50.270  1.00  0.00     0.152 A 
HETATM    6  C5  UNL     1      20.011   2.332  50.102  1.00  0.00     0.112 A 
HETATM    7  N1  UNL     1      20.300   1.447  50.997  1.00  0.00    -0.266 NA
HETATM    8  C6  UNL     1      21.447   2.236  51.305  1.00  0.00     0.054 A 
HETATM    9  C7  UNL     1      22.434   2.072  52.204  1.00  0.00     0.045 C 
BRANCH   9  10
HETATM   10  C8  UNL     1      22.502   0.935  53.113  1.00  0.00     0.029 A 
HETATM   11  C9  UNL     1      21.324   0.658  53.769  1.00  0.00     0.133 A 
HETATM   12  N2  UNL     1      21.295  -0.377  54.627  1.00  0.00    -0.253 NA
HETATM   13  C10 UNL     1      22.399  -1.115  54.831  1.00  0.00     0.234 A 
HETATM   14  N3  UNL     1      23.533  -0.825  54.182  1.00  0.00    -0.224 NA
HETATM   15  C11 UNL     1      23.651   0.185  53.311  1.00  0.00     0.141 A 
BRANCH  15  16
HETATM   16  N4  UNL     1      24.825   0.531  52.597  1.00  0.00    -0.340 N 
HETATM   17  H9  UNL     1      24.702   1.062  51.704  1.00  0.00     0.167 HD
BRANCH  16  18
HETATM   18  C12 UNL     1      26.171   0.259  52.920  1.00  0.00     0.035 A 
HETATM   19  C13 UNL     1      26.738  -0.996  52.719  1.00  0.00     0.032 A 
HETATM   20  C14 UNL     1      28.039  -1.289  53.020  1.00  0.00     0.046 A 
HETATM   21  C15 UNL     1      28.869  -0.339  53.546  1.00  0.00     0.138 A 
HETATM   22  F1  UNL     1      30.149  -0.665  53.832  1.00  0.00    -0.204 F 
HETATM   23  C16 UNL     1      28.373   0.920  53.768  1.00  0.00     0.074 A 
HETATM   24 CL1  UNL     1      29.437   2.136  54.441  1.00  0.00    -0.081 Cl
HETATM   25  C17 UNL     1      27.060   1.169  53.451  1.00  0.00     0.056 A 
ENDBRANCH  16  18
ENDBRANCH  15  16
ENDBRANCH   9  10
ENDBRANCH   4   5
ENDBRANCH   3   4
TORSDOF 5
ENDMDL
MODEL 4
REMARK VINA RESULT:      -7.3      2.601      3.496
REMARK  5 active torsions:
REMARK  status: ('A' for Active; 'I' for Inactive)
REMARK    1  A    between atoms: C3_3  and  S1_4 
REMARK    2  A    between atoms: S1_4  and  C4_5 
REMARK    3  A    between atoms: C7_9  and  C8_10 
REMARK    4  A    between atoms: C11_15  and  N4_16 
REMARK    5  A    between atoms: N4_16  and  C12_17 
ROOT
HETATM    1  C1  UNL     1      19.646   3.045  47.271  1.00  0.00     0.113 C 
HETATM    2  C2  UNL     1      20.253   3.680  48.443  1.00  0.00    -0.099 C 
HETATM    3  C3  UNL     1      20.757   4.211  49.406  1.00  0.00    -0.033 C 
ENDROOT
BRANCH   3   4
HETATM    4  S1  UNL     1      21.495   4.975  50.835  1.00  0.00    -0.062 SA
BRANCH   4   5
HETATM    5  C4  UNL     1      23.075   4.179  51.128  1.00  0.00     0.152 A 
HETATM    6  C5  UNL     1      23.683   4.713  52.377  1.00  0.00     0.112 A 
HETATM    7  N1  UNL     1      23.628   3.675  53.143  1.00  0.00    -0.266 NA
HETATM    8  C6  UNL     1      23.026   2.987  52.049  1.00  0.00     0.054 A 
HETATM    9  C7  UNL     1      22.583   1.724  51.918  1.00  0.00     0.045 C 
BRANCH   9  10
HETATM   10  C8  UNL     1      22.653   0.740  52.991  1.00  0.00     0.029 A 
HETATM   11  C9  UNL     1      21.483   0.586  53.700  1.00  0.00     0.133 A 
HETATM   12  N2  UNL     1      21.456  -0.303  54.708  1.00  0.00    -0.253 NA
HETATM   13  C10 UNL     1      22.555  -1.018  55.007  1.00  0.00     0.234 A 
HETATM   14  N3  UNL     1      23.680  -0.849  54.303  1.00  0.00    -0.224 NA
HETATM   15  C11 UNL     1      23.796   0.012  53.285  1.00  0.00     0.141 A 
BRANCH  15  16
HETATM   16  N4  UNL     1      24.961   0.226  52.507  1.00  0.00    -0.340 N 
HETATM   17  H9  UNL     1      24.826   0.569  51.528  1.00  0.00     0.167 HD
BRANCH  16  18
HETATM   18  C12 UNL     1      26.312   0.038  52.866  1.00  0.00     0.035 A 
HETATM   19  C13 UNL     1      26.952  -1.188  52.714  1.00  0.00     0.032 A 
HETATM   20  C14 UNL     1      28.260  -1.399  53.051  1.00  0.00     0.046 A 
HETATM   21  C15 UNL     1      29.025  -0.390  53.568  1.00  0.00     0.138 A 
HETATM   22  F1  UNL     1      30.313  -0.636  53.890  1.00  0.00    -0.204 F 
HETATM   23  C16 UNL     1      28.454   0.844  53.744  1.00  0.00     0.074 A 
HETATM   24 CL1  UNL     1      29.433   2.136  54.405  1.00  0.00    -0.081 Cl
HETATM   25  C17 UNL     1      27.137   1.010  53.391  1.00  0.00     0.056 A 
ENDBRANCH  16  18
ENDBRANCH  15  16
ENDBRANCH   9  10
ENDBRANCH   4   5
ENDBRANCH   3   4
TORSDOF 5
ENDMDL
MODEL 5
REMARK VINA RESULT:      -7.1      3.567      5.345
REMARK  5 active torsions:
REMARK  status: ('A' for Active; 'I' for Inactive)
REMARK    1  A    between atoms: C3_3  and  S1_4 
REMARK    2  A    between atoms: S1_4  and  C4_5 
REMARK    3  A    between atoms: C7_9  and  C8_10 
REMARK    4  A    between atoms: C11_15  and  N4_16 
REMARK    5  A    between atoms: N4_16  and  C12_17 
ROOT
HETATM    1  C1  UNL     1      24.261   7.931  47.396  1.00  0.00     0.113 C 
HETATM    2  C2  UNL     1      24.305   7.055  48.568  1.00  0.00    -0.099 C 
HETATM    3  C3  UNL     1      24.351   6.328  49.534  1.00  0.00    -0.033 C 
ENDROOT
BRANCH   3   4
HETATM    4  S1  UNL     1      24.396   5.263  50.961  1.00  0.00    -0.062 SA
BRANCH   4   5
HETATM    5  C4  UNL     1      24.800   3.609  50.398  1.00  0.00     0.152 A 
HETATM    6  C5  UNL     1      26.170   3.597  49.816  1.00  0.00     0.112 A 
HETATM    7  N1  UNL     1      26.800   2.874  50.681  1.00  0.00    -0.266 NA
HETATM    8  C6  UNL     1      25.566   2.770  51.388  1.00  0.00     0.054 A 
HETATM    9  C7  UNL     1      25.237   2.141  52.530  1.00  0.00     0.045 C 
BRANCH   9  10
HETATM   10  C8  UNL     1      26.192   1.375  53.322  1.00  0.00     0.029 A 
HETATM   11  C9  UNL     1      27.223   2.120  53.849  1.00  0.00     0.133 A 
HETATM   12  N2  UNL     1      28.150   1.495  54.595  1.00  0.00    -0.253 NA
HETATM   13  C10 UNL     1      28.061   0.172  54.812  1.00  0.00     0.234 A 
HETATM   14  N3  UNL     1      27.050  -0.531  54.289  1.00  0.00    -0.224 NA
HETATM   15  C11 UNL     1      26.084   0.010  53.535  1.00  0.00     0.141 A 
BRANCH  15  16
HETATM   16  N4  UNL     1      24.993  -0.688  52.962  1.00  0.00    -0.340 N 
HETATM   17  H9  UNL     1      25.212  -1.390  52.217  1.00  0.00     0.167 HD
BRANCH  16  18
HETATM   18  C12 UNL     1      23.616  -0.574  53.251  1.00  0.00     0.035 A 
HETATM   19  C13 UNL     1      23.106  -0.841  54.518  1.00  0.00     0.032 A 
HETATM   20  C14 UNL     1      21.778  -0.738  54.829  1.00  0.00     0.046 A 
HETATM   21  C15 UNL     1      20.863  -0.356  53.887  1.00  0.00     0.138 A 
HETATM   22  F1  UNL     1      19.560  -0.266  54.230  1.00  0.00    -0.204 F 
HETATM   23  C16 UNL     1      21.302  -0.078  52.618  1.00  0.00     0.074 A 
HETATM   24 CL1  UNL     1      20.130   0.410  51.412  1.00  0.00    -0.081 Cl
HETATM   25  C17 UNL     1      22.644  -0.195  52.351  1.00  0.00     0.056 A 
ENDBRANCH  16  18
ENDBRANCH  15  16
ENDBRANCH   9  10
ENDBRANCH   4   5
ENDBRANCH   3   4
TORSDOF 5
ENDMDL
MODEL 6
REMARK VINA RESULT:      -6.9      5.492      8.333
REMARK  5 active torsions:
REMARK  status: ('A' for Active; 'I' for Inactive)
REMARK    1  A    between atoms: C3_3  and  S1_4 
REMARK    2  A    between atoms: S1_4  and  C4_5 
REMARK    3  A    between atoms: C7_9  and  C8_10 
REMARK    4  A    between atoms: C11_15  and  N4_16 
REMARK    5  A    between atoms: N4_16  and  C12_17 
ROOT
HETATM    1  C1  UNL     1      32.496   1.892  46.770  1.00  0.00     0.113 C 
HETATM    2  C2  UNL     1      32.759   3.233  47.298  1.00  0.00    -0.099 C 
HETATM    3  C3  UNL     1      32.967   4.343  47.731  1.00  0.00    -0.033 C 
ENDROOT
BRANCH   3   4
HETATM    4  S1  UNL     1      33.295   5.972  48.370  1.00  0.00    -0.062 SA
BRANCH   4   5
HETATM    5  C4  UNL     1      31.925   6.432  49.432  1.00  0.00     0.152 A 
HETATM    6  C5  UNL     1      31.989   7.887  49.735  1.00  0.00     0.112 A 
HETATM    7  N1  UNL     1      30.945   8.317  49.109  1.00  0.00    -0.266 NA
HETATM    8  C6  UNL     1      30.714   6.967  48.712  1.00  0.00     0.054 A 
HETATM    9  C7  UNL     1      29.750   6.405  47.962  1.00  0.00     0.045 C 
BRANCH   9  10
HETATM   10  C8  UNL     1      28.660   7.167  47.363  1.00  0.00     0.029 A 
HETATM   11  C9  UNL     1      28.980   7.781  46.174  1.00  0.00     0.133 A 
HETATM   12  N2  UNL     1      28.034   8.505  45.550  1.00  0.00    -0.253 NA
HETATM   13  C10 UNL     1      26.808   8.618  46.088  1.00  0.00     0.234 A 
HETATM   14  N3  UNL     1      26.521   8.012  47.247  1.00  0.00    -0.224 NA
HETATM   15  C11 UNL     1      27.401   7.273  47.934  1.00  0.00     0.141 A 
BRANCH  15  16
HETATM   16  N4  UNL     1      27.148   6.609  49.159  1.00  0.00    -0.340 N 
HETATM   17  H9  UNL     1      27.653   6.959  50.006  1.00  0.00     0.167 HD
BRANCH  16  18
HETATM   18  C12 UNL     1      26.292   5.517  49.416  1.00  0.00     0.035 A 
HETATM   19  C13 UNL     1      26.740   4.200  49.356  1.00  0.00     0.032 A 
HETATM   20  C14 UNL     1      25.936   3.122  49.600  1.00  0.00     0.046 A 
HETATM   21  C15 UNL     1      24.618   3.288  49.925  1.00  0.00     0.138 A 
HETATM   22  F1  UNL     1      23.854   2.199  50.159  1.00  0.00    -0.204 F 
HETATM   23  C16 UNL     1      24.113   4.560  50.001  1.00  0.00     0.074 A 
HETATM   24 CL1  UNL     1      22.426   4.772  50.417  1.00  0.00    -0.081 Cl
HETATM   25  C17 UNL     1      24.958   5.613  49.747  1.00  0.00     0.056 A 
ENDBRANCH  16  18
ENDBRANCH  15  16
ENDBRANCH   9  10
ENDBRANCH   4   5
ENDBRANCH   3   4
TORSDOF 5
ENDMDL
MODEL 7
REMARK VINA RESULT:      -6.8      1.860      2.337
REMARK  5 active torsions:
REMARK  status: ('A' for Active; 'I' for Inactive)
REMARK    1  A    between atoms: C3_3  and  S1_4 
REMARK    2  A    between atoms: S1_4  and  C4_5 
REMARK    3  A    between atoms: C7_9  and  C8_10 
REMARK    4  A    between atoms: C11_15  and  N4_16 
REMARK    5  A    between atoms: N4_16  and  C12_17 
ROOT
HETATM    1  C1  UNL     1      26.852   3.684  49.373  1.00  0.00     0.113 C 
HETATM    2  C2  UNL     1      25.948   4.833  49.312  1.00  0.00    -0.099 C 
HETATM    3  C3  UNL     1      25.204   5.786  49.253  1.00  0.00    -0.033 C 
ENDROOT
BRANCH   3   4
HETATM    4  S1  UNL     1      24.104   7.185  49.188  1.00  0.00    -0.062 SA
BRANCH   4   5
HETATM    5  C4  UNL     1      23.199   7.244  50.735  1.00  0.00     0.152 A 
HETATM    6  C5  UNL     1      21.752   7.458  50.463  1.00  0.00     0.112 A 
HETATM    7  N1  UNL     1      21.259   6.325  50.840  1.00  0.00    -0.266 NA
HETATM    8  C6  UNL     1      22.591   5.934  51.166  1.00  0.00     0.054 A 
HETATM    9  C7  UNL     1      23.092   4.795  51.675  1.00  0.00     0.045 C 
BRANCH   9  10
HETATM   10  C8  UNL     1      22.266   3.643  52.016  1.00  0.00     0.029 A 
HETATM   11  C9  UNL     1      20.968   3.953  52.352  1.00  0.00     0.133 A 
HETATM   12  N2  UNL     1      20.134   2.951  52.680  1.00  0.00    -0.253 NA
HETATM   13  C10 UNL     1      20.571   1.680  52.676  1.00  0.00     0.234 A 
HETATM   14  N3  UNL     1      21.839   1.404  52.346  1.00  0.00    -0.224 NA
HETATM   15  C11 UNL     1      22.735   2.339  52.006  1.00  0.00     0.141 A 
BRANCH  15  16
HETATM   16  N4  UNL     1      24.085   2.100  51.646  1.00  0.00    -0.340 N 
HETATM   17  H9  UNL     1      24.390   2.419  50.697  1.00  0.00     0.167 HD
BRANCH  16  18
HETATM   18  C12 UNL     1      25.106   1.480  52.397  1.00  0.00     0.035 A 
HETATM   19  C13 UNL     1      25.769   2.141  53.426  1.00  0.00     0.032 A 
HETATM   20  C14 UNL     1      26.761   1.566  54.171  1.00  0.00     0.046 A 
HETATM   21  C15 UNL     1      27.161   0.279  53.935  1.00  0.00     0.138 A 
HETATM   22  F1  UNL     1      28.145  -0.256  54.691  1.00  0.00    -0.204 F 
HETATM   23  C16 UNL     1      26.547  -0.428  52.933  1.00  0.00     0.074 A 
HETATM   24 CL1  UNL     1      27.059  -2.075  52.633  1.00  0.00    -0.081 Cl
HETATM   25  C17 UNL     1      25.555   0.190  52.212  1.00  0.00     0.056 A 
ENDBRANCH  16  18
ENDBRANCH  15  16
ENDBRANCH   9  10
ENDBRANCH   4   5
ENDBRANCH   3   4
TORSDOF 5
ENDMDL
MODEL 8
REMARK VINA RESULT:      -6.7      2.778      3.583
REMARK  5 active torsions:
REMARK  status: ('A' for Active; 'I' for Inactive)
REMARK    1  A    between atoms: C3_3  and  S1_4 
REMARK    2  A    between atoms: S1_4  and  C4_5 
REMARK    3  A    between atoms: C7_9  and  C8_10 
REMARK    4  A    between atoms: C11_15  and  N4_16 
REMARK    5  A    between atoms: N4_16  and  C12_17 
ROOT
HETATM    1  C1  UNL     1      30.186   5.756  47.998  1.00  0.00     0.113 C 
HETATM    2  C2  UNL     1      28.759   6.001  48.213  1.00  0.00    -0.099 C 
HETATM    3  C3  UNL     1      27.578   6.206  48.381  1.00  0.00    -0.033 C 
ENDROOT
BRANCH   3   4
HETATM    4  S1  UNL     1      25.844   6.506  48.651  1.00  0.00    -0.062 SA
BRANCH   4   5
HETATM    5  C4  UNL     1      25.359   5.623  50.135  1.00  0.00     0.152 A 
HETATM    6  C5  UNL     1      24.267   6.362  50.825  1.00  0.00     0.112 A 
HETATM    7  N1  UNL     1      23.278   5.546  50.666  1.00  0.00    -0.266 NA
HETATM    8  C6  UNL     1      24.184   4.695  49.968  1.00  0.00     0.054 A 
HETATM    9  C7  UNL     1      24.017   3.497  49.380  1.00  0.00     0.045 C 
BRANCH   9  10
HETATM   10  C8  UNL     1      22.742   2.791  49.358  1.00  0.00     0.029 A 
HETATM   11  C9  UNL     1      22.166   2.695  48.112  1.00  0.00     0.133 A 
HETATM   12  N2  UNL     1      20.987   2.058  47.997  1.00  0.00    -0.253 NA
HETATM   13  C10 UNL     1      20.396   1.532  49.084  1.00  0.00     0.234 A 
HETATM   14  N3  UNL     1      20.977   1.639  50.285  1.00  0.00    -0.224 NA
HETATM   15  C11 UNL     1      22.147   2.255  50.490  1.00  0.00     0.141 A 
BRANCH  15  16
HETATM   16  N4  UNL     1      22.804   2.392  51.737  1.00  0.00    -0.340 N 
HETATM   17  H9  UNL     1      22.953   3.364  52.095  1.00  0.00     0.167 HD
BRANCH  16  18
HETATM   18  C12 UNL     1      23.302   1.386  52.593  1.00  0.00     0.035 A 
HETATM   19  C13 UNL     1      24.655   1.287  52.904  1.00  0.00     0.032 A 
HETATM   20  C14 UNL     1      25.166   0.325  53.730  1.00  0.00     0.046 A 
HETATM   21  C15 UNL     1      24.353  -0.611  54.306  1.00  0.00     0.138 A 
HETATM   22  F1  UNL     1      24.894  -1.547  55.117  1.00  0.00    -0.204 F 
HETATM   23  C16 UNL     1      23.009  -0.569  54.040  1.00  0.00     0.074 A 
HETATM   24 CL1  UNL     1      21.968  -1.767  54.778  1.00  0.00    -0.081 Cl
HETATM   25  C17 UNL     1      22.540   0.416  53.205  1.00  0.00     0.056 A 
ENDBRANCH  16  18
ENDBRANCH  15  16
ENDBRANCH   9  10
ENDBRANCH   4   5
ENDBRANCH   3   4
TORSDOF 5
ENDMDL
MODEL 9
REMARK VINA RESULT:      -6.7      2.292      3.269
REMARK  5 active torsions:
REMARK  status: ('A' for Active; 'I' for Inactive)
REMARK    1  A    between atoms: C3_3  and  S1_4 
REMARK    2  A    between atoms: S1_4  and  C4_5 
REMARK    3  A    between atoms: C7_9  and  C8_10 
REMARK    4  A    between atoms: C11_15  and  N4_16 
REMARK    5  A    between atoms: N4_16  and  C12_17 
ROOT
HETATM    1  C1  UNL     1      21.152   9.640  49.031  1.00  0.00     0.113 C 
HETATM    2  C2  UNL     1      22.373   8.962  48.592  1.00  0.00    -0.099 C 
HETATM    3  C3  UNL     1      23.378   8.392  48.232  1.00  0.00    -0.033 C 
ENDROOT
BRANCH   3   4
HETATM    4  S1  UNL     1      24.868   7.574  47.701  1.00  0.00    -0.062 SA
BRANCH   4   5
HETATM    5  C4  UNL     1      25.750   7.035  49.167  1.00  0.00     0.152 A 
HETATM    6  C5  UNL     1      25.288   7.814  50.347  1.00  0.00     0.112 A 
HETATM    7  N1  UNL     1      24.686   6.897  51.029  1.00  0.00    -0.266 NA
HETATM    8  C6  UNL     1      25.040   5.990  49.988  1.00  0.00     0.054 A 
HETATM    9  C7  UNL     1      24.807   4.675  49.826  1.00  0.00     0.045 C 
BRANCH   9  10
HETATM   10  C8  UNL     1      24.073   3.871  50.795  1.00  0.00     0.029 A 
HETATM   11  C9  UNL     1      22.715   4.090  50.806  1.00  0.00     0.133 A 
HETATM   12  N2  UNL     1      21.959   3.390  51.669  1.00  0.00    -0.253 NA
HETATM   13  C10 UNL     1      22.530   2.499  52.498  1.00  0.00     0.234 A 
HETATM   14  N3  UNL     1      23.854   2.304  52.469  1.00  0.00    -0.224 NA
HETATM   15  C11 UNL     1      24.681   2.957  51.643  1.00  0.00     0.141 A 
BRANCH  15  16
HETATM   16  N4  UNL     1      26.085   2.785  51.570  1.00  0.00    -0.340 N 
HETATM   17  H9  UNL     1      26.616   3.442  50.952  1.00  0.00     0.167 HD
BRANCH  16  18
HETATM   18  C12 UNL     1      26.897   1.835  52.224  1.00  0.00     0.035 A 
HETATM   19  C13 UNL     1      27.968   2.210  53.029  1.00  0.00     0.032 A 
HETATM   20  C14 UNL     1      28.772   1.313  53.676  1.00  0.00     0.046 A 
HETATM   21  C15 UNL     1      28.557  -0.033  53.562  1.00  0.00     0.138 A 
HETATM   22  F1  UNL     1      29.371  -0.889  54.216  1.00  0.00    -0.204 F 
HETATM   23  C16 UNL     1      27.516  -0.469  52.783  1.00  0.00     0.074 A 
HETATM   24 CL1  UNL     1      27.241  -2.192  52.638  1.00  0.00    -0.081 Cl
HETATM   25  C17 UNL     1      26.735   0.468  52.152  1.00  0.00     0.056 A 
ENDBRANCH  16  18
ENDBRANCH  15  16
ENDBRANCH   9  10
ENDBRANCH   4   5
ENDBRANCH   3   4
TORSDOF 5
ENDMDL
