MODEL 1
REMARK VINA RESULT:      -8.6      0.000      0.000
REMARK  7 active torsions:
REMARK  status: ('A' for Active; 'I' for Inactive)
REMARK    1  A    between atoms: C8_8  and  N1_9 
REMARK    2  A    between atoms: N1_9  and  C9_10 
REMARK    3  A    between atoms: C14_17  and  O1_18 
REMARK    4  A    between atoms: O1_18  and  C15_19 
REMARK    5  A    between atoms: C15_19  and  C16_20 
REMARK    6  A    between atoms: C16_20  and  O2_21 
REMARK    7  A    between atoms: C20_26  and  O4_27 
ROOT
HETATM    1  C1  UNL     1      28.255   2.593  53.553  1.00  0.00     0.018 C 
HETATM    2  C2  UNL     1      28.267   1.383  53.419  1.00  0.00    -0.075 C 
HETATM    3  C3  UNL     1      28.264  -0.058  53.245  1.00  0.00     0.043 A 
HETATM    4  C4  UNL     1      29.386  -0.827  53.477  1.00  0.00     0.023 A 
HETATM    5  C5  UNL     1      29.421  -2.176  53.313  1.00  0.00     0.002 A 
HETATM    6  C6  UNL     1      28.273  -2.846  52.893  1.00  0.00     0.002 A 
HETATM    7  C7  UNL     1      27.111  -2.107  52.647  1.00  0.00     0.031 A 
HETATM    8  C8  UNL     1      27.134  -0.727  52.829  1.00  0.00     0.052 A 
ENDROOT
BRANCH   8   9
HETATM    9  N1  UNL     1      25.978   0.064  52.593  1.00  0.00    -0.339 N 
HETATM   10  H6  UNL     1      25.950   0.891  51.968  1.00  0.00     0.167 HD
BRANCH   9  11
HETATM   11  C9  UNL     1      24.629   0.065  53.020  1.00  0.00     0.141 A 
HETATM   12  N2  UNL     1      24.100  -0.825  53.849  1.00  0.00    -0.224 NA
HETATM   13  C10 UNL     1      22.823  -0.745  54.193  1.00  0.00     0.235 A 
HETATM   14  N3  UNL     1      21.999   0.246  53.718  1.00  0.00    -0.245 NA
HETATM   15  C11 UNL     1      22.517   1.149  52.884  1.00  0.00     0.057 A 
HETATM   16  C12 UNL     1      23.848   1.050  52.538  1.00  0.00     0.038 A 
HETATM   17  C22 UNL     1      21.480   1.918  52.674  1.00  0.00     0.082 C 
HETATM   18  C13 UNL     1      24.161   2.033  51.764  1.00  0.00     0.056 C 
HETATM   19  C14 UNL     1      24.311   3.164  50.929  1.00  0.00     0.091 C 
HETATM   20  C18 UNL     1      23.336   3.996  50.519  1.00  0.00     0.171 C 
HETATM   21  O3  UNL     1      22.095   3.764  50.910  1.00  0.00    -0.358 OA
HETATM   22  C19 UNL     1      21.245   4.204  51.900  1.00  0.00     0.207 C 
HETATM   23  C20 UNL     1      20.467   2.897  52.299  1.00  0.00     0.155 C 
BRANCH  19  24
HETATM   24  O1  UNL     1      25.116   3.973  50.188  1.00  0.00    -0.347 OA
BRANCH  24  25
HETATM   25  C15 UNL     1      26.412   3.680  49.728  1.00  0.00     0.201 C 
BRANCH  25  26
HETATM   26  C16 UNL     1      26.944   4.849  48.881  1.00  0.00     0.193 C 
BRANCH  26  27
HETATM   27  O2  UNL     1      28.325   4.743  48.766  1.00  0.00    -0.394 OA
HETATM   28  C17 UNL     1      28.830   5.887  48.117  1.00  0.00     0.201 C 
ENDBRANCH  26  27
ENDBRANCH  25  26
ENDBRANCH  24  25
ENDBRANCH  19  24
BRANCH  23  29
HETATM   29  O4  UNL     1      19.832   2.515  51.130  1.00  0.00    -0.388 OA
HETATM   30  C21 UNL     1      19.160   1.309  51.287  1.00  0.00     0.202 C 
ENDBRANCH  23  29
ENDBRANCH   9  11
ENDBRANCH   8   9
TORSDOF 7
ENDMDL
MODEL 2
REMARK VINA RESULT:      -8.4      2.280      4.845
REMARK  7 active torsions:
REMARK  status: ('A' for Active; 'I' for Inactive)
REMARK    1  A    between atoms: C8_8  and  N1_9 
REMARK    2  A    between atoms: N1_9  and  C9_10 
REMARK    3  A    between atoms: C14_17  and  O1_18 
REMARK    4  A    between atoms: O1_18  and  C15_19 
REMARK    5  A    between atoms: C15_19  and  C16_20 
REMARK    6  A    between atoms: C16_20  and  O2_21 
REMARK    7  A    between atoms: C20_26  and  O4_27 
ROOT
HETATM    1  C1  UNL     1      29.124   2.510  53.892  1.00  0.00     0.018 C 
HETATM    2  C2  UNL     1      28.756   1.385  53.608  1.00  0.00    -0.075 C 
HETATM    3  C3  UNL     1      28.300   0.053  53.257  1.00  0.00     0.043 A 
HETATM    4  C4  UNL     1      29.103  -1.060  53.408  1.00  0.00     0.023 A 
HETATM    5  C5  UNL     1      28.712  -2.320  53.078  1.00  0.00     0.002 A 
HETATM    6  C6  UNL     1      27.435  -2.528  52.560  1.00  0.00     0.002 A 
HETATM    7  C7  UNL     1      26.586  -1.430  52.391  1.00  0.00     0.031 A 
HETATM    8  C8  UNL     1      27.040  -0.162  52.744  1.00  0.00     0.052 A 
ENDROOT
BRANCH   8   9
HETATM    9  N1  UNL     1      26.213   0.983  52.590  1.00  0.00    -0.339 N 
HETATM   10  H6  UNL     1      25.600   1.368  53.333  1.00  0.00     0.167 HD
BRANCH   9  11
HETATM   11  C9  UNL     1      25.924   1.912  51.562  1.00  0.00     0.141 A 
HETATM   12  N2  UNL     1      26.833   2.640  50.927  1.00  0.00    -0.224 NA
HETATM   13  C10 UNL     1      26.468   3.487  49.977  1.00  0.00     0.235 A 
HETATM   14  N3  UNL     1      25.155   3.650  49.607  1.00  0.00    -0.245 NA
HETATM   15  C11 UNL     1      24.230   2.924  50.237  1.00  0.00     0.057 A 
HETATM   16  C12 UNL     1      24.628   2.047  51.223  1.00  0.00     0.038 A 
HETATM   17  C22 UNL     1      23.144   3.317  49.621  1.00  0.00     0.082 C 
HETATM   18  C13 UNL     1      23.598   1.415  51.674  1.00  0.00     0.056 C 
HETATM   19  C14 UNL     1      22.361   0.838  52.041  1.00  0.00     0.091 C 
HETATM   20  C18 UNL     1      21.142   1.194  51.596  1.00  0.00     0.171 C 
HETATM   21  O3  UNL     1      21.048   2.188  50.729  1.00  0.00    -0.358 OA
HETATM   22  C19 UNL     1      20.942   2.335  49.364  1.00  0.00     0.207 C 
HETATM   23  C20 UNL     1      21.822   3.607  49.081  1.00  0.00     0.155 C 
BRANCH  19  24
HETATM   24  O1  UNL     1      21.668  -0.076  52.774  1.00  0.00    -0.347 OA
BRANCH  24  25
HETATM   25  C15 UNL     1      21.611  -0.164  54.176  1.00  0.00     0.201 C 
BRANCH  25  26
HETATM   26  C16 UNL     1      22.034  -1.571  54.630  1.00  0.00     0.193 C 
BRANCH  26  27
HETATM   27  O2  UNL     1      22.844  -1.467  55.756  1.00  0.00    -0.394 OA
HETATM   28  C17 UNL     1      24.177  -1.251  55.356  1.00  0.00     0.201 C 
ENDBRANCH  26  27
ENDBRANCH  25  26
ENDBRANCH  24  25
ENDBRANCH  19  24
BRANCH  23  29
HETATM   29  O4  UNL     1      21.208   4.609  49.812  1.00  0.00    -0.388 OA
HETATM   30  C21 UNL     1      21.906   5.807  49.720  1.00  0.00     0.202 C 
ENDBRANCH  23  29
ENDBRANCH   9  11
ENDBRANCH   8   9
TORSDOF 7
ENDMDL
MODEL 3
REMARK VINA RESULT:      -8.4      3.084      6.333
REMARK  7 active torsions:
REMARK  status: ('A' for Active; 'I' for Inactive)
REMARK    1  A    between atoms: C8_8  and  N1_9 
REMARK    2  A    between atoms: N1_9  and  C9_10 
REMARK    3  A    between atoms: C14_17  and  O1_18 
REMARK    4  A    between atoms: O1_18  and  C15_19 
REMARK    5  A    between atoms: C15_19  and  C16_20 
REMARK    6  A    between atoms: C16_20  and  O2_21 
REMARK    7  A    between atoms: C20_26  and  O4_27 
ROOT
HETATM    1  C1  UNL     1      26.470   3.265  49.644  1.00  0.00     0.018 C 
HETATM    2  C2  UNL     1      26.084   4.419  49.681  1.00  0.00    -0.075 C 
HETATM    3  C3  UNL     1      25.617   5.792  49.746  1.00  0.00     0.043 A 
HETATM    4  C4  UNL     1      26.069   6.761  48.874  1.00  0.00     0.023 A 
HETATM    5  C5  UNL     1      25.661   8.058  48.915  1.00  0.00     0.002 A 
HETATM    6  C6  UNL     1      24.734   8.456  49.877  1.00  0.00     0.002 A 
HETATM    7  C7  UNL     1      24.248   7.507  50.780  1.00  0.00     0.031 A 
HETATM    8  C8  UNL     1      24.702   6.193  50.694  1.00  0.00     0.052 A 
ENDROOT
BRANCH   8   9
HETATM    9  N1  UNL     1      24.235   5.195  51.589  1.00  0.00    -0.339 N 
HETATM   10  H6  UNL     1      24.583   5.065  52.558  1.00  0.00     0.167 HD
BRANCH   9  11
HETATM   11  C9  UNL     1      23.280   4.150  51.557  1.00  0.00     0.141 A 
HETATM   12  N2  UNL     1      22.102   4.224  50.952  1.00  0.00    -0.224 NA
HETATM   13  C10 UNL     1      21.271   3.194  50.976  1.00  0.00     0.235 A 
HETATM   14  N3  UNL     1      21.581   2.018  51.616  1.00  0.00    -0.245 NA
HETATM   15  C11 UNL     1      22.763   1.929  52.228  1.00  0.00     0.057 A 
HETATM   16  C12 UNL     1      23.616   3.011  52.192  1.00  0.00     0.038 A 
HETATM   17  C22 UNL     1      22.715   0.703  52.684  1.00  0.00     0.082 C 
HETATM   18  C13 UNL     1      24.713   2.710  52.800  1.00  0.00     0.056 C 
HETATM   19  C14 UNL     1      25.827   2.203  53.506  1.00  0.00     0.091 C 
HETATM   20  C18 UNL     1      25.910   1.016  54.133  1.00  0.00     0.171 C 
HETATM   21  O3  UNL     1      24.860   0.213  54.117  1.00  0.00    -0.358 OA
HETATM   22  C19 UNL     1      24.423  -0.869  53.385  1.00  0.00     0.207 C 
HETATM   23  C20 UNL     1      22.874  -0.617  53.281  1.00  0.00     0.155 C 
BRANCH  19  24
HETATM   24  O1  UNL     1      27.102   2.367  53.954  1.00  0.00    -0.347 OA
BRANCH  24  25
HETATM   25  C15 UNL     1      28.283   1.971  53.302  1.00  0.00     0.201 C 
BRANCH  25  26
HETATM   26  C16 UNL     1      29.343   1.564  54.339  1.00  0.00     0.193 C 
BRANCH  26  27
HETATM   27  O2  UNL     1      29.165   0.228  54.680  1.00  0.00    -0.394 OA
HETATM   28  C17 UNL     1      29.685  -0.590  53.658  1.00  0.00     0.201 C 
ENDBRANCH  26  27
ENDBRANCH  25  26
ENDBRANCH  24  25
ENDBRANCH  19  24
BRANCH  23  29
HETATM   29  O4  UNL     1      22.447  -0.608  54.598  1.00  0.00    -0.388 OA
HETATM   30  C21 UNL     1      21.139  -0.153  54.706  1.00  0.00     0.202 C 
ENDBRANCH  23  29
ENDBRANCH   9  11
ENDBRANCH   8   9
TORSDOF 7
ENDMDL
MODEL 4
REMARK VINA RESULT:      -8.2      2.390      6.671
REMARK  7 active torsions:
REMARK  status: ('A' for Active; 'I' for Inactive)
REMARK    1  A    between atoms: C8_8  and  N1_9 
REMARK    2  A    between atoms: N1_9  and  C9_10 
REMARK    3  A    between atoms: C14_17  and  O1_18 
REMARK    4  A    between atoms: O1_18  and  C15_19 
REMARK    5  A    between atoms: C15_19  and  C16_20 
REMARK    6  A    between atoms: C16_20  and  O2_21 
REMARK    7  A    between atoms: C20_26  and  O4_27 
ROOT
HETATM    1  C1  UNL     1      21.050   1.668  49.876  1.00  0.00     0.018 C 
HETATM    2  C2  UNL     1      20.274   1.028  50.563  1.00  0.00    -0.075 C 
HETATM    3  C3  UNL     1      19.360   0.273  51.400  1.00  0.00     0.043 A 
HETATM    4  C4  UNL     1      18.105  -0.098  50.964  1.00  0.00     0.023 A 
HETATM    5  C5  UNL     1      17.220  -0.796  51.726  1.00  0.00     0.002 A 
HETATM    6  C6  UNL     1      17.577  -1.172  53.020  1.00  0.00     0.002 A 
HETATM    7  C7  UNL     1      18.840  -0.819  53.503  1.00  0.00     0.031 A 
HETATM    8  C8  UNL     1      19.704  -0.102  52.680  1.00  0.00     0.052 A 
ENDROOT
BRANCH   8   9
HETATM    9  N1  UNL     1      20.998   0.278  53.127  1.00  0.00    -0.339 N 
HETATM   10  H6  UNL     1      21.438   1.198  52.938  1.00  0.00     0.167 HD
BRANCH   9  11
HETATM   11  C9  UNL     1      22.041  -0.315  53.878  1.00  0.00     0.141 A 
HETATM   12  N2  UNL     1      21.861  -1.182  54.864  1.00  0.00    -0.224 NA
HETATM   13  C10 UNL     1      22.900  -1.684  55.514  1.00  0.00     0.235 A 
HETATM   14  N3  UNL     1      24.193  -1.339  55.202  1.00  0.00    -0.245 NA
HETATM   15  C11 UNL     1      24.390  -0.468  54.211  1.00  0.00     0.057 A 
HETATM   16  C12 UNL     1      23.297   0.043  53.547  1.00  0.00     0.038 A 
HETATM   17  C22 UNL     1      25.697  -0.407  54.190  1.00  0.00     0.082 C 
HETATM   18  C13 UNL     1      23.698   0.828  52.605  1.00  0.00     0.056 C 
HETATM   19  C14 UNL     1      24.325   1.648  51.640  1.00  0.00     0.091 C 
HETATM   20  C18 UNL     1      25.640   1.914  51.541  1.00  0.00     0.171 C 
HETATM   21  O3  UNL     1      26.465   1.377  52.423  1.00  0.00    -0.358 OA
HETATM   22  C19 UNL     1      27.293   0.279  52.498  1.00  0.00     0.207 C 
HETATM   23  C20 UNL     1      27.124  -0.184  53.991  1.00  0.00     0.155 C 
BRANCH  19  24
HETATM   24  O1  UNL     1      24.225   2.466  50.556  1.00  0.00    -0.347 OA
BRANCH  24  25
HETATM   25  C15 UNL     1      24.738   3.769  50.432  1.00  0.00     0.201 C 
BRANCH  25  26
HETATM   26  C16 UNL     1      23.585   4.786  50.407  1.00  0.00     0.193 C 
BRANCH  26  27
HETATM   27  O2  UNL     1      23.334   5.228  51.702  1.00  0.00    -0.394 OA
HETATM   28  C17 UNL     1      22.080   4.746  52.126  1.00  0.00     0.201 C 
ENDBRANCH  26  27
ENDBRANCH  25  26
ENDBRANCH  24  25
ENDBRANCH  19  24
BRANCH  23  29
HETATM   29  O4  UNL     1      27.552   0.905  54.731  1.00  0.00    -0.388 OA
HETATM   30  C21 UNL     1      28.938   1.002  54.736  1.00  0.00     0.202 C 
ENDBRANCH  23  29
ENDBRANCH   9  11
ENDBRANCH   8   9
TORSDOF 7
ENDMDL
MODEL 5
REMARK VINA RESULT:      -8.1      1.755      2.747
REMARK  7 active torsions:
REMARK  status: ('A' for Active; 'I' for Inactive)
REMARK    1  A    between atoms: C8_8  and  N1_9 
REMARK    2  A    between atoms: N1_9  and  C9_10 
REMARK    3  A    between atoms: C14_17  and  O1_18 
REMARK    4  A    between atoms: O1_18  and  C15_19 
REMARK    5  A    between atoms: C15_19  and  C16_20 
REMARK    6  A    between atoms: C16_20  and  O2_21 
REMARK    7  A    between atoms: C20_26  and  O4_27 
ROOT
HETATM    1  C1  UNL     1      24.829   3.181  53.437  1.00  0.00     0.018 C 
HETATM    2  C2  UNL     1      25.794   2.442  53.503  1.00  0.00    -0.075 C 
HETATM    3  C3  UNL     1      26.934   1.546  53.569  1.00  0.00     0.043 A 
HETATM    4  C4  UNL     1      28.207   2.000  53.849  1.00  0.00     0.023 A 
HETATM    5  C5  UNL     1      29.298   1.190  53.907  1.00  0.00     0.002 A 
HETATM    6  C6  UNL     1      29.151  -0.177  53.679  1.00  0.00     0.002 A 
HETATM    7  C7  UNL     1      27.879  -0.682  53.393  1.00  0.00     0.031 A 
HETATM    8  C8  UNL     1      26.797   0.194  53.344  1.00  0.00     0.052 A 
ENDROOT
BRANCH   8   9
HETATM    9  N1  UNL     1      25.486  -0.273  53.058  1.00  0.00    -0.339 N 
HETATM   10  H6  UNL     1      25.131  -0.479  52.106  1.00  0.00     0.167 HD
BRANCH   9  11
HETATM   11  C9  UNL     1      24.326  -0.598  53.801  1.00  0.00     0.141 A 
HETATM   12  N2  UNL     1      24.330  -1.227  54.968  1.00  0.00    -0.224 NA
HETATM   13  C10 UNL     1      23.192  -1.490  55.592  1.00  0.00     0.235 A 
HETATM   14  N3  UNL     1      21.973  -1.131  55.071  1.00  0.00    -0.245 NA
HETATM   15  C11 UNL     1      21.953  -0.496  53.897  1.00  0.00     0.057 A 
HETATM   16  C12 UNL     1      23.148  -0.230  53.264  1.00  0.00     0.038 A 
HETATM   17  C22 UNL     1      20.669  -0.301  53.742  1.00  0.00     0.082 C 
HETATM   18  C13 UNL     1      22.917   0.422  52.175  1.00  0.00     0.056 C 
HETATM   19  C14 UNL     1      22.468   1.115  51.028  1.00  0.00     0.091 C 
HETATM   20  C18 UNL     1      21.191   1.310  50.653  1.00  0.00     0.171 C 
HETATM   21  O3  UNL     1      20.225   0.812  51.405  1.00  0.00    -0.358 OA
HETATM   22  C19 UNL     1      19.383   1.257  52.400  1.00  0.00     0.207 C 
HETATM   23  C20 UNL     1      19.297   0.019  53.365  1.00  0.00     0.155 C 
BRANCH  19  24
HETATM   24  O1  UNL     1      22.756   1.809  49.893  1.00  0.00    -0.347 OA
BRANCH  24  25
HETATM   25  C15 UNL     1      23.137   3.159  49.804  1.00  0.00     0.201 C 
BRANCH  25  26
HETATM   26  C16 UNL     1      24.665   3.264  49.651  1.00  0.00     0.193 C 
BRANCH  26  27
HETATM   27  O2  UNL     1      25.085   4.520  50.075  1.00  0.00    -0.394 OA
HETATM   28  C17 UNL     1      26.203   4.920  49.317  1.00  0.00     0.201 C 
ENDBRANCH  26  27
ENDBRANCH  25  26
ENDBRANCH  24  25
ENDBRANCH  19  24
BRANCH  23  29
HETATM   29  O4  UNL     1      18.765  -0.986  52.575  1.00  0.00    -0.388 OA
HETATM   30  C21 UNL     1      17.423  -1.200  52.861  1.00  0.00     0.202 C 
ENDBRANCH  23  29
ENDBRANCH   9  11
ENDBRANCH   8   9
TORSDOF 7
ENDMDL
MODEL 6
REMARK VINA RESULT:      -7.9      2.973      7.645
REMARK  7 active torsions:
REMARK  status: ('A' for Active; 'I' for Inactive)
REMARK    1  A    between atoms: C8_8  and  N1_9 
REMARK    2  A    between atoms: N1_9  and  C9_10 
REMARK    3  A    between atoms: C14_17  and  O1_18 
REMARK    4  A    between atoms: O1_18  and  C15_19 
REMARK    5  A    between atoms: C15_19  and  C16_20 
REMARK    6  A    between atoms: C16_20  and  O2_21 
REMARK    7  A    between atoms: C20_26  and  O4_27 
ROOT
HETATM    1  C1  UNL     1      21.992   4.995  52.169  1.00  0.00     0.018 C 
HETATM    2  C2  UNL     1      21.855   4.500  51.065  1.00  0.00    -0.075 C 
HETATM    3  C3  UNL     1      21.698   3.889  49.758  1.00  0.00     0.043 A 
HETATM    4  C4  UNL     1      20.871   4.426  48.793  1.00  0.00     0.023 A 
HETATM    5  C5  UNL     1      20.693   3.873  47.563  1.00  0.00     0.002 A 
HETATM    6  C6  UNL     1      21.373   2.702  47.232  1.00  0.00     0.002 A 
HETATM    7  C7  UNL     1      22.223   2.123  48.179  1.00  0.00     0.031 A 
HETATM    8  C8  UNL     1      22.366   2.732  49.423  1.00  0.00     0.052 A 
ENDROOT
BRANCH   8   9
HETATM    9  N1  UNL     1      23.219   2.180  50.416  1.00  0.00    -0.339 N 
HETATM   10  H6  UNL     1      22.922   1.485  51.126  1.00  0.00     0.167 HD
BRANCH   9  11
HETATM   11  C9  UNL     1      24.577   2.312  50.793  1.00  0.00     0.141 A 
HETATM   12  N2  UNL     1      25.448   3.120  50.204  1.00  0.00    -0.224 NA
HETATM   13  C10 UNL     1      26.702   3.176  50.625  1.00  0.00     0.235 A 
HETATM   14  N3  UNL     1      27.155   2.415  51.675  1.00  0.00    -0.245 NA
HETATM   15  C11 UNL     1      26.290   1.598  52.279  1.00  0.00     0.057 A 
HETATM   16  C12 UNL     1      24.989   1.554  51.827  1.00  0.00     0.038 A 
HETATM   17  C22 UNL     1      27.048   1.078  53.210  1.00  0.00     0.082 C 
HETATM   18  C13 UNL     1      24.309   0.742  52.563  1.00  0.00     0.056 C 
HETATM   19  C14 UNL     1      23.738  -0.183  53.467  1.00  0.00     0.091 C 
HETATM   20  C18 UNL     1      24.385  -0.892  54.409  1.00  0.00     0.171 C 
HETATM   21  O3  UNL     1      25.693  -0.743  54.531  1.00  0.00    -0.358 OA
HETATM   22  C19 UNL     1      26.561  -0.018  55.317  1.00  0.00     0.207 C 
HETATM   23  C20 UNL     1      27.701   0.375  54.308  1.00  0.00     0.155 C 
BRANCH  19  24
HETATM   24  O1  UNL     1      22.640  -0.838  53.932  1.00  0.00    -0.347 OA
BRANCH  24  25
HETATM   25  C15 UNL     1      21.628  -0.311  54.754  1.00  0.00     0.201 C 
BRANCH  25  26
HETATM   26  C16 UNL     1      20.625   0.487  53.903  1.00  0.00     0.193 C 
BRANCH  26  27
HETATM   27  O2  UNL     1      20.230  -0.284  52.815  1.00  0.00    -0.394 OA
HETATM   28  C17 UNL     1      20.245   0.509  51.650  1.00  0.00     0.201 C 
ENDBRANCH  26  27
ENDBRANCH  25  26
ENDBRANCH  24  25
ENDBRANCH  19  24
BRANCH  23  29
HETATM   29  O4  UNL     1      28.201  -0.841  53.876  1.00  0.00    -0.388 OA
HETATM   30  C21 UNL     1      29.586  -0.814  53.774  1.00  0.00     0.202 C 
ENDBRANCH  23  29
ENDBRANCH   9  11
ENDBRANCH   8   9
TORSDOF 7
ENDMDL
MODEL 7
REMARK VINA RESULT:      -7.8      2.035      2.596
REMARK  7 active torsions:
REMARK  status: ('A' for Active; 'I' for Inactive)
REMARK    1  A    between atoms: C8_8  and  N1_9 
REMARK    2  A    between atoms: N1_9  and  C9_10 
REMARK    3  A    between atoms: C14_17  and  O1_18 
REMARK    4  A    between atoms: O1_18  and  C15_19 
REMARK    5  A    between atoms: C15_19  and  C16_20 
REMARK    6  A    between atoms: C16_20  and  O2_21 
REMARK    7  A    between atoms: C20_26  and  O4_27 
ROOT
HETATM    1  C1  UNL     1      26.344   2.860  50.611  1.00  0.00     0.018 C 
HETATM    2  C2  UNL     1      26.825   2.312  51.586  1.00  0.00    -0.075 C 
HETATM    3  C3  UNL     1      27.384   1.641  52.745  1.00  0.00     0.043 A 
HETATM    4  C4  UNL     1      28.634   1.952  53.240  1.00  0.00     0.023 A 
HETATM    5  C5  UNL     1      29.192   1.335  54.316  1.00  0.00     0.002 A 
HETATM    6  C6  UNL     1      28.483   0.332  54.976  1.00  0.00     0.002 A 
HETATM    7  C7  UNL     1      27.212  -0.016  54.510  1.00  0.00     0.031 A 
HETATM    8  C8  UNL     1      26.691   0.648  53.402  1.00  0.00     0.052 A 
ENDROOT
BRANCH   8   9
HETATM    9  N1  UNL     1      25.403   0.329  52.894  1.00  0.00    -0.339 N 
HETATM   10  H6  UNL     1      25.145   0.357  51.890  1.00  0.00     0.167 HD
BRANCH   9  11
HETATM   11  C9  UNL     1      24.161  -0.085  53.430  1.00  0.00     0.141 A 
HETATM   12  N2  UNL     1      24.021  -0.894  54.472  1.00  0.00    -0.224 NA
HETATM   13  C10 UNL     1      22.815  -1.229  54.903  1.00  0.00     0.235 A 
HETATM   14  N3  UNL     1      21.669  -0.764  54.305  1.00  0.00    -0.245 NA
HETATM   15  C11 UNL     1      21.794   0.051  53.256  1.00  0.00     0.057 A 
HETATM   16  C12 UNL     1      23.057   0.389  52.821  1.00  0.00     0.038 A 
HETATM   17  C22 UNL     1      20.538   0.296  52.981  1.00  0.00     0.082 C 
HETATM   18  C13 UNL     1      22.962   1.211  51.832  1.00  0.00     0.056 C 
HETATM   19  C14 UNL     1      22.658   2.089  50.767  1.00  0.00     0.091 C 
HETATM   20  C18 UNL     1      21.437   2.370  50.278  1.00  0.00     0.171 C 
HETATM   21  O3  UNL     1      20.385   1.778  50.818  1.00  0.00    -0.358 OA
HETATM   22  C19 UNL     1      19.429   2.076  51.764  1.00  0.00     0.207 C 
HETATM   23  C20 UNL     1      19.223   0.701  52.498  1.00  0.00     0.155 C 
BRANCH  19  24
HETATM   24  O1  UNL     1      23.084   2.950  49.802  1.00  0.00    -0.347 OA
BRANCH  24  25
HETATM   25  C15 UNL     1      23.023   4.354  49.838  1.00  0.00     0.201 C 
BRANCH  25  26
HETATM   26  C16 UNL     1      23.813   4.943  48.656  1.00  0.00     0.193 C 
BRANCH  26  27
HETATM   27  O2  UNL     1      24.576   6.016  49.102  1.00  0.00    -0.394 OA
HETATM   28  C17 UNL     1      24.470   6.115  50.503  1.00  0.00     0.201 C 
ENDBRANCH  26  27
ENDBRANCH  25  26
ENDBRANCH  24  25
ENDBRANCH  19  24
BRANCH  23  29
HETATM   29  O4  UNL     1      18.790  -0.151  51.498  1.00  0.00    -0.388 OA
HETATM   30  C21 UNL     1      17.523  -0.652  51.770  1.00  0.00     0.202 C 
ENDBRANCH  23  29
ENDBRANCH   9  11
ENDBRANCH   8   9
TORSDOF 7
ENDMDL
MODEL 8
REMARK VINA RESULT:      -7.7      2.838      5.978
REMARK  7 active torsions:
REMARK  status: ('A' for Active; 'I' for Inactive)
REMARK    1  A    between atoms: C8_8  and  N1_9 
REMARK    2  A    between atoms: N1_9  and  C9_10 
REMARK    3  A    between atoms: C14_17  and  O1_18 
REMARK    4  A    between atoms: O1_18  and  C15_19 
REMARK    5  A    between atoms: C15_19  and  C16_20 
REMARK    6  A    between atoms: C16_20  and  O2_21 
REMARK    7  A    between atoms: C20_26  and  O4_27 
ROOT
HETATM    1  C1  UNL     1      23.158   5.905  49.476  1.00  0.00     0.018 C 
HETATM    2  C2  UNL     1      24.341   5.926  49.188  1.00  0.00    -0.075 C 
HETATM    3  C3  UNL     1      25.750   5.927  48.844  1.00  0.00     0.043 A 
HETATM    4  C4  UNL     1      26.380   7.046  48.339  1.00  0.00     0.023 A 
HETATM    5  C5  UNL     1      27.696   7.078  47.995  1.00  0.00     0.002 A 
HETATM    6  C6  UNL     1      28.474   5.933  48.154  1.00  0.00     0.002 A 
HETATM    7  C7  UNL     1      27.879   4.776  48.664  1.00  0.00     0.031 A 
HETATM    8  C8  UNL     1      26.527   4.799  48.997  1.00  0.00     0.052 A 
ENDROOT
BRANCH   8   9
HETATM    9  N1  UNL     1      25.879   3.648  49.518  1.00  0.00    -0.339 N 
HETATM   10  H6  UNL     1      25.151   3.106  49.017  1.00  0.00     0.167 HD
BRANCH   9  11
HETATM   11  C9  UNL     1      25.936   2.888  50.712  1.00  0.00     0.141 A 
HETATM   12  N2  UNL     1      27.033   2.694  51.430  1.00  0.00    -0.224 NA
HETATM   13  C10 UNL     1      26.991   1.965  52.535  1.00  0.00     0.235 A 
HETATM   14  N3  UNL     1      25.830   1.386  52.984  1.00  0.00    -0.245 NA
HETATM   15  C11 UNL     1      24.717   1.574  52.273  1.00  0.00     0.057 A 
HETATM   16  C12 UNL     1      24.780   2.335  51.126  1.00  0.00     0.038 A 
HETATM   17  C22 UNL     1      23.845   0.919  52.997  1.00  0.00     0.082 C 
HETATM   18  C13 UNL     1      23.601   2.431  50.611  1.00  0.00     0.056 C 
HETATM   19  C14 UNL     1      22.250   2.414  50.198  1.00  0.00     0.091 C 
HETATM   20  C18 UNL     1      21.246   1.710  50.754  1.00  0.00     0.171 C 
HETATM   21  O3  UNL     1      21.512   0.936  51.792  1.00  0.00    -0.358 OA
HETATM   22  C19 UNL     1      21.428   1.016  53.164  1.00  0.00     0.207 C 
HETATM   23  C20 UNL     1      22.718   0.253  53.638  1.00  0.00     0.155 C 
BRANCH  19  24
HETATM   24  O1  UNL     1      21.283   2.840  49.340  1.00  0.00    -0.347 OA
BRANCH  24  25
HETATM   25  C15 UNL     1      20.925   2.253  48.114  1.00  0.00     0.201 C 
BRANCH  25  26
HETATM   26  C16 UNL     1      20.152   3.266  47.253  1.00  0.00     0.193 C 
BRANCH  26  27
HETATM   27  O2  UNL     1      21.028   4.244  46.794  1.00  0.00    -0.394 OA
HETATM   28  C17 UNL     1      21.768   3.736  45.709  1.00  0.00     0.201 C 
ENDBRANCH  26  27
ENDBRANCH  25  26
ENDBRANCH  24  25
ENDBRANCH  19  24
BRANCH  23  29
HETATM   29  O4  UNL     1      22.557  -1.025  53.131  1.00  0.00    -0.388 OA
HETATM   30  C21 UNL     1      21.750  -1.800  53.954  1.00  0.00     0.202 C 
ENDBRANCH  23  29
ENDBRANCH   9  11
ENDBRANCH   8   9
TORSDOF 7
ENDMDL
MODEL 9
REMARK VINA RESULT:      -7.6      2.455      5.634
REMARK  7 active torsions:
REMARK  status: ('A' for Active; 'I' for Inactive)
REMARK    1  A    between atoms: C8_8  and  N1_9 
REMARK    2  A    between atoms: N1_9  and  C9_10 
REMARK    3  A    between atoms: C14_17  and  O1_18 
REMARK    4  A    between atoms: O1_18  and  C15_19 
REMARK    5  A    between atoms: C15_19  and  C16_20 
REMARK    6  A    between atoms: C16_20  and  O2_21 
REMARK    7  A    between atoms: C20_26  and  O4_27 
ROOT
HETATM    1  C1  UNL     1      23.321  -0.218  53.206  1.00  0.00     0.018 C 
HETATM    2  C2  UNL     1      24.494   0.061  53.380  1.00  0.00    -0.075 C 
HETATM    3  C3  UNL     1      25.888   0.412  53.575  1.00  0.00     0.043 A 
HETATM    4  C4  UNL     1      26.614  -0.042  54.657  1.00  0.00     0.023 A 
HETATM    5  C5  UNL     1      27.918   0.276  54.875  1.00  0.00     0.002 A 
HETATM    6  C6  UNL     1      28.583   1.102  53.970  1.00  0.00     0.002 A 
HETATM    7  C7  UNL     1      27.887   1.585  52.858  1.00  0.00     0.031 A 
HETATM    8  C8  UNL     1      26.553   1.228  52.686  1.00  0.00     0.052 A 
ENDROOT
BRANCH   8   9
HETATM    9  N1  UNL     1      25.806   1.694  51.571  1.00  0.00    -0.339 N 
HETATM   10  H6  UNL     1      25.023   1.176  51.130  1.00  0.00     0.167 HD
BRANCH   9  11
HETATM   11  C9  UNL     1      25.804   2.842  50.742  1.00  0.00     0.141 A 
HETATM   12  N2  UNL     1      26.834   3.244  50.010  1.00  0.00    -0.224 NA
HETATM   13  C10 UNL     1      26.741   4.334  49.263  1.00  0.00     0.235 A 
HETATM   14  N3  UNL     1      25.594   5.088  49.211  1.00  0.00    -0.245 NA
HETATM   15  C11 UNL     1      24.549   4.695  49.942  1.00  0.00     0.057 A 
HETATM   16  C12 UNL     1      24.664   3.558  50.711  1.00  0.00     0.038 A 
HETATM   17  C22 UNL     1      23.667   5.609  49.626  1.00  0.00     0.082 C 
HETATM   18  C13 UNL     1      23.541   3.327  51.303  1.00  0.00     0.056 C 
HETATM   19  C14 UNL     1      22.247   3.246  51.864  1.00  0.00     0.091 C 
HETATM   20  C18 UNL     1      21.257   4.148  51.740  1.00  0.00     0.171 C 
HETATM   21  O3  UNL     1      21.479   5.242  51.032  1.00  0.00    -0.358 OA
HETATM   22  C19 UNL     1      21.247   5.684  49.748  1.00  0.00     0.207 C 
HETATM   23  C20 UNL     1      22.542   6.514  49.424  1.00  0.00     0.155 C 
BRANCH  19  24
HETATM   24  O1  UNL     1      21.342   2.571  52.624  1.00  0.00    -0.347 OA
BRANCH  24  25
HETATM   25  C15 UNL     1      20.074   2.115  52.220  1.00  0.00     0.201 C 
BRANCH  25  26
HETATM   26  C16 UNL     1      20.194   0.709  51.608  1.00  0.00     0.193 C 
BRANCH  26  27
HETATM   27  O2  UNL     1      19.114  -0.065  52.018  1.00  0.00    -0.394 OA
HETATM   28  C17 UNL     1      19.385  -0.611  53.288  1.00  0.00     0.201 C 
ENDBRANCH  26  27
ENDBRANCH  25  26
ENDBRANCH  24  25
ENDBRANCH  19  24
BRANCH  23  29
HETATM   29  O4  UNL     1      22.547   7.515  50.380  1.00  0.00    -0.388 OA
HETATM   30  C21 UNL     1      23.770   8.171  50.424  1.00  0.00     0.202 C 
ENDBRANCH  23  29
ENDBRANCH   9  11
ENDBRANCH   8   9
TORSDOF 7
ENDMDL
