MODEL 1
REMARK VINA RESULT:      -6.7      0.000      0.000
REMARK  6 active torsions:
REMARK  status: ('A' for Active; 'I' for Inactive)
REMARK    1  A    between atoms: C2_3  and  C3_4 
REMARK    2  A    between atoms: C3_4  and  O1_5 
REMARK    3  A    between atoms: O1_5  and  C4_6 
REMARK    4  A    between atoms: C9_11  and  O2_12 
REMARK    5  A    between atoms: C15_20  and  N2_21 
REMARK    6  A    between atoms: C16_22  and  N3_23 
ROOT
HETATM    1  C1  UNL     1      28.609   8.915  47.616  1.00  0.00     0.018 C 
HETATM    2  S1  UNL     1      27.949   7.149  48.166  1.00  0.00    -0.022 SA
HETATM    3  C2  UNL     1      27.335   5.580  48.674  1.00  0.00    -0.074 C 
ENDROOT
BRANCH   3   4
HETATM    4  C3  UNL     1      26.815   4.310  49.104  1.00  0.00     0.269 C 
BRANCH   4   5
HETATM    5  O1  UNL     1      25.399   4.479  49.268  1.00  0.00    -0.337 OA
BRANCH   5   6
HETATM    6  C4  UNL     1      24.756   3.501  50.015  1.00  0.00     0.104 A 
HETATM    7  C5  UNL     1      25.382   2.964  51.145  1.00  0.00     0.055 A 
HETATM    8  C6  UNL     1      24.713   1.993  51.862  1.00  0.00     0.024 A 
HETATM    9  C7  UNL     1      23.472   1.530  51.528  1.00  0.00    -0.010 A 
HETATM   10  C15 UNL     1      25.343   1.513  52.924  1.00  0.00     0.140 A 
HETATM   11  C8  UNL     1      22.887   2.086  50.404  1.00  0.00     0.052 A 
HETATM   12  C11 UNL     1      22.823   0.609  52.199  1.00  0.00    -0.013 A 
HETATM   13  C9  UNL     1      23.491   3.054  49.642  1.00  0.00     0.102 A 
HETATM   14  C12 UNL     1      21.632  -0.238  52.379  1.00  0.00     0.095 A 
HETATM   15  C14 UNL     1      23.474   0.042  53.383  1.00  0.00     0.059 A 
HETATM   16  C13 UNL     1      22.406  -0.723  53.551  1.00  0.00     0.043 A 
HETATM   17 CL1  UNL     1      22.008  -1.936  54.772  1.00  0.00    -0.086 Cl
HETATM   18  N1  UNL     1      24.769   0.504  53.760  1.00  0.00    -0.339 N 
HETATM   19  H11 UNL     1      25.264   0.125  54.596  1.00  0.00     0.167 HD
BRANCH  13  20
HETATM   20  O2  UNL     1      22.940   3.637  48.510  1.00  0.00    -0.353 OA
HETATM   21  C10 UNL     1      21.942   4.600  48.653  1.00  0.00     0.210 C 
ENDBRANCH  13  20
BRANCH  10  22
HETATM   22  N2  UNL     1      26.633   1.972  53.300  1.00  0.00    -0.226 NA
HETATM   23  C16 UNL     1      27.378   1.172  53.942  1.00  0.00     0.202 C 
BRANCH  23  24
HETATM   24  N3  UNL     1      28.628   1.774  54.243  1.00  0.00    -0.394 N 
HETATM   25  H13 UNL     1      29.191   1.655  55.108  1.00  0.00     0.156 HD
HETATM   26  H14 UNL     1      29.301   2.424  53.791  1.00  0.00     0.156 HD
ENDBRANCH  23  24
ENDBRANCH  10  22
ENDBRANCH   5   6
ENDBRANCH   4   5
ENDBRANCH   3   4
TORSDOF 6
ENDMDL
MODEL 2
REMARK VINA RESULT:      -6.6      4.099      6.235
REMARK  6 active torsions:
REMARK  status: ('A' for Active; 'I' for Inactive)
REMARK    1  A    between atoms: C2_3  and  C3_4 
REMARK    2  A    between atoms: C3_4  and  O1_5 
REMARK    3  A    between atoms: O1_5  and  C4_6 
REMARK    4  A    between atoms: C9_11  and  O2_12 
REMARK    5  A    between atoms: C15_20  and  N2_21 
REMARK    6  A    between atoms: C16_22  and  N3_23 
ROOT
HETATM    1  C1  UNL     1      15.425   3.985  50.742  1.00  0.00     0.018 C 
HETATM    2  S1  UNL     1      17.313   3.683  51.191  1.00  0.00    -0.022 SA
HETATM    3  C2  UNL     1      19.003   3.437  51.614  1.00  0.00    -0.074 C 
ENDROOT
BRANCH   3   4
HETATM    4  C3  UNL     1      20.384   3.256  51.973  1.00  0.00     0.269 C 
BRANCH   4   5
HETATM    5  O1  UNL     1      20.788   1.990  51.431  1.00  0.00    -0.337 OA
BRANCH   5   6
HETATM    6  C4  UNL     1      22.041   1.537  51.820  1.00  0.00     0.104 A 
HETATM    7  C5  UNL     1      23.190   2.184  51.354  1.00  0.00     0.055 A 
HETATM    8  C6  UNL     1      24.419   1.707  51.762  1.00  0.00     0.024 A 
HETATM    9  C7  UNL     1      24.573   0.635  52.595  1.00  0.00    -0.010 A 
HETATM   10  C15 UNL     1      25.480   2.350  51.296  1.00  0.00     0.140 A 
HETATM   11  C8  UNL     1      23.412   0.023  53.033  1.00  0.00     0.052 A 
HETATM   12  C11 UNL     1      25.733   0.169  52.991  1.00  0.00    -0.013 A 
HETATM   13  C9  UNL     1      22.157   0.441  52.671  1.00  0.00     0.102 A 
HETATM   14  C12 UNL     1      26.520  -0.803  53.768  1.00  0.00     0.095 A 
HETATM   15  C14 UNL     1      26.940   0.843  52.506  1.00  0.00     0.059 A 
HETATM   16  C13 UNL     1      27.654  -0.028  53.203  1.00  0.00     0.043 A 
HETATM   17 CL1  UNL     1      29.398  -0.223  53.407  1.00  0.00    -0.086 Cl
HETATM   18  N1  UNL     1      26.815   1.966  51.635  1.00  0.00    -0.339 N 
HETATM   19  H11 UNL     1      27.651   2.471  51.270  1.00  0.00     0.167 HD
BRANCH  13  20
HETATM   20  O2  UNL     1      20.970  -0.144  53.088  1.00  0.00    -0.353 OA
HETATM   21  C10 UNL     1      21.004  -1.144  54.059  1.00  0.00     0.210 C 
ENDBRANCH  13  20
BRANCH  10  22
HETATM   22  N2  UNL     1      25.356   3.467  50.428  1.00  0.00    -0.226 NA
HETATM   23  C16 UNL     1      26.403   3.874  49.840  1.00  0.00     0.202 C 
BRANCH  23  24
HETATM   24  N3  UNL     1      26.119   4.990  49.012  1.00  0.00    -0.394 N 
HETATM   25  H13 UNL     1      26.764   5.764  48.755  1.00  0.00     0.156 HD
HETATM   26  H14 UNL     1      25.316   5.363  48.467  1.00  0.00     0.156 HD
ENDBRANCH  23  24
ENDBRANCH  10  22
ENDBRANCH   5   6
ENDBRANCH   4   5
ENDBRANCH   3   4
TORSDOF 6
ENDMDL
MODEL 3
REMARK VINA RESULT:      -6.4      3.503      5.677
REMARK  6 active torsions:
REMARK  status: ('A' for Active; 'I' for Inactive)
REMARK    1  A    between atoms: C2_3  and  C3_4 
REMARK    2  A    between atoms: C3_4  and  O1_5 
REMARK    3  A    between atoms: O1_5  and  C4_6 
REMARK    4  A    between atoms: C9_11  and  O2_12 
REMARK    5  A    between atoms: C15_20  and  N2_21 
REMARK    6  A    between atoms: C16_22  and  N3_23 
ROOT
HETATM    1  C1  UNL     1      20.888   3.729  46.444  1.00  0.00     0.018 C 
HETATM    2  S1  UNL     1      20.700   2.657  48.080  1.00  0.00    -0.022 SA
HETATM    3  C2  UNL     1      20.556   1.680  49.535  1.00  0.00    -0.074 C 
ENDROOT
BRANCH   3   4
HETATM    4  C3  UNL     1      20.456   0.866  50.716  1.00  0.00     0.269 C 
BRANCH   4   5
HETATM    5  O1  UNL     1      21.032   1.625  51.789  1.00  0.00    -0.337 OA
BRANCH   5   6
HETATM    6  C4  UNL     1      22.334   1.290  52.136  1.00  0.00     0.104 A 
HETATM    7  C5  UNL     1      23.399   2.078  51.686  1.00  0.00     0.055 A 
HETATM    8  C6  UNL     1      24.679   1.715  52.049  1.00  0.00     0.024 A 
HETATM    9  C7  UNL     1      24.963   0.627  52.825  1.00  0.00    -0.010 A 
HETATM   10  C15 UNL     1      25.656   2.490  51.601  1.00  0.00     0.140 A 
HETATM   11  C8  UNL     1      23.883  -0.126  53.250  1.00  0.00     0.052 A 
HETATM   12  C11 UNL     1      26.173   0.269  53.180  1.00  0.00    -0.013 A 
HETATM   13  C9  UNL     1      22.583   0.173  52.929  1.00  0.00     0.102 A 
HETATM   14  C12 UNL     1      27.075  -0.650  53.894  1.00  0.00     0.095 A 
HETATM   15  C14 UNL     1      27.293   1.091  52.711  1.00  0.00     0.059 A 
HETATM   16  C13 UNL     1      28.109   0.268  53.351  1.00  0.00     0.043 A 
HETATM   17 CL1  UNL     1      29.868   0.250  53.519  1.00  0.00    -0.086 Cl
HETATM   18  N1  UNL     1      27.031   2.234  51.899  1.00  0.00    -0.339 N 
HETATM   19  H11 UNL     1      27.801   2.843  51.547  1.00  0.00     0.167 HD
BRANCH  13  20
HETATM   20  O2  UNL     1      21.474  -0.556  53.334  1.00  0.00    -0.353 OA
HETATM   21  C10 UNL     1      21.525  -1.275  54.526  1.00  0.00     0.210 C 
ENDBRANCH  13  20
BRANCH  10  22
HETATM   22  N2  UNL     1      25.397   3.628  50.792  1.00  0.00    -0.226 NA
HETATM   23  C16 UNL     1      26.066   3.755  49.723  1.00  0.00     0.202 C 
BRANCH  23  24
HETATM   24  N3  UNL     1      25.694   4.935  49.029  1.00  0.00    -0.394 N 
HETATM   25  H13 UNL     1      25.014   5.018  48.247  1.00  0.00     0.156 HD
HETATM   26  H14 UNL     1      25.925   5.949  49.049  1.00  0.00     0.156 HD
ENDBRANCH  23  24
ENDBRANCH  10  22
ENDBRANCH   5   6
ENDBRANCH   4   5
ENDBRANCH   3   4
TORSDOF 6
ENDMDL
MODEL 4
REMARK VINA RESULT:      -6.4      4.126      6.305
REMARK  6 active torsions:
REMARK  status: ('A' for Active; 'I' for Inactive)
REMARK    1  A    between atoms: C2_3  and  C3_4 
REMARK    2  A    between atoms: C3_4  and  O1_5 
REMARK    3  A    between atoms: O1_5  and  C4_6 
REMARK    4  A    between atoms: C9_11  and  O2_12 
REMARK    5  A    between atoms: C15_20  and  N2_21 
REMARK    6  A    between atoms: C16_22  and  N3_23 
ROOT
HETATM    1  C1  UNL     1      14.814   2.901  51.909  1.00  0.00     0.018 C 
HETATM    2  S1  UNL     1      16.739   3.006  51.531  1.00  0.00    -0.022 SA
HETATM    3  C2  UNL     1      18.457   3.091  51.163  1.00  0.00    -0.074 C 
ENDROOT
BRANCH   3   4
HETATM    4  C3  UNL     1      19.857   3.151  50.839  1.00  0.00     0.269 C 
BRANCH   4   5
HETATM    5  O1  UNL     1      20.507   3.794  51.946  1.00  0.00    -0.337 OA
BRANCH   5   6
HETATM    6  C4  UNL     1      21.761   3.301  52.279  1.00  0.00     0.104 A 
HETATM    7  C5  UNL     1      21.905   1.961  52.654  1.00  0.00     0.055 A 
HETATM    8  C6  UNL     1      23.167   1.506  52.979  1.00  0.00     0.024 A 
HETATM    9  C7  UNL     1      24.282   2.294  52.956  1.00  0.00    -0.010 A 
HETATM   10  C15 UNL     1      23.256   0.231  53.328  1.00  0.00     0.140 A 
HETATM   11  C8  UNL     1      24.098   3.613  52.581  1.00  0.00     0.052 A 
HETATM   12  C11 UNL     1      25.487   1.877  53.262  1.00  0.00    -0.013 A 
HETATM   13  C9  UNL     1      22.876   4.136  52.243  1.00  0.00     0.102 A 
HETATM   14  C12 UNL     1      26.926   2.142  53.428  1.00  0.00     0.095 A 
HETATM   15  C14 UNL     1      25.644   0.474  53.655  1.00  0.00     0.059 A 
HETATM   16  C13 UNL     1      26.939   0.706  53.806  1.00  0.00     0.043 A 
HETATM   17 CL1  UNL     1      28.272  -0.344  54.298  1.00  0.00    -0.086 Cl
HETATM   18  N1  UNL     1      24.500  -0.377  53.689  1.00  0.00    -0.339 N 
HETATM   19  H11 UNL     1      24.571  -1.380  53.964  1.00  0.00     0.167 HD
BRANCH  13  20
HETATM   20  O2  UNL     1      22.648   5.451  51.862  1.00  0.00    -0.353 OA
HETATM   21  C10 UNL     1      23.102   5.891  50.620  1.00  0.00     0.210 C 
ENDBRANCH  13  20
BRANCH  10  22
HETATM   22  N2  UNL     1      22.117  -0.617  53.363  1.00  0.00    -0.226 NA
HETATM   23  C16 UNL     1      21.608  -0.872  54.496  1.00  0.00     0.202 C 
BRANCH  23  24
HETATM   24  N3  UNL     1      20.483  -1.727  54.366  1.00  0.00    -0.394 N 
HETATM   25  H13 UNL     1      20.041  -2.302  55.109  1.00  0.00     0.156 HD
HETATM   26  H14 UNL     1      19.823  -2.027  53.621  1.00  0.00     0.156 HD
ENDBRANCH  23  24
ENDBRANCH  10  22
ENDBRANCH   5   6
ENDBRANCH   4   5
ENDBRANCH   3   4
TORSDOF 6
ENDMDL
MODEL 5
REMARK VINA RESULT:      -6.4      3.183      5.021
REMARK  6 active torsions:
REMARK  status: ('A' for Active; 'I' for Inactive)
REMARK    1  A    between atoms: C2_3  and  C3_4 
REMARK    2  A    between atoms: C3_4  and  O1_5 
REMARK    3  A    between atoms: O1_5  and  C4_6 
REMARK    4  A    between atoms: C9_11  and  O2_12 
REMARK    5  A    between atoms: C15_20  and  N2_21 
REMARK    6  A    between atoms: C16_22  and  N3_23 
ROOT
HETATM    1  C1  UNL     1      21.242   4.138  45.133  1.00  0.00     0.018 C 
HETATM    2  S1  UNL     1      20.964   3.335  46.904  1.00  0.00    -0.022 SA
HETATM    3  C2  UNL     1      20.741   2.600  48.486  1.00  0.00    -0.074 C 
ENDROOT
BRANCH   3   4
HETATM    4  C3  UNL     1      20.579   1.984  49.776  1.00  0.00     0.269 C 
BRANCH   4   5
HETATM    5  O1  UNL     1      21.064   2.926  50.745  1.00  0.00    -0.337 OA
BRANCH   5   6
HETATM    6  C4  UNL     1      22.279   2.612  51.338  1.00  0.00     0.104 A 
HETATM    7  C5  UNL     1      22.400   1.445  52.100  1.00  0.00     0.055 A 
HETATM    8  C6  UNL     1      23.623   1.165  52.675  1.00  0.00     0.024 A 
HETATM    9  C7  UNL     1      24.721   1.967  52.540  1.00  0.00    -0.010 A 
HETATM   10  C15 UNL     1      23.692   0.050  53.387  1.00  0.00     0.140 A 
HETATM   11  C8  UNL     1      24.560   3.111  51.780  1.00  0.00     0.052 A 
HETATM   12  C11 UNL     1      25.889   1.715  53.080  1.00  0.00    -0.013 A 
HETATM   13  C9  UNL     1      23.376   3.455  51.178  1.00  0.00     0.102 A 
HETATM   14  C12 UNL     1      27.294   2.087  53.312  1.00  0.00     0.095 A 
HETATM   15  C14 UNL     1      26.022   0.494  53.879  1.00  0.00     0.059 A 
HETATM   16  C13 UNL     1      27.287   0.822  54.092  1.00  0.00     0.043 A 
HETATM   17 CL1  UNL     1      28.571   0.025  55.007  1.00  0.00    -0.086 Cl
HETATM   18  N1  UNL     1      24.895  -0.366  54.039  1.00  0.00    -0.339 N 
HETATM   19  H11 UNL     1      24.951  -1.243  54.600  1.00  0.00     0.167 HD
BRANCH  13  20
HETATM   20  O2  UNL     1      23.173   4.591  50.408  1.00  0.00    -0.353 OA
HETATM   21  C10 UNL     1      24.011   4.842  49.323  1.00  0.00     0.210 C 
ENDBRANCH  13  20
BRANCH  10  22
HETATM   22  N2  UNL     1      22.571  -0.806  53.548  1.00  0.00    -0.226 NA
HETATM   23  C16 UNL     1      21.869  -0.668  54.595  1.00  0.00     0.202 C 
BRANCH  23  24
HETATM   24  N3  UNL     1      20.791  -1.590  54.609  1.00  0.00    -0.394 N 
HETATM   25  H13 UNL     1      19.796  -1.391  54.834  1.00  0.00     0.156 HD
HETATM   26  H14 UNL     1      20.638  -2.603  54.432  1.00  0.00     0.156 HD
ENDBRANCH  23  24
ENDBRANCH  10  22
ENDBRANCH   5   6
ENDBRANCH   4   5
ENDBRANCH   3   4
TORSDOF 6
ENDMDL
MODEL 6
REMARK VINA RESULT:      -6.2      3.232      4.922
REMARK  6 active torsions:
REMARK  status: ('A' for Active; 'I' for Inactive)
REMARK    1  A    between atoms: C2_3  and  C3_4 
REMARK    2  A    between atoms: C3_4  and  O1_5 
REMARK    3  A    between atoms: O1_5  and  C4_6 
REMARK    4  A    between atoms: C9_11  and  O2_12 
REMARK    5  A    between atoms: C15_20  and  N2_21 
REMARK    6  A    between atoms: C16_22  and  N3_23 
ROOT
HETATM    1  C1  UNL     1      19.869   9.432  48.903  1.00  0.00     0.018 C 
HETATM    2  S1  UNL     1      20.180   7.601  49.540  1.00  0.00    -0.022 SA
HETATM    3  C2  UNL     1      20.487   5.968  50.120  1.00  0.00    -0.074 C 
ENDROOT
BRANCH   3   4
HETATM    4  C3  UNL     1      20.762   4.641  50.599  1.00  0.00     0.269 C 
BRANCH   4   5
HETATM    5  O1  UNL     1      21.602   4.786  51.754  1.00  0.00    -0.337 OA
BRANCH   5   6
HETATM    6  C4  UNL     1      22.607   3.838  51.894  1.00  0.00     0.104 A 
HETATM    7  C5  UNL     1      22.294   2.554  52.351  1.00  0.00     0.055 A 
HETATM    8  C6  UNL     1      23.318   1.638  52.478  1.00  0.00     0.024 A 
HETATM    9  C7  UNL     1      24.621   1.919  52.181  1.00  0.00    -0.010 A 
HETATM   10  C15 UNL     1      22.975   0.435  52.914  1.00  0.00     0.140 A 
HETATM   11  C8  UNL     1      24.890   3.199  51.732  1.00  0.00     0.052 A 
HETATM   12  C11 UNL     1      25.605   1.060  52.296  1.00  0.00    -0.013 A 
HETATM   13  C9  UNL     1      23.925   4.162  51.581  1.00  0.00     0.102 A 
HETATM   14  C12 UNL     1      27.036   0.733  52.171  1.00  0.00     0.095 A 
HETATM   15  C14 UNL     1      25.283  -0.287  52.775  1.00  0.00     0.059 A 
HETATM   16  C13 UNL     1      26.568  -0.587  52.665  1.00  0.00     0.043 A 
HETATM   17 CL1  UNL     1      27.461  -2.076  52.994  1.00  0.00    -0.086 Cl
HETATM   18  N1  UNL     1      23.932  -0.613  53.093  1.00  0.00    -0.339 N 
HETATM   19  H11 UNL     1      23.663  -1.561  53.437  1.00  0.00     0.167 HD
BRANCH  13  20
HETATM   20  O2  UNL     1      24.152   5.456  51.134  1.00  0.00    -0.353 OA
HETATM   21  C10 UNL     1      24.272   5.697  49.767  1.00  0.00     0.210 C 
ENDBRANCH  13  20
BRANCH  10  22
HETATM   22  N2  UNL     1      21.630   0.109  53.232  1.00  0.00    -0.226 NA
HETATM   23  C16 UNL     1      21.428  -0.895  53.980  1.00  0.00     0.202 C 
BRANCH  23  24
HETATM   24  N3  UNL     1      20.041  -1.090  54.205  1.00  0.00    -0.394 N 
HETATM   25  H13 UNL     1      19.313  -1.305  53.497  1.00  0.00     0.156 HD
HETATM   26  H14 UNL     1      19.381  -1.088  55.009  1.00  0.00     0.156 HD
ENDBRANCH  23  24
ENDBRANCH  10  22
ENDBRANCH   5   6
ENDBRANCH   4   5
ENDBRANCH   3   4
TORSDOF 6
ENDMDL
MODEL 7
REMARK VINA RESULT:      -6.1      4.321      6.626
REMARK  6 active torsions:
REMARK  status: ('A' for Active; 'I' for Inactive)
REMARK    1  A    between atoms: C2_3  and  C3_4 
REMARK    2  A    between atoms: C3_4  and  O1_5 
REMARK    3  A    between atoms: O1_5  and  C4_6 
REMARK    4  A    between atoms: C9_11  and  O2_12 
REMARK    5  A    between atoms: C15_20  and  N2_21 
REMARK    6  A    between atoms: C16_22  and  N3_23 
ROOT
HETATM    1  C1  UNL     1      15.549   0.948  50.399  1.00  0.00     0.018 C 
HETATM    2  S1  UNL     1      17.298   0.653  51.243  1.00  0.00    -0.022 SA
HETATM    3  C2  UNL     1      18.879   0.397  51.972  1.00  0.00    -0.074 C 
ENDROOT
BRANCH   3   4
HETATM    4  C3  UNL     1      20.181   0.192  52.546  1.00  0.00     0.269 C 
BRANCH   4   5
HETATM    5  O1  UNL     1      20.624   1.469  53.027  1.00  0.00    -0.337 OA
BRANCH   5   6
HETATM    6  C4  UNL     1      21.641   2.071  52.299  1.00  0.00     0.104 A 
HETATM    7  C5  UNL     1      22.941   1.558  52.365  1.00  0.00     0.055 A 
HETATM    8  C6  UNL     1      23.927   2.182  51.628  1.00  0.00     0.024 A 
HETATM    9  C7  UNL     1      23.701   3.273  50.838  1.00  0.00    -0.010 A 
HETATM   10  C15 UNL     1      25.142   1.662  51.720  1.00  0.00     0.140 A 
HETATM   11  C8  UNL     1      22.403   3.750  50.801  1.00  0.00     0.052 A 
HETATM   12  C11 UNL     1      24.627   3.877  50.132  1.00  0.00    -0.013 A 
HETATM   13  C9  UNL     1      21.372   3.183  51.505  1.00  0.00     0.102 A 
HETATM   14  C12 UNL     1      25.029   4.944  49.201  1.00  0.00     0.095 A 
HETATM   15  C14 UNL     1      25.991   3.344  50.197  1.00  0.00     0.059 A 
HETATM   16  C13 UNL     1      26.359   4.302  49.359  1.00  0.00     0.043 A 
HETATM   17 CL1  UNL     1      27.924   4.703  48.646  1.00  0.00    -0.086 Cl
HETATM   18  N1  UNL     1      26.260   2.205  51.012  1.00  0.00    -0.339 N 
HETATM   19  H11 UNL     1      27.217   1.797  51.083  1.00  0.00     0.167 HD
BRANCH  13  20
HETATM   20  O2  UNL     1      20.058   3.630  51.495  1.00  0.00    -0.353 OA
HETATM   21  C10 UNL     1      19.420   3.852  50.276  1.00  0.00     0.210 C 
ENDBRANCH  13  20
BRANCH  10  22
HETATM   22  N2  UNL     1      25.412   0.528  52.531  1.00  0.00    -0.226 NA
HETATM   23  C16 UNL     1      26.494  -0.100  52.323  1.00  0.00     0.202 C 
BRANCH  23  24
HETATM   24  N3  UNL     1      26.619  -1.201  53.209  1.00  0.00    -0.394 N 
HETATM   25  H13 UNL     1      27.207  -1.258  54.064  1.00  0.00     0.156 HD
HETATM   26  H14 UNL     1      26.239  -2.164  53.303  1.00  0.00     0.156 HD
ENDBRANCH  23  24
ENDBRANCH  10  22
ENDBRANCH   5   6
ENDBRANCH   4   5
ENDBRANCH   3   4
TORSDOF 6
ENDMDL
MODEL 8
REMARK VINA RESULT:      -6.1      3.491      4.896
REMARK  6 active torsions:
REMARK  status: ('A' for Active; 'I' for Inactive)
REMARK    1  A    between atoms: C2_3  and  C3_4 
REMARK    2  A    between atoms: C3_4  and  O1_5 
REMARK    3  A    between atoms: O1_5  and  C4_6 
REMARK    4  A    between atoms: C9_11  and  O2_12 
REMARK    5  A    between atoms: C15_20  and  N2_21 
REMARK    6  A    between atoms: C16_22  and  N3_23 
ROOT
HETATM    1  C1  UNL     1      20.364  10.308  48.712  1.00  0.00     0.018 C 
HETATM    2  S1  UNL     1      21.567   8.983  49.522  1.00  0.00    -0.022 SA
HETATM    3  C2  UNL     1      22.666   7.819  50.251  1.00  0.00    -0.074 C 
ENDROOT
BRANCH   3   4
HETATM    4  C3  UNL     1      23.581   6.885  50.849  1.00  0.00     0.269 C 
BRANCH   4   5
HETATM    5  O1  UNL     1      23.539   5.696  50.046  1.00  0.00    -0.337 OA
BRANCH   5   6
HETATM    6  C4  UNL     1      23.414   4.501  50.741  1.00  0.00     0.104 A 
HETATM    7  C5  UNL     1      22.169   4.119  51.251  1.00  0.00     0.055 A 
HETATM    8  C6  UNL     1      22.083   2.924  51.937  1.00  0.00     0.024 A 
HETATM    9  C7  UNL     1      23.149   2.095  52.144  1.00  0.00    -0.010 A 
HETATM   10  C15 UNL     1      20.885   2.603  52.402  1.00  0.00     0.140 A 
HETATM   11  C8  UNL     1      24.362   2.508  51.624  1.00  0.00     0.052 A 
HETATM   12  C11 UNL     1      23.083   0.958  52.792  1.00  0.00    -0.013 A 
HETATM   13  C9  UNL     1      24.525   3.681  50.931  1.00  0.00     0.102 A 
HETATM   14  C12 UNL     1      23.737  -0.255  53.311  1.00  0.00     0.095 A 
HETATM   15  C14 UNL     1      21.781   0.553  53.330  1.00  0.00     0.059 A 
HETATM   16  C13 UNL     1      22.363  -0.541  53.799  1.00  0.00     0.043 A 
HETATM   17 CL1  UNL     1      21.727  -1.911  54.714  1.00  0.00    -0.086 Cl
HETATM   18  N1  UNL     1      20.648   1.395  53.131  1.00  0.00    -0.339 N 
HETATM   19  H11 UNL     1      19.706   1.141  53.498  1.00  0.00     0.167 HD
BRANCH  13  20
HETATM   20  O2  UNL     1      25.722   4.132  50.394  1.00  0.00    -0.353 OA
HETATM   21  C10 UNL     1      26.496   3.265  49.625  1.00  0.00     0.210 C 
ENDBRANCH  13  20
BRANCH  10  22
HETATM   22  N2  UNL     1      19.756   3.441  52.206  1.00  0.00    -0.226 NA
HETATM   23  C16 UNL     1      18.740   2.937  51.639  1.00  0.00     0.202 C 
BRANCH  23  24
HETATM   24  N3  UNL     1      17.700   3.894  51.516  1.00  0.00    -0.394 N 
HETATM   25  H13 UNL     1      17.211   4.395  52.284  1.00  0.00     0.156 HD
HETATM   26  H14 UNL     1      17.157   4.352  50.757  1.00  0.00     0.156 HD
ENDBRANCH  23  24
ENDBRANCH  10  22
ENDBRANCH   5   6
ENDBRANCH   4   5
ENDBRANCH   3   4
TORSDOF 6
ENDMDL
MODEL 9
REMARK VINA RESULT:      -6.0      2.428      2.474
REMARK  6 active torsions:
REMARK  status: ('A' for Active; 'I' for Inactive)
REMARK    1  A    between atoms: C2_3  and  C3_4 
REMARK    2  A    between atoms: C3_4  and  O1_5 
REMARK    3  A    between atoms: O1_5  and  C4_6 
REMARK    4  A    between atoms: C9_11  and  O2_12 
REMARK    5  A    between atoms: C15_20  and  N2_21 
REMARK    6  A    between atoms: C16_22  and  N3_23 
ROOT
HETATM    1  C1  UNL     1      23.970   8.612  45.668  1.00  0.00     0.018 C 
HETATM    2  S1  UNL     1      24.177   7.742  47.417  1.00  0.00    -0.022 SA
HETATM    3  C2  UNL     1      24.384   6.945  48.971  1.00  0.00    -0.074 C 
ENDROOT
BRANCH   3   4
HETATM    4  C3  UNL     1      24.570   6.279  50.232  1.00  0.00     0.269 C 
BRANCH   4   5
HETATM    5  O1  UNL     1      23.287   6.249  50.875  1.00  0.00    -0.337 OA
BRANCH   5   6
HETATM    6  C4  UNL     1      22.880   5.013  51.357  1.00  0.00     0.104 A 
HETATM    7  C5  UNL     1      23.820   4.140  51.915  1.00  0.00     0.055 A 
HETATM    8  C6  UNL     1      23.380   2.919  52.384  1.00  0.00     0.024 A 
HETATM    9  C7  UNL     1      22.075   2.517  52.332  1.00  0.00    -0.010 A 
HETATM   10  C15 UNL     1      24.304   2.125  52.905  1.00  0.00     0.140 A 
HETATM   11  C8  UNL     1      21.177   3.408  51.773  1.00  0.00     0.052 A 
HETATM   12  C11 UNL     1      21.641   1.361  52.774  1.00  0.00    -0.013 A 
HETATM   13  C9  UNL     1      21.540   4.638  51.286  1.00  0.00     0.102 A 
HETATM   14  C12 UNL     1      20.536   0.415  53.001  1.00  0.00     0.095 A 
HETATM   15  C14 UNL     1      22.622   0.443  53.359  1.00  0.00     0.059 A 
HETATM   16  C13 UNL     1      21.632  -0.413  53.567  1.00  0.00     0.043 A 
HETATM   17 CL1  UNL     1      21.604  -2.026  54.286  1.00  0.00    -0.086 Cl
HETATM   18  N1  UNL     1      23.992   0.832  53.430  1.00  0.00    -0.339 N 
HETATM   19  H11 UNL     1      24.718   0.206  53.839  1.00  0.00     0.167 HD
BRANCH  13  20
HETATM   20  O2  UNL     1      20.672   5.560  50.718  1.00  0.00    -0.353 OA
HETATM   21  C10 UNL     1      19.503   5.112  50.107  1.00  0.00     0.210 C 
ENDBRANCH  13  20
BRANCH  10  22
HETATM   22  N2  UNL     1      25.669   2.511  52.975  1.00  0.00    -0.226 NA
HETATM   23  C16 UNL     1      26.378   2.002  53.895  1.00  0.00     0.202 C 
BRANCH  23  24
HETATM   24  N3  UNL     1      27.711   2.483  53.833  1.00  0.00    -0.394 N 
HETATM   25  H13 UNL     1      28.411   2.303  53.085  1.00  0.00     0.156 HD
HETATM   26  H14 UNL     1      28.346   3.075  54.404  1.00  0.00     0.156 HD
ENDBRANCH  23  24
ENDBRANCH  10  22
ENDBRANCH   5   6
ENDBRANCH   4   5
ENDBRANCH   3   4
TORSDOF 6
ENDMDL
