MODEL 1
REMARK VINA RESULT:      -7.0      0.000      0.000
REMARK  5 active torsions:
REMARK  status: ('A' for Active; 'I' for Inactive)
REMARK    1  A    between atoms: C8_11  and  S1_12 
REMARK    2  A    between atoms: C9_15  and  N6_16 
REMARK    3  A    between atoms: N6_16  and  C10_17 
REMARK    4  A    between atoms: C11_18  and  C12_19 
REMARK    5  A    between atoms: N7_21  and  S2_22 
ROOT
HETATM    1  C1  UNL     1      26.496   2.036  53.781  1.00  0.00     0.017 C 
HETATM    2  C2  UNL     1      25.233   1.388  53.277  1.00  0.00     0.012 C 
HETATM    3  C3  UNL     1      25.225   0.318  54.144  1.00  0.00     0.145 C 
HETATM    4  N1  UNL     1      24.381  -0.836  54.395  1.00  0.00    -0.410 N 
HETATM    5  C4  UNL     1      23.006  -1.188  54.844  1.00  0.00     0.156 C 
HETATM    6  C5  UNL     1      22.054  -0.413  53.990  1.00  0.00    -0.004 A 
HETATM    7  C6  UNL     1      20.924   0.277  54.374  1.00  0.00     0.149 A 
HETATM    8  N2  UNL     1      20.458   0.861  53.255  1.00  0.00    -0.182 NA
HETATM    9  N3  UNL     1      21.228   0.573  52.225  1.00  0.00    -0.244 N 
HETATM   10  C7  UNL     1      22.250  -0.236  52.640  1.00  0.00     0.126 A 
HETATM   11  C8  UNL     1      21.472   0.821  50.794  1.00  0.00     0.313 C 
HETATM   12  N4  UNL     1      22.819   1.430  50.704  1.00  0.00    -0.157 NA
HETATM   13  N5  UNL     1      23.384   1.638  51.758  1.00  0.00    -0.169 NA
HETATM   14  C9  UNL     1      24.619   2.178  52.114  1.00  0.00     0.234 C 
HETATM   15  H5  UNL     1      24.984  -1.704  54.191  1.00  0.00     0.154 HD
ENDROOT
BRANCH  14  16
HETATM   16  N6  UNL     1      25.562   2.270  51.042  1.00  0.00    -0.375 N 
HETATM   17  H13 UNL     1      25.739   1.389  50.478  1.00  0.00     0.161 HD
BRANCH  16  18
HETATM   18  C10 UNL     1      26.405   3.235  50.442  1.00  0.00     0.087 C 
HETATM   19  C11 UNL     1      26.011   4.064  49.487  1.00  0.00     0.044 C 
BRANCH  19  20
HETATM   20  C12 UNL     1      26.926   5.025  48.920  1.00  0.00     0.040 C 
HETATM   21  C13 UNL     1      26.444   6.383  48.544  1.00  0.00     0.071 C 
HETATM   22  N7  UNL     1      28.155   4.692  48.743  1.00  0.00    -0.224 NA
BRANCH  22  23
HETATM   23  S2  UNL     1      29.356   5.776  48.063  1.00  0.00    -0.042 SA
HETATM   24  H19 UNL     1      28.868   7.102  48.202  1.00  0.00     0.128 HD
ENDBRANCH  22  23
ENDBRANCH  19  20
ENDBRANCH  16  18
ENDBRANCH  14  16
BRANCH  11  25
HETATM   25  S1  UNL     1      20.263   1.913  50.059  1.00  0.00    -0.131 SA
HETATM   26  H11 UNL     1      19.601   1.277  49.017  1.00  0.00     0.105 HD
ENDBRANCH  11  25
TORSDOF 5
ENDMDL
MODEL 2
REMARK VINA RESULT:      -6.8      3.229      5.129
REMARK  5 active torsions:
REMARK  status: ('A' for Active; 'I' for Inactive)
REMARK    1  A    between atoms: C8_11  and  S1_12 
REMARK    2  A    between atoms: C9_15  and  N6_16 
REMARK    3  A    between atoms: N6_16  and  C10_17 
REMARK    4  A    between atoms: C11_18  and  C12_19 
REMARK    5  A    between atoms: N7_21  and  S2_22 
ROOT
HETATM    1  C1  UNL     1      23.875   3.230  49.420  1.00  0.00     0.017 C 
HETATM    2  C2  UNL     1      22.950   2.827  50.540  1.00  0.00     0.012 C 
HETATM    3  C3  UNL     1      22.065   3.875  50.423  1.00  0.00     0.145 C 
HETATM    4  N1  UNL     1      20.852   4.317  51.087  1.00  0.00    -0.410 N 
HETATM    5  C4  UNL     1      19.445   3.895  51.327  1.00  0.00     0.156 C 
HETATM    6  C5  UNL     1      19.490   2.504  51.874  1.00  0.00    -0.004 A 
HETATM    7  C6  UNL     1      18.704   1.424  51.538  1.00  0.00     0.149 A 
HETATM    8  N2  UNL     1      19.182   0.390  52.253  1.00  0.00    -0.182 NA
HETATM    9  N3  UNL     1      20.202   0.770  52.995  1.00  0.00    -0.244 N 
HETATM   10  C7  UNL     1      20.433   2.103  52.793  1.00  0.00     0.126 A 
HETATM   11  C8  UNL     1      21.253   0.322  53.926  1.00  0.00     0.313 C 
HETATM   12  N4  UNL     1      22.544   0.635  53.274  1.00  0.00    -0.157 NA
HETATM   13  N5  UNL     1      22.480   1.112  52.159  1.00  0.00    -0.169 NA
HETATM   14  C9  UNL     1      23.422   1.537  51.224  1.00  0.00     0.234 C 
HETATM   15  H5  UNL     1      21.079   5.271  51.532  1.00  0.00     0.154 HD
ENDROOT
BRANCH  14  16
HETATM   16  N6  UNL     1      24.741   1.722  51.745  1.00  0.00    -0.375 N 
HETATM   17  H13 UNL     1      24.988   2.692  52.098  1.00  0.00     0.161 HD
BRANCH  16  18
HETATM   18  C10 UNL     1      25.919   0.969  51.960  1.00  0.00     0.087 C 
HETATM   19  C11 UNL     1      25.970  -0.117  52.717  1.00  0.00     0.044 C 
BRANCH  19  20
HETATM   20  C12 UNL     1      27.209  -0.838  52.891  1.00  0.00     0.040 C 
HETATM   21  C13 UNL     1      27.284  -2.285  52.549  1.00  0.00     0.071 C 
HETATM   22  N7  UNL     1      28.238  -0.215  53.345  1.00  0.00    -0.224 NA
BRANCH  22  23
HETATM   23  S2  UNL     1      29.793  -0.987  53.597  1.00  0.00    -0.042 SA
HETATM   24  H19 UNL     1      30.300  -0.541  54.846  1.00  0.00     0.128 HD
ENDBRANCH  22  23
ENDBRANCH  19  20
ENDBRANCH  16  18
ENDBRANCH  14  16
BRANCH  11  25
HETATM   25  S1  UNL     1      21.163  -1.427  54.287  1.00  0.00    -0.131 SA
HETATM   26  H11 UNL     1      22.038  -2.137  53.476  1.00  0.00     0.105 HD
ENDBRANCH  11  25
TORSDOF 5
ENDMDL
MODEL 3
REMARK VINA RESULT:      -6.7      2.817      4.401
REMARK  5 active torsions:
REMARK  status: ('A' for Active; 'I' for Inactive)
REMARK    1  A    between atoms: C8_11  and  S1_12 
REMARK    2  A    between atoms: C9_15  and  N6_16 
REMARK    3  A    between atoms: N6_16  and  C10_17 
REMARK    4  A    between atoms: C11_18  and  C12_19 
REMARK    5  A    between atoms: N7_21  and  S2_22 
ROOT
HETATM    1  C1  UNL     1      24.083   3.347  49.167  1.00  0.00     0.017 C 
HETATM    2  C2  UNL     1      24.625   2.834  50.477  1.00  0.00     0.012 C 
HETATM    3  C3  UNL     1      23.414   2.606  51.091  1.00  0.00     0.145 C 
HETATM    4  N1  UNL     1      22.954   2.112  52.376  1.00  0.00    -0.410 N 
HETATM    5  C4  UNL     1      22.971   0.884  53.217  1.00  0.00     0.156 C 
HETATM    6  C5  UNL     1      24.396   0.441  53.319  1.00  0.00    -0.004 A 
HETATM    7  C6  UNL     1      24.909  -0.834  53.209  1.00  0.00     0.149 A 
HETATM    8  N2  UNL     1      26.244  -0.698  53.301  1.00  0.00    -0.182 NA
HETATM    9  N3  UNL     1      26.572   0.568  53.457  1.00  0.00    -0.244 N 
HETATM   10  C7  UNL     1      25.435   1.328  53.479  1.00  0.00     0.126 A 
HETATM   11  C8  UNL     1      27.690   1.522  53.560  1.00  0.00     0.313 C 
HETATM   12  N4  UNL     1      27.545   2.453  52.418  1.00  0.00    -0.157 NA
HETATM   13  N5  UNL     1      26.633   2.223  51.652  1.00  0.00    -0.169 NA
HETATM   14  C9  UNL     1      26.159   2.828  50.488  1.00  0.00     0.234 C 
HETATM   15  H5  UNL     1      22.420   2.923  52.841  1.00  0.00     0.154 HD
ENDROOT
BRANCH  14  16
HETATM   16  N6  UNL     1      26.648   4.153  50.262  1.00  0.00    -0.375 N 
HETATM   17  H13 UNL     1      26.636   4.820  51.087  1.00  0.00     0.161 HD
BRANCH  16  18
HETATM   18  C10 UNL     1      27.188   4.925  49.206  1.00  0.00     0.087 C 
HETATM   19  C11 UNL     1      26.858   6.187  48.974  1.00  0.00     0.044 C 
BRANCH  19  20
HETATM   20  C12 UNL     1      27.450   6.915  47.877  1.00  0.00     0.040 C 
HETATM   21  C13 UNL     1      28.891   6.730  47.550  1.00  0.00     0.071 C 
HETATM   22  N7  UNL     1      26.719   7.721  47.192  1.00  0.00    -0.224 NA
BRANCH  22  23
HETATM   23  S2  UNL     1      27.329   8.656  45.839  1.00  0.00    -0.042 SA
HETATM   24  H19 UNL     1      27.295  10.026  46.210  1.00  0.00     0.128 HD
ENDBRANCH  22  23
ENDBRANCH  19  20
ENDBRANCH  16  18
ENDBRANCH  14  16
BRANCH  11  25
HETATM   25  S1  UNL     1      29.291   0.729  53.497  1.00  0.00    -0.131 SA
HETATM   26  H11 UNL     1      30.203   1.524  52.816  1.00  0.00     0.105 HD
ENDBRANCH  11  25
TORSDOF 5
ENDMDL
MODEL 4
REMARK VINA RESULT:      -6.7      3.075      4.937
REMARK  5 active torsions:
REMARK  status: ('A' for Active; 'I' for Inactive)
REMARK    1  A    between atoms: C8_11  and  S1_12 
REMARK    2  A    between atoms: C9_15  and  N6_16 
REMARK    3  A    between atoms: N6_16  and  C10_17 
REMARK    4  A    between atoms: C11_18  and  C12_19 
REMARK    5  A    between atoms: N7_21  and  S2_22 
ROOT
HETATM    1  C1  UNL     1      21.656  -0.812  54.939  1.00  0.00     0.017 C 
HETATM    2  C2  UNL     1      21.534  -0.061  53.638  1.00  0.00     0.012 C 
HETATM    3  C3  UNL     1      20.224  -0.388  53.367  1.00  0.00     0.145 C 
HETATM    4  N1  UNL     1      19.257  -0.112  52.320  1.00  0.00    -0.410 N 
HETATM    5  C4  UNL     1      18.509   1.018  51.706  1.00  0.00     0.156 C 
HETATM    6  C5  UNL     1      19.513   2.067  51.347  1.00  0.00    -0.004 A 
HETATM    7  C6  UNL     1      19.435   3.430  51.537  1.00  0.00     0.149 A 
HETATM    8  N2  UNL     1      20.614   3.923  51.115  1.00  0.00    -0.182 NA
HETATM    9  N3  UNL     1      21.396   2.953  50.687  1.00  0.00    -0.244 N 
HETATM   10  C7  UNL     1      20.741   1.759  50.810  1.00  0.00     0.126 A 
HETATM   11  C8  UNL     1      22.737   2.621  50.176  1.00  0.00     0.313 C 
HETATM   12  N4  UNL     1      23.333   1.685  51.156  1.00  0.00    -0.157 NA
HETATM   13  N5  UNL     1      22.665   1.444  52.140  1.00  0.00    -0.169 NA
HETATM   14  C9  UNL     1      22.845   0.646  53.270  1.00  0.00     0.234 C 
HETATM   15  H5  UNL     1      19.017  -1.060  51.869  1.00  0.00     0.154 HD
ENDROOT
BRANCH  14  16
HETATM   16  N6  UNL     1      23.898  -0.315  53.162  1.00  0.00    -0.375 N 
HETATM   17  H13 UNL     1      23.614  -1.330  53.042  1.00  0.00     0.161 HD
BRANCH  16  18
HETATM   18  C10 UNL     1      25.312  -0.353  53.164  1.00  0.00     0.087 C 
HETATM   19  C11 UNL     1      26.072   0.554  53.761  1.00  0.00     0.044 C 
BRANCH  19  20
HETATM   20  C12 UNL     1      27.511   0.451  53.722  1.00  0.00     0.040 C 
HETATM   21  C13 UNL     1      28.345   1.684  53.661  1.00  0.00     0.071 C 
HETATM   22  N7  UNL     1      28.058  -0.712  53.740  1.00  0.00    -0.224 NA
BRANCH  22  23
HETATM   23  S2  UNL     1      29.795  -0.957  53.696  1.00  0.00    -0.042 SA
HETATM   24  H19 UNL     1      30.031  -2.320  53.374  1.00  0.00     0.128 HD
ENDBRANCH  22  23
ENDBRANCH  19  20
ENDBRANCH  16  18
ENDBRANCH  14  16
BRANCH  11  25
HETATM   25  S1  UNL     1      23.788   4.055  49.989  1.00  0.00    -0.131 SA
HETATM   26  H11 UNL     1      23.144   5.038  49.250  1.00  0.00     0.105 HD
ENDBRANCH  11  25
TORSDOF 5
ENDMDL
MODEL 5
REMARK VINA RESULT:      -6.7      3.826      6.557
REMARK  5 active torsions:
REMARK  status: ('A' for Active; 'I' for Inactive)
REMARK    1  A    between atoms: C8_11  and  S1_12 
REMARK    2  A    between atoms: C9_15  and  N6_16 
REMARK    3  A    between atoms: N6_16  and  C10_17 
REMARK    4  A    between atoms: C11_18  and  C12_19 
REMARK    5  A    between atoms: N7_21  and  S2_22 
ROOT
HETATM    1  C1  UNL     1      27.243   5.241  48.660  1.00  0.00     0.017 C 
HETATM    2  C2  UNL     1      25.997   5.601  49.429  1.00  0.00     0.012 C 
HETATM    3  C3  UNL     1      26.028   6.957  49.190  1.00  0.00     0.145 C 
HETATM    4  N1  UNL     1      25.223   8.112  49.539  1.00  0.00    -0.410 N 
HETATM    5  C4  UNL     1      23.862   8.680  49.331  1.00  0.00     0.156 C 
HETATM    6  C5  UNL     1      22.880   7.617  49.710  1.00  0.00    -0.004 A 
HETATM    7  C6  UNL     1      21.733   7.234  49.051  1.00  0.00     0.149 A 
HETATM    8  N2  UNL     1      21.241   6.195  49.749  1.00  0.00    -0.182 NA
HETATM    9  N3  UNL     1      22.013   5.923  50.782  1.00  0.00    -0.244 N 
HETATM   10  C7  UNL     1      23.063   6.799  50.802  1.00  0.00     0.126 A 
HETATM   11  C8  UNL     1      22.241   5.003  51.910  1.00  0.00     0.313 C 
HETATM   12  N4  UNL     1      23.568   4.387  51.680  1.00  0.00    -0.157 NA
HETATM   13  N5  UNL     1      24.132   4.701  50.652  1.00  0.00    -0.169 NA
HETATM   14  C9  UNL     1      25.353   4.364  50.067  1.00  0.00     0.234 C 
HETATM   15  H5  UNL     1      25.851   8.753  50.133  1.00  0.00     0.154 HD
ENDROOT
BRANCH  14  16
HETATM   16  N6  UNL     1      26.285   3.735  50.950  1.00  0.00    -0.375 N 
HETATM   17  H13 UNL     1      26.857   4.369  51.579  1.00  0.00     0.161 HD
BRANCH  16  18
HETATM   18  C10 UNL     1      26.729   2.433  51.282  1.00  0.00     0.087 C 
HETATM   19  C11 UNL     1      27.232   2.106  52.463  1.00  0.00     0.044 C 
BRANCH  19  20
HETATM   20  C12 UNL     1      27.665   0.756  52.733  1.00  0.00     0.040 C 
HETATM   21  C13 UNL     1      26.799  -0.395  52.352  1.00  0.00     0.071 C 
HETATM   22  N7  UNL     1      28.801   0.563  53.303  1.00  0.00    -0.224 NA
BRANCH  22  23
HETATM   23  S2  UNL     1      29.428  -1.032  53.679  1.00  0.00    -0.042 SA
HETATM   24  H19 UNL     1      29.279  -1.839  52.521  1.00  0.00     0.128 HD
ENDBRANCH  22  23
ENDBRANCH  19  20
ENDBRANCH  16  18
ENDBRANCH  14  16
BRANCH  11  25
HETATM   25  S1  UNL     1      20.993   3.729  52.033  1.00  0.00    -0.131 SA
HETATM   26  H11 UNL     1      21.273   2.686  51.161  1.00  0.00     0.105 HD
ENDBRANCH  11  25
TORSDOF 5
ENDMDL
MODEL 6
REMARK VINA RESULT:      -6.4      2.781      7.182
REMARK  5 active torsions:
REMARK  status: ('A' for Active; 'I' for Inactive)
REMARK    1  A    between atoms: C8_11  and  S1_12 
REMARK    2  A    between atoms: C9_15  and  N6_16 
REMARK    3  A    between atoms: N6_16  and  C10_17 
REMARK    4  A    between atoms: C11_18  and  C12_19 
REMARK    5  A    between atoms: N7_21  and  S2_22 
ROOT
HETATM    1  C1  UNL     1      22.547  -1.958  54.675  1.00  0.00     0.017 C 
HETATM    2  C2  UNL     1      23.372  -0.752  54.303  1.00  0.00     0.012 C 
HETATM    3  C3  UNL     1      24.444  -1.010  55.128  1.00  0.00     0.145 C 
HETATM    4  N1  UNL     1      25.715  -0.384  55.441  1.00  0.00    -0.410 N 
HETATM    5  C4  UNL     1      27.014  -0.025  54.808  1.00  0.00     0.156 C 
HETATM    6  C5  UNL     1      26.699   0.747  53.566  1.00  0.00    -0.004 A 
HETATM    7  C6  UNL     1      27.264   0.627  52.315  1.00  0.00     0.149 A 
HETATM    8  N2  UNL     1      26.592   1.488  51.529  1.00  0.00    -0.182 NA
HETATM    9  N3  UNL     1      25.661   2.116  52.218  1.00  0.00    -0.244 N 
HETATM   10  C7  UNL     1      25.693   1.684  53.515  1.00  0.00     0.126 A 
HETATM   11  C8  UNL     1      24.540   3.069  52.143  1.00  0.00     0.313 C 
HETATM   12  N4  UNL     1      23.336   2.325  52.578  1.00  0.00    -0.157 NA
HETATM   13  N5  UNL     1      23.496   1.150  52.835  1.00  0.00    -0.169 NA
HETATM   14  C9  UNL     1      22.657   0.121  53.263  1.00  0.00     0.234 C 
HETATM   15  H5  UNL     1      25.675  -0.116  56.482  1.00  0.00     0.154 HD
ENDROOT
BRANCH  14  16
HETATM   16  N6  UNL     1      21.397   0.554  53.782  1.00  0.00    -0.375 N 
HETATM   17  H13 UNL     1      21.392   1.447  54.355  1.00  0.00     0.161 HD
BRANCH  16  18
HETATM   18  C10 UNL     1      20.043   0.143  53.777  1.00  0.00     0.087 C 
HETATM   19  C11 UNL     1      19.464  -0.471  52.756  1.00  0.00     0.044 C 
BRANCH  19  20
HETATM   20  C12 UNL     1      18.076  -0.863  52.821  1.00  0.00     0.040 C 
HETATM   21  C13 UNL     1      17.696  -2.159  53.451  1.00  0.00     0.071 C 
HETATM   22  N7  UNL     1      17.180  -0.083  52.330  1.00  0.00    -0.224 NA
BRANCH  22  23
HETATM   23  S2  UNL     1      15.466  -0.456  52.353  1.00  0.00    -0.042 SA
HETATM   24  H19 UNL     1      15.275  -1.556  53.230  1.00  0.00     0.128 HD
ENDBRANCH  22  23
ENDBRANCH  19  20
ENDBRANCH  16  18
ENDBRANCH  14  16
BRANCH  11  25
HETATM   25  S1  UNL     1      24.289   3.722  50.498  1.00  0.00    -0.131 SA
HETATM   26  H11 UNL     1      24.114   2.691  49.586  1.00  0.00     0.105 HD
ENDBRANCH  11  25
TORSDOF 5
ENDMDL
MODEL 7
REMARK VINA RESULT:      -6.4      3.076      7.654
REMARK  5 active torsions:
REMARK  status: ('A' for Active; 'I' for Inactive)
REMARK    1  A    between atoms: C8_11  and  S1_12 
REMARK    2  A    between atoms: C9_15  and  N6_16 
REMARK    3  A    between atoms: N6_16  and  C10_17 
REMARK    4  A    between atoms: C11_18  and  C12_19 
REMARK    5  A    between atoms: N7_21  and  S2_22 
ROOT
HETATM    1  C1  UNL     1      26.548   2.816  49.864  1.00  0.00     0.017 C 
HETATM    2  C2  UNL     1      26.018   4.227  49.853  1.00  0.00     0.012 C 
HETATM    3  C3  UNL     1      27.104   4.819  49.247  1.00  0.00     0.145 C 
HETATM    4  N1  UNL     1      27.487   6.156  48.831  1.00  0.00    -0.410 N 
HETATM    5  C4  UNL     1      27.087   7.231  47.883  1.00  0.00     0.156 C 
HETATM    6  C5  UNL     1      25.629   7.487  48.099  1.00  0.00    -0.004 A 
HETATM    7  C6  UNL     1      24.640   7.666  47.156  1.00  0.00     0.149 A 
HETATM    8  N2  UNL     1      23.494   7.790  47.849  1.00  0.00    -0.182 NA
HETATM    9  N3  UNL     1      23.723   7.697  49.144  1.00  0.00    -0.244 N 
HETATM   10  C7  UNL     1      25.061   7.509  49.352  1.00  0.00     0.126 A 
HETATM   11  C8  UNL     1      23.102   7.652  50.479  1.00  0.00     0.313 C 
HETATM   12  N4  UNL     1      23.461   6.337  51.058  1.00  0.00    -0.157 NA
HETATM   13  N5  UNL     1      24.100   5.594  50.342  1.00  0.00    -0.169 NA
HETATM   14  C9  UNL     1      24.624   4.310  50.490  1.00  0.00     0.234 C 
HETATM   15  H5  UNL     1      28.355   6.418  49.411  1.00  0.00     0.154 HD
ENDROOT
BRANCH  14  16
HETATM   16  N6  UNL     1      24.681   3.838  51.838  1.00  0.00    -0.375 N 
HETATM   17  H13 UNL     1      25.356   4.329  52.493  1.00  0.00     0.161 HD
BRANCH  16  18
HETATM   18  C10 UNL     1      24.079   2.846  52.648  1.00  0.00     0.087 C 
HETATM   19  C11 UNL     1      24.056   1.558  52.338  1.00  0.00     0.044 C 
BRANCH  19  20
HETATM   20  C12 UNL     1      23.423   0.601  53.213  1.00  0.00     0.040 C 
HETATM   21  C13 UNL     1      24.207  -0.540  53.762  1.00  0.00     0.071 C 
HETATM   22  N7  UNL     1      22.180   0.746  53.508  1.00  0.00    -0.224 NA
BRANCH  22  23
HETATM   23  S2  UNL     1      21.307  -0.355  54.559  1.00  0.00    -0.042 SA
HETATM   24  H19 UNL     1      21.446  -1.663  54.026  1.00  0.00     0.128 HD
ENDBRANCH  22  23
ENDBRANCH  19  20
ENDBRANCH  16  18
ENDBRANCH  14  16
BRANCH  11  25
HETATM   25  S1  UNL     1      21.324   7.828  50.428  1.00  0.00    -0.131 SA
HETATM   26  H11 UNL     1      20.961   8.861  49.575  1.00  0.00     0.105 HD
ENDBRANCH  11  25
TORSDOF 5
ENDMDL
MODEL 8
REMARK VINA RESULT:      -6.3      2.861      4.817
REMARK  5 active torsions:
REMARK  status: ('A' for Active; 'I' for Inactive)
REMARK    1  A    between atoms: C8_11  and  S1_12 
REMARK    2  A    between atoms: C9_15  and  N6_16 
REMARK    3  A    between atoms: N6_16  and  C10_17 
REMARK    4  A    between atoms: C11_18  and  C12_19 
REMARK    5  A    between atoms: N7_21  and  S2_22 
ROOT
HETATM    1  C1  UNL     1      24.614   6.341  48.349  1.00  0.00     0.017 C 
HETATM    2  C2  UNL     1      24.663   5.434  49.551  1.00  0.00     0.012 C 
HETATM    3  C3  UNL     1      23.610   5.995  50.239  1.00  0.00     0.145 C 
HETATM    4  N1  UNL     1      22.931   5.774  51.502  1.00  0.00    -0.410 N 
HETATM    5  C4  UNL     1      22.112   4.754  52.212  1.00  0.00     0.156 C 
HETATM    6  C5  UNL     1      22.867   3.464  52.150  1.00  0.00    -0.004 A 
HETATM    7  C6  UNL     1      22.389   2.202  51.871  1.00  0.00     0.149 A 
HETATM    8  N2  UNL     1      23.467   1.397  51.865  1.00  0.00    -0.182 NA
HETATM    9  N3  UNL     1      24.561   2.086  52.119  1.00  0.00    -0.244 N 
HETATM   10  C7  UNL     1      24.232   3.399  52.311  1.00  0.00     0.126 A 
HETATM   11  C8  UNL     1      26.030   2.025  52.222  1.00  0.00     0.313 C 
HETATM   12  N4  UNL     1      26.556   2.952  51.195  1.00  0.00    -0.157 NA
HETATM   13  N5  UNL     1      25.730   3.492  50.488  1.00  0.00    -0.169 NA
HETATM   14  C9  UNL     1      25.794   4.403  49.434  1.00  0.00     0.234 C 
HETATM   15  H5  UNL     1      23.079   6.665  52.088  1.00  0.00     0.154 HD
ENDROOT
BRANCH  14  16
HETATM   16  N6  UNL     1      27.048   5.076  49.301  1.00  0.00    -0.375 N 
HETATM   17  H13 UNL     1      27.207   5.926  49.915  1.00  0.00     0.161 HD
BRANCH  16  18
HETATM   18  C10 UNL     1      28.244   4.966  48.552  1.00  0.00     0.087 C 
HETATM   19  C11 UNL     1      29.136   5.939  48.443  1.00  0.00     0.044 C 
BRANCH  19  20
HETATM   20  C12 UNL     1      30.336   5.756  47.661  1.00  0.00     0.040 C 
HETATM   21  C13 UNL     1      30.873   6.881  46.846  1.00  0.00     0.071 C 
HETATM   22  N7  UNL     1      30.927   4.615  47.678  1.00  0.00    -0.224 NA
BRANCH  22  23
HETATM   23  S2  UNL     1      32.389   4.279  46.768  1.00  0.00    -0.042 SA
HETATM   24  H19 UNL     1      32.064   4.342  45.388  1.00  0.00     0.128 HD
ENDBRANCH  22  23
ENDBRANCH  19  20
ENDBRANCH  16  18
ENDBRANCH  14  16
BRANCH  11  25
HETATM   25  S1  UNL     1      26.680   0.382  51.948  1.00  0.00    -0.131 SA
HETATM   26  H11 UNL     1      27.744   0.422  51.057  1.00  0.00     0.105 HD
ENDBRANCH  11  25
TORSDOF 5
ENDMDL
MODEL 9
REMARK VINA RESULT:      -6.3      3.868      5.984
REMARK  5 active torsions:
REMARK  status: ('A' for Active; 'I' for Inactive)
REMARK    1  A    between atoms: C8_11  and  S1_12 
REMARK    2  A    between atoms: C9_15  and  N6_16 
REMARK    3  A    between atoms: N6_16  and  C10_17 
REMARK    4  A    between atoms: C11_18  and  C12_19 
REMARK    5  A    between atoms: N7_21  and  S2_22 
ROOT
HETATM    1  C1  UNL     1      21.172   0.943  49.274  1.00  0.00     0.017 C 
HETATM    2  C2  UNL     1      22.289   1.777  49.847  1.00  0.00     0.012 C 
HETATM    3  C3  UNL     1      22.235   1.287  51.133  1.00  0.00     0.145 C 
HETATM    4  N1  UNL     1      22.939   1.510  52.382  1.00  0.00    -0.410 N 
HETATM    5  C4  UNL     1      24.290   1.367  52.989  1.00  0.00     0.156 C 
HETATM    6  C5  UNL     1      25.256   2.056  52.078  1.00  0.00    -0.004 A 
HETATM    7  C6  UNL     1      26.496   1.625  51.659  1.00  0.00     0.149 A 
HETATM    8  N2  UNL     1      26.933   2.561  50.797  1.00  0.00    -0.182 NA
HETATM    9  N3  UNL     1      26.043   3.524  50.666  1.00  0.00    -0.244 N 
HETATM   10  C7  UNL     1      24.965   3.251  51.462  1.00  0.00     0.126 A 
HETATM   11  C8  UNL     1      25.706   4.768  49.952  1.00  0.00     0.313 C 
HETATM   12  N4  UNL     1      24.448   4.496  49.220  1.00  0.00    -0.157 NA
HETATM   13  N5  UNL     1      24.012   3.367  49.305  1.00  0.00    -0.169 NA
HETATM   14  C9  UNL     1      22.895   2.710  48.789  1.00  0.00     0.234 C 
HETATM   15  H5  UNL     1      22.211   1.891  53.078  1.00  0.00     0.154 HD
ENDROOT
BRANCH  14  16
HETATM   16  N6  UNL     1      21.880   3.574  48.271  1.00  0.00    -0.375 N 
HETATM   17  H13 UNL     1      21.141   3.914  48.952  1.00  0.00     0.161 HD
BRANCH  16  18
HETATM   18  C10 UNL     1      21.513   4.172  47.042  1.00  0.00     0.087 C 
HETATM   19  C11 UNL     1      21.794   3.649  45.857  1.00  0.00     0.044 C 
BRANCH  19  20
HETATM   20  C12 UNL     1      21.388   4.315  44.642  1.00  0.00     0.040 C 
HETATM   21  C13 UNL     1      21.599   5.781  44.489  1.00  0.00     0.071 C 
HETATM   22  N7  UNL     1      20.843   3.627  43.702  1.00  0.00    -0.224 NA
BRANCH  22  23
HETATM   23  S2  UNL     1      20.311   4.329  42.185  1.00  0.00    -0.042 SA
HETATM   24  H19 UNL     1      20.593   3.395  41.154  1.00  0.00     0.128 HD
ENDBRANCH  22  23
ENDBRANCH  19  20
ENDBRANCH  16  18
ENDBRANCH  14  16
BRANCH  11  25
HETATM   25  S1  UNL     1      26.978   5.280  48.805  1.00  0.00    -0.131 SA
HETATM   26  H11 UNL     1      27.632   6.409  49.275  1.00  0.00     0.105 HD
ENDBRANCH  11  25
TORSDOF 5
ENDMDL
