MODEL 1
REMARK VINA RESULT:      -9.1      0.000      0.000
REMARK  0 active torsions:
REMARK  status: ('A' for Active; 'I' for Inactive)
ROOT
HETATM    1  O1  UNL     1      30.717   4.517  47.595  1.00  0.00    -0.268 OA
HETATM    2  C1  UNL     1      30.391   5.559  48.205  1.00  0.00     0.254 C 
HETATM    3  N1  UNL     1      31.751   5.790  48.463  1.00  0.00    -0.357 N 
HETATM    4  C2  UNL     1      32.997   5.120  48.157  1.00  0.00     0.123 C 
HETATM    5  C3  UNL     1      33.267   4.975  46.681  1.00  0.00     0.023 C 
HETATM    6  C4  UNL     1      34.608   4.268  46.570  1.00  0.00     0.030 C 
HETATM    7  C5  UNL     1      35.025   4.044  45.176  1.00  0.00    -0.009 C 
HETATM    8  C6  UNL     1      34.369   4.381  44.084  1.00  0.00     0.102 C 
HETATM    9  N2  UNL     1      33.236   4.971  43.463  1.00  0.00    -0.199 N 
HETATM   10  C7  UNL     1      33.149   6.319  42.968  1.00  0.00     0.726 A 
HETATM   11  N3  UNL     1      32.805   6.441  41.673  1.00  0.00    -0.075 NA
HETATM   12  C8  UNL     1      32.707   7.696  41.154  1.00  0.00     0.138 A 
HETATM   13  C9  UNL     1      32.965   8.795  41.979  1.00  0.00     0.048 A 
HETATM   14  C10 UNL     1      33.309   8.588  43.287  1.00  0.00     0.059 A 
HETATM   15  N4  UNL     1      33.402   7.358  43.784  1.00  0.00    -0.067 NA
HETATM   16  C11 UNL     1      33.598   9.720  44.222  1.00  0.00     0.106 C 
HETATM   17  C12 UNL     1      34.184   9.241  45.484  1.00  0.00     0.095 C 
HETATM   18  N5  UNL     1      33.994   9.099  46.753  1.00  0.00    -0.277 NA
HETATM   19  C13 UNL     1      32.786   9.518  47.367  1.00  0.00     0.116 C 
HETATM   20  C14 UNL     1      31.642   9.817  47.935  1.00  0.00     0.021 C 
HETATM   21  C15 UNL     1      30.540  10.531  48.543  1.00  0.00     0.026 C 
HETATM   22  C16 UNL     1      29.548   9.731  48.884  1.00  0.00     0.142 C 
HETATM   23  O2  UNL     1      29.824   8.386  48.565  1.00  0.00    -0.322 OA
HETATM   24  C17 UNL     1      28.819   7.438  48.603  1.00  0.00     0.090 A 
HETATM   25  C18 UNL     1      27.497   7.776  48.812  1.00  0.00     0.038 A 
HETATM   26  C19 UNL     1      26.510   6.812  48.845  1.00  0.00     0.003 A 
HETATM   27  C20 UNL     1      26.786   5.463  48.674  1.00  0.00     0.001 A 
HETATM   28  C21 UNL     1      28.122   5.128  48.463  1.00  0.00     0.020 A 
HETATM   29  C22 UNL     1      29.079   6.120  48.436  1.00  0.00     0.065 A 
HETATM   30  H1  UNL     1      31.620   6.673  48.993  1.00  0.00     0.162 HD
HETATM   31  H10 UNL     1      32.332   4.426  43.315  1.00  0.00     0.183 HD
ENDROOT
TORSDOF 0
ENDMDL
MODEL 2
REMARK VINA RESULT:      -9.0      9.653     12.410
REMARK  0 active torsions:
REMARK  status: ('A' for Active; 'I' for Inactive)
ROOT
HETATM    1  O1  UNL     1      25.410   3.602  51.590  1.00  0.00    -0.268 OA
HETATM    2  C1  UNL     1      24.904   2.755  52.359  1.00  0.00     0.254 C 
HETATM    3  N1  UNL     1      24.035   3.753  52.827  1.00  0.00    -0.357 N 
HETATM    4  C2  UNL     1      23.812   5.155  52.546  1.00  0.00     0.123 C 
HETATM    5  C3  UNL     1      23.421   5.438  51.118  1.00  0.00     0.023 C 
HETATM    6  C4  UNL     1      23.223   6.942  51.029  1.00  0.00     0.030 C 
HETATM    7  C5  UNL     1      22.834   7.393  49.683  1.00  0.00    -0.009 C 
HETATM    8  C6  UNL     1      22.660   6.644  48.612  1.00  0.00     0.102 C 
HETATM    9  N2  UNL     1      22.659   5.366  47.992  1.00  0.00    -0.199 N 
HETATM   10  C7  UNL     1      21.509   4.528  47.782  1.00  0.00     0.726 A 
HETATM   11  N3  UNL     1      21.286   4.156  46.509  1.00  0.00    -0.075 NA
HETATM   12  C8  UNL     1      20.210   3.360  46.255  1.00  0.00     0.138 A 
HETATM   13  C9  UNL     1      19.390   2.967  47.317  1.00  0.00     0.048 A 
HETATM   14  C10 UNL     1      19.685   3.388  48.585  1.00  0.00     0.059 A 
HETATM   15  N4  UNL     1      20.738   4.164  48.822  1.00  0.00    -0.067 NA
HETATM   16  C11 UNL     1      18.848   3.002  49.765  1.00  0.00     0.106 C 
HETATM   17  C12 UNL     1      19.216   3.775  50.963  1.00  0.00     0.095 C 
HETATM   18  N5  UNL     1      19.743   3.717  52.140  1.00  0.00    -0.277 NA
HETATM   19  C13 UNL     1      20.220   2.493  52.672  1.00  0.00     0.116 C 
HETATM   20  C14 UNL     1      20.747   1.388  53.143  1.00  0.00     0.021 C 
HETATM   21  C15 UNL     1      20.929   0.083  53.744  1.00  0.00     0.026 C 
HETATM   22  C16 UNL     1      22.197  -0.280  53.784  1.00  0.00     0.142 C 
HETATM   23  O2  UNL     1      23.043   0.700  53.228  1.00  0.00    -0.322 OA
HETATM   24  C17 UNL     1      24.362   0.405  52.941  1.00  0.00     0.090 A 
HETATM   25  C18 UNL     1      24.869  -0.875  53.049  1.00  0.00     0.038 A 
HETATM   26  C19 UNL     1      26.191  -1.147  52.757  1.00  0.00     0.003 A 
HETATM   27  C20 UNL     1      27.075  -0.162  52.343  1.00  0.00     0.001 A 
HETATM   28  C21 UNL     1      26.559   1.128  52.236  1.00  0.00     0.020 A 
HETATM   29  C22 UNL     1      25.233   1.359  52.536  1.00  0.00     0.065 A 
HETATM   30  H1  UNL     1      23.530   3.155  53.509  1.00  0.00     0.162 HD
HETATM   31  H10 UNL     1      23.556   4.923  47.621  1.00  0.00     0.183 HD
ENDROOT
TORSDOF 0
ENDMDL
MODEL 3
REMARK VINA RESULT:      -8.4      8.563     11.553
REMARK  0 active torsions:
REMARK  status: ('A' for Active; 'I' for Inactive)
ROOT
HETATM    1  O1  UNL     1      20.192   1.631  49.054  1.00  0.00    -0.268 OA
HETATM    2  C1  UNL     1      20.960   1.092  49.882  1.00  0.00     0.254 C 
HETATM    3  N1  UNL     1      21.983   1.163  48.924  1.00  0.00    -0.357 N 
HETATM    4  C2  UNL     1      22.106   1.649  47.566  1.00  0.00     0.123 C 
HETATM    5  C3  UNL     1      21.817   3.120  47.414  1.00  0.00     0.023 C 
HETATM    6  C4  UNL     1      22.009   3.434  45.940  1.00  0.00     0.030 C 
HETATM    7  C5  UNL     1      21.762   4.848  45.616  1.00  0.00    -0.009 C 
HETATM    8  C6  UNL     1      21.404   5.805  46.449  1.00  0.00     0.102 C 
HETATM    9  N2  UNL     1      21.076   6.233  47.763  1.00  0.00    -0.199 N 
HETATM   10  C7  UNL     1      21.974   6.853  48.700  1.00  0.00     0.726 A 
HETATM   11  N3  UNL     1      21.582   8.049  49.175  1.00  0.00    -0.075 NA
HETATM   12  C8  UNL     1      22.396   8.679  50.067  1.00  0.00     0.138 A 
HETATM   13  C9  UNL     1      23.593   8.065  50.448  1.00  0.00     0.048 A 
HETATM   14  C10 UNL     1      23.921   6.847  49.918  1.00  0.00     0.059 A 
HETATM   15  N4  UNL     1      23.119   6.239  49.048  1.00  0.00    -0.067 NA
HETATM   16  C11 UNL     1      25.187   6.136  50.283  1.00  0.00     0.106 C 
HETATM   17  C12 UNL     1      25.430   4.982  49.402  1.00  0.00     0.095 C 
HETATM   18  N5  UNL     1      25.493   3.694  49.337  1.00  0.00    -0.277 NA
HETATM   19  C13 UNL     1      25.264   2.888  50.481  1.00  0.00     0.116 C 
HETATM   20  C14 UNL     1      24.967   2.127  51.507  1.00  0.00     0.021 C 
HETATM   21  C15 UNL     1      25.029   1.384  52.748  1.00  0.00     0.026 C 
HETATM   22  C16 UNL     1      23.904   0.745  53.010  1.00  0.00     0.142 C 
HETATM   23  O2  UNL     1      22.935   0.955  52.008  1.00  0.00    -0.322 OA
HETATM   24  C17 UNL     1      21.619   0.590  52.221  1.00  0.00     0.090 A 
HETATM   25  C18 UNL     1      21.170   0.143  53.447  1.00  0.00     0.038 A 
HETATM   26  C19 UNL     1      19.850  -0.217  53.636  1.00  0.00     0.003 A 
HETATM   27  C20 UNL     1      18.911  -0.150  52.618  1.00  0.00     0.001 A 
HETATM   28  C21 UNL     1      19.370   0.302  51.382  1.00  0.00     0.020 A 
HETATM   29  C22 UNL     1      20.696   0.652  51.233  1.00  0.00     0.065 A 
HETATM   30  H1  UNL     1      22.720   0.725  49.509  1.00  0.00     0.162 HD
HETATM   31  H10 UNL     1      20.093   6.117  48.160  1.00  0.00     0.183 HD
ENDROOT
TORSDOF 0
ENDMDL
MODEL 4
REMARK VINA RESULT:      -8.0      2.414      7.437
REMARK  0 active torsions:
REMARK  status: ('A' for Active; 'I' for Inactive)
ROOT
HETATM    1  O1  UNL     1      33.719   9.153  43.628  1.00  0.00    -0.268 OA
HETATM    2  C1  UNL     1      34.303   8.051  43.720  1.00  0.00     0.254 C 
HETATM    3  N1  UNL     1      34.746   8.433  44.996  1.00  0.00    -0.357 N 
HETATM    4  C2  UNL     1      34.594   9.595  45.845  1.00  0.00     0.123 C 
HETATM    5  C3  UNL     1      33.166   9.902  46.213  1.00  0.00     0.023 C 
HETATM    6  C4  UNL     1      33.219  11.132  47.105  1.00  0.00     0.030 C 
HETATM    7  C5  UNL     1      31.889  11.571  47.558  1.00  0.00    -0.009 C 
HETATM    8  C6  UNL     1      30.726  11.022  47.266  1.00  0.00     0.102 C 
HETATM    9  N2  UNL     1      29.973  10.019  46.601  1.00  0.00    -0.199 N 
HETATM   10  C7  UNL     1      29.500   8.791  47.184  1.00  0.00     0.726 A 
HETATM   11  N3  UNL     1      28.174   8.581  47.101  1.00  0.00    -0.075 NA
HETATM   12  C8  UNL     1      27.674   7.433  47.636  1.00  0.00     0.138 A 
HETATM   13  C9  UNL     1      28.551   6.528  48.243  1.00  0.00     0.048 A 
HETATM   14  C10 UNL     1      29.888   6.815  48.287  1.00  0.00     0.059 A 
HETATM   15  N4  UNL     1      30.365   7.938  47.762  1.00  0.00    -0.067 NA
HETATM   16  C11 UNL     1      30.878   5.889  48.922  1.00  0.00     0.106 C 
HETATM   17  C12 UNL     1      32.197   6.527  49.067  1.00  0.00     0.095 C 
HETATM   18  N5  UNL     1      33.426   6.521  48.670  1.00  0.00    -0.277 NA
HETATM   19  C13 UNL     1      33.881   5.589  47.704  1.00  0.00     0.116 C 
HETATM   20  C14 UNL     1      34.297   4.795  46.747  1.00  0.00     0.021 C 
HETATM   21  C15 UNL     1      34.768   3.644  46.005  1.00  0.00     0.026 C 
HETATM   22  C16 UNL     1      34.956   3.911  44.726  1.00  0.00     0.142 C 
HETATM   23  O2  UNL     1      34.647   5.252  44.419  1.00  0.00    -0.322 OA
HETATM   24  C17 UNL     1      34.528   5.658  43.103  1.00  0.00     0.090 A 
HETATM   25  C18 UNL     1      34.566   4.764  42.052  1.00  0.00     0.038 A 
HETATM   26  C19 UNL     1      34.446   5.192  40.745  1.00  0.00     0.003 A 
HETATM   27  C20 UNL     1      34.283   6.530  40.416  1.00  0.00     0.001 A 
HETATM   28  C21 UNL     1      34.246   7.428  41.482  1.00  0.00     0.020 A 
HETATM   29  C22 UNL     1      34.369   6.961  42.773  1.00  0.00     0.065 A 
HETATM   30  H1  UNL     1      35.273   7.562  45.200  1.00  0.00     0.162 HD
HETATM   31  H10 UNL     1      29.693  10.115  45.577  1.00  0.00     0.183 HD
ENDROOT
TORSDOF 0
ENDMDL
MODEL 5
REMARK VINA RESULT:      -7.7      9.857     12.493
REMARK  0 active torsions:
REMARK  status: ('A' for Active; 'I' for Inactive)
ROOT
HETATM    1  O1  UNL     1      23.895   4.191  51.800  1.00  0.00    -0.268 OA
HETATM    2  C1  UNL     1      23.091   3.383  52.314  1.00  0.00     0.254 C 
HETATM    3  N1  UNL     1      22.147   4.420  52.379  1.00  0.00    -0.357 N 
HETATM    4  C2  UNL     1      22.112   5.819  52.011  1.00  0.00     0.123 C 
HETATM    5  C3  UNL     1      22.337   6.072  50.543  1.00  0.00     0.023 C 
HETATM    6  C4  UNL     1      22.251   7.578  50.360  1.00  0.00     0.030 C 
HETATM    7  C5  UNL     1      22.452   8.001  48.964  1.00  0.00    -0.009 C 
HETATM    8  C6  UNL     1      22.691   7.226  47.924  1.00  0.00     0.102 C 
HETATM    9  N2  UNL     1      22.888   5.931  47.375  1.00  0.00    -0.199 N 
HETATM   10  C7  UNL     1      21.885   5.123  46.734  1.00  0.00     0.726 A 
HETATM   11  N3  UNL     1      22.176   4.721  45.484  1.00  0.00    -0.075 NA
HETATM   12  C8  UNL     1      21.261   3.951  44.832  1.00  0.00     0.138 A 
HETATM   13  C9  UNL     1      20.070   3.614  45.481  1.00  0.00     0.048 A 
HETATM   14  C10 UNL     1      19.848   4.063  46.755  1.00  0.00     0.059 A 
HETATM   15  N4  UNL     1      20.748   4.813  47.382  1.00  0.00    -0.067 NA
HETATM   16  C11 UNL     1      18.594   3.738  47.505  1.00  0.00     0.106 C 
HETATM   17  C12 UNL     1      18.483   4.535  48.738  1.00  0.00     0.095 C 
HETATM   18  N5  UNL     1      18.491   4.495  50.029  1.00  0.00    -0.277 NA
HETATM   19  C13 UNL     1      18.666   3.274  50.725  1.00  0.00     0.116 C 
HETATM   20  C14 UNL     1      18.916   2.167  51.384  1.00  0.00     0.021 C 
HETATM   21  C15 UNL     1      18.791   0.876  52.027  1.00  0.00     0.026 C 
HETATM   22  C16 UNL     1      19.921   0.475  52.578  1.00  0.00     0.142 C 
HETATM   23  O2  UNL     1      20.957   1.413  52.394  1.00  0.00    -0.322 OA
HETATM   24  C17 UNL     1      22.268   1.068  52.664  1.00  0.00     0.090 A 
HETATM   25  C18 UNL     1      22.638  -0.222  52.985  1.00  0.00     0.038 A 
HETATM   26  C19 UNL     1      23.953  -0.543  53.252  1.00  0.00     0.003 A 
HETATM   27  C20 UNL     1      24.968   0.401  53.213  1.00  0.00     0.001 A 
HETATM   28  C21 UNL     1      24.590   1.703  52.889  1.00  0.00     0.020 A 
HETATM   29  C22 UNL     1      23.265   1.983  52.629  1.00  0.00     0.065 A 
HETATM   30  H1  UNL     1      21.388   3.859  52.810  1.00  0.00     0.162 HD
HETATM   31  H10 UNL     1      23.839   5.451  47.402  1.00  0.00     0.183 HD
ENDROOT
TORSDOF 0
ENDMDL
MODEL 6
REMARK VINA RESULT:      -7.5     24.247     27.114
REMARK  0 active torsions:
REMARK  status: ('A' for Active; 'I' for Inactive)
ROOT
HETATM    1  O1  UNL     1      44.090   7.973  69.703  1.00  0.00    -0.268 OA
HETATM    2  C1  UNL     1      44.568   7.055  69.000  1.00  0.00     0.254 C 
HETATM    3  N1  UNL     1      44.902   6.374  70.181  1.00  0.00    -0.357 N 
HETATM    4  C2  UNL     1      44.757   6.619  71.600  1.00  0.00     0.123 C 
HETATM    5  C3  UNL     1      43.327   6.770  72.052  1.00  0.00     0.023 C 
HETATM    6  C4  UNL     1      43.386   7.005  73.553  1.00  0.00     0.030 C 
HETATM    7  C5  UNL     1      42.056   7.176  74.161  1.00  0.00    -0.009 C 
HETATM    8  C6  UNL     1      40.891   7.149  73.546  1.00  0.00     0.102 C 
HETATM    9  N2  UNL     1      40.132   7.007  72.354  1.00  0.00    -0.199 N 
HETATM   10  C7  UNL     1      39.501   5.799  71.892  1.00  0.00     0.726 A 
HETATM   11  N3  UNL     1      38.178   5.887  71.662  1.00  0.00    -0.075 NA
HETATM   12  C8  UNL     1      37.532   4.772  71.222  1.00  0.00     0.138 A 
HETATM   13  C9  UNL     1      38.261   3.595  71.029  1.00  0.00     0.048 A 
HETATM   14  C10 UNL     1      39.605   3.587  71.285  1.00  0.00     0.059 A 
HETATM   15  N4  UNL     1      40.226   4.681  71.715  1.00  0.00    -0.067 NA
HETATM   16  C11 UNL     1      40.442   2.360  71.099  1.00  0.00     0.106 C 
HETATM   17  C12 UNL     1      41.786   2.533  71.675  1.00  0.00     0.095 C 
HETATM   18  N5  UNL     1      43.045   2.641  71.411  1.00  0.00    -0.277 NA
HETATM   19  C13 UNL     1      43.523   2.599  70.077  1.00  0.00     0.116 C 
HETATM   20  C14 UNL     1      43.972   2.652  68.846  1.00  0.00     0.021 C 
HETATM   21  C15 UNL     1      44.422   2.298  67.516  1.00  0.00     0.026 C 
HETATM   22  C16 UNL     1      44.766   3.353  66.803  1.00  0.00     0.142 C 
HETATM   23  O2  UNL     1      44.603   4.552  67.526  1.00  0.00    -0.322 OA
HETATM   24  C17 UNL     1      44.659   5.772  66.878  1.00  0.00     0.090 A 
HETATM   25  C18 UNL     1      44.735   5.872  65.504  1.00  0.00     0.038 A 
HETATM   26  C19 UNL     1      44.790   7.101  64.878  1.00  0.00     0.003 A 
HETATM   27  C20 UNL     1      44.774   8.294  65.587  1.00  0.00     0.001 A 
HETATM   28  C21 UNL     1      44.698   8.187  66.975  1.00  0.00     0.020 A 
HETATM   29  C22 UNL     1      44.644   6.941  67.561  1.00  0.00     0.065 A 
HETATM   30  H1  UNL     1      45.331   5.549  69.721  1.00  0.00     0.162 HD
HETATM   31  H10 UNL     1      39.971   7.827  71.692  1.00  0.00     0.183 HD
ENDROOT
TORSDOF 0
ENDMDL
MODEL 7
REMARK VINA RESULT:      -7.5      6.843     11.612
REMARK  0 active torsions:
REMARK  status: ('A' for Active; 'I' for Inactive)
ROOT
HETATM    1  O1  UNL     1      24.284   8.135  48.667  1.00  0.00    -0.268 OA
HETATM    2  C1  UNL     1      24.813   7.183  49.281  1.00  0.00     0.254 C 
HETATM    3  N1  UNL     1      23.770   7.255  50.217  1.00  0.00    -0.357 N 
HETATM    4  C2  UNL     1      22.589   8.072  50.398  1.00  0.00     0.123 C 
HETATM    5  C3  UNL     1      21.606   7.987  49.259  1.00  0.00     0.023 C 
HETATM    6  C4  UNL     1      20.446   8.893  49.640  1.00  0.00     0.030 C 
HETATM    7  C5  UNL     1      19.384   8.927  48.621  1.00  0.00    -0.009 C 
HETATM    8  C6  UNL     1      19.361   8.278  47.474  1.00  0.00     0.102 C 
HETATM    9  N2  UNL     1      19.972   7.387  46.552  1.00  0.00    -0.199 N 
HETATM   10  C7  UNL     1      19.707   5.978  46.436  1.00  0.00     0.726 A 
HETATM   11  N3  UNL     1      19.325   5.557  45.217  1.00  0.00    -0.075 NA
HETATM   12  C8  UNL     1      19.064   4.231  45.052  1.00  0.00     0.138 A 
HETATM   13  C9  UNL     1      19.202   3.370  46.145  1.00  0.00     0.048 A 
HETATM   14  C10 UNL     1      19.595   3.876  47.354  1.00  0.00     0.059 A 
HETATM   15  N4  UNL     1      19.848   5.172  47.504  1.00  0.00    -0.067 NA
HETATM   16  C11 UNL     1      19.762   3.008  48.562  1.00  0.00     0.106 C 
HETATM   17  C12 UNL     1      19.942   3.812  49.782  1.00  0.00     0.095 C 
HETATM   18  N5  UNL     1      20.768   4.151  50.715  1.00  0.00    -0.277 NA
HETATM   19  C13 UNL     1      22.090   3.641  50.746  1.00  0.00     0.116 C 
HETATM   20  C14 UNL     1      23.342   3.249  50.740  1.00  0.00     0.021 C 
HETATM   21  C15 UNL     1      24.554   2.472  50.892  1.00  0.00     0.026 C 
HETATM   22  C16 UNL     1      25.627   3.128  50.492  1.00  0.00     0.142 C 
HETATM   23  O2  UNL     1      25.309   4.417  50.020  1.00  0.00    -0.322 OA
HETATM   24  C17 UNL     1      26.245   5.157  49.323  1.00  0.00     0.090 A 
HETATM   25  C18 UNL     1      27.462   4.629  48.939  1.00  0.00     0.038 A 
HETATM   26  C19 UNL     1      28.382   5.387  48.244  1.00  0.00     0.003 A 
HETATM   27  C20 UNL     1      28.141   6.707  47.894  1.00  0.00     0.001 A 
HETATM   28  C21 UNL     1      26.912   7.235  48.284  1.00  0.00     0.020 A 
HETATM   29  C22 UNL     1      26.019   6.446  48.977  1.00  0.00     0.065 A 
HETATM   30  H1  UNL     1      24.101   6.478  50.820  1.00  0.00     0.162 HD
HETATM   31  H10 UNL     1      20.702   7.721  45.850  1.00  0.00     0.183 HD
ENDROOT
TORSDOF 0
ENDMDL
MODEL 8
REMARK VINA RESULT:      -7.3      2.241      2.849
REMARK  0 active torsions:
REMARK  status: ('A' for Active; 'I' for Inactive)
ROOT
HETATM    1  O1  UNL     1      29.750   6.637  48.792  1.00  0.00    -0.268 OA
HETATM    2  C1  UNL     1      29.000   7.547  48.376  1.00  0.00     0.254 C 
HETATM    3  N1  UNL     1      30.095   8.424  48.428  1.00  0.00    -0.357 N 
HETATM    4  C2  UNL     1      31.491   8.325  48.797  1.00  0.00     0.123 C 
HETATM    5  C3  UNL     1      32.275   7.340  47.968  1.00  0.00     0.023 C 
HETATM    6  C4  UNL     1      33.699   7.391  48.495  1.00  0.00     0.030 C 
HETATM    7  C5  UNL     1      34.608   6.476  47.785  1.00  0.00    -0.009 C 
HETATM    8  C6  UNL     1      34.304   5.663  46.793  1.00  0.00     0.102 C 
HETATM    9  N2  UNL     1      33.347   5.127  45.892  1.00  0.00    -0.199 N 
HETATM   10  C7  UNL     1      33.120   5.565  44.540  1.00  0.00     0.726 A 
HETATM   11  N3  UNL     1      33.221   4.612  43.596  1.00  0.00    -0.075 NA
HETATM   12  C8  UNL     1      33.013   4.974  42.299  1.00  0.00     0.138 A 
HETATM   13  C9  UNL     1      32.707   6.306  42.006  1.00  0.00     0.048 A 
HETATM   14  C10 UNL     1      32.622   7.216  43.024  1.00  0.00     0.059 A 
HETATM   15  N4  UNL     1      32.826   6.853  44.286  1.00  0.00    -0.067 NA
HETATM   16  C11 UNL     1      32.298   8.657  42.777  1.00  0.00     0.106 C 
HETATM   17  C12 UNL     1      32.513   9.472  43.983  1.00  0.00     0.095 C 
HETATM   18  N5  UNL     1      31.940  10.175  44.902  1.00  0.00    -0.277 NA
HETATM   19  C13 UNL     1      30.533  10.348  44.925  1.00  0.00     0.116 C 
HETATM   20  C14 UNL     1      29.228  10.445  45.012  1.00  0.00     0.021 C 
HETATM   21  C15 UNL     1      27.849  10.836  44.810  1.00  0.00     0.026 C 
HETATM   22  C16 UNL     1      27.018  10.177  45.596  1.00  0.00     0.142 C 
HETATM   23  O2  UNL     1      27.695   9.263  46.428  1.00  0.00    -0.322 OA
HETATM   24  C17 UNL     1      26.991   8.303  47.130  1.00  0.00     0.090 A 
HETATM   25  C18 UNL     1      25.638   8.104  46.947  1.00  0.00     0.038 A 
HETATM   26  C19 UNL     1      24.955   7.138  47.660  1.00  0.00     0.003 A 
HETATM   27  C20 UNL     1      25.582   6.322  48.590  1.00  0.00     0.001 A 
HETATM   28  C21 UNL     1      26.949   6.527  48.770  1.00  0.00     0.020 A 
HETATM   29  C22 UNL     1      27.595   7.502  48.039  1.00  0.00     0.065 A 
HETATM   30  H1  UNL     1      29.586   9.264  48.091  1.00  0.00     0.162 HD
HETATM   31  H10 UNL     1      32.703   4.324  46.171  1.00  0.00     0.183 HD
ENDROOT
TORSDOF 0
ENDMDL
MODEL 9
REMARK VINA RESULT:      -7.3      2.833      7.208
REMARK  0 active torsions:
REMARK  status: ('A' for Active; 'I' for Inactive)
ROOT
HETATM    1  O1  UNL     1      33.351   9.239  44.584  1.00  0.00    -0.268 OA
HETATM    2  C1  UNL     1      33.550   8.034  44.855  1.00  0.00     0.254 C 
HETATM    3  N1  UNL     1      33.469   8.364  46.216  1.00  0.00    -0.357 N 
HETATM    4  C2  UNL     1      33.247   9.572  46.983  1.00  0.00     0.123 C 
HETATM    5  C3  UNL     1      31.923  10.237  46.708  1.00  0.00     0.023 C 
HETATM    6  C4  UNL     1      31.877  11.462  47.606  1.00  0.00     0.030 C 
HETATM    7  C5  UNL     1      30.633  12.236  47.460  1.00  0.00    -0.009 C 
HETATM    8  C6  UNL     1      29.621  11.972  46.658  1.00  0.00     0.102 C 
HETATM    9  N2  UNL     1      29.015  11.148  45.673  1.00  0.00    -0.199 N 
HETATM   10  C7  UNL     1      28.054  10.105  45.917  1.00  0.00     0.726 A 
HETATM   11  N3  UNL     1      26.891  10.220  45.251  1.00  0.00    -0.075 NA
HETATM   12  C8  UNL     1      25.946   9.258  45.445  1.00  0.00     0.138 A 
HETATM   13  C9  UNL     1      26.222   8.201  46.318  1.00  0.00     0.048 A 
HETATM   14  C10 UNL     1      27.431   8.155  46.957  1.00  0.00     0.059 A 
HETATM   15  N4  UNL     1      28.346   9.099  46.761  1.00  0.00    -0.067 NA
HETATM   16  C11 UNL     1      27.788   7.051  47.904  1.00  0.00     0.106 C 
HETATM   17  C12 UNL     1      29.021   7.357  48.646  1.00  0.00     0.095 C 
HETATM   18  N5  UNL     1      30.258   7.030  48.826  1.00  0.00    -0.277 NA
HETATM   19  C13 UNL     1      30.849   5.966  48.101  1.00  0.00     0.116 C 
HETATM   20  C14 UNL     1      31.436   5.043  47.375  1.00  0.00     0.021 C 
HETATM   21  C15 UNL     1      31.889   3.775  46.845  1.00  0.00     0.026 C 
HETATM   22  C16 UNL     1      32.675   3.920  45.794  1.00  0.00     0.142 C 
HETATM   23  O2  UNL     1      32.866   5.277  45.464  1.00  0.00    -0.322 OA
HETATM   24  C17 UNL     1      33.436   5.629  44.255  1.00  0.00     0.090 A 
HETATM   25  C18 UNL     1      33.711   4.698  43.274  1.00  0.00     0.038 A 
HETATM   26  C19 UNL     1      34.281   5.072  42.073  1.00  0.00     0.003 A 
HETATM   27  C20 UNL     1      34.607   6.390  41.787  1.00  0.00     0.001 A 
HETATM   28  C21 UNL     1      34.327   7.326  42.782  1.00  0.00     0.020 A 
HETATM   29  C22 UNL     1      33.757   6.912  43.967  1.00  0.00     0.065 A 
HETATM   30  H1  UNL     1      33.626   7.404  46.577  1.00  0.00     0.162 HD
HETATM   31  H10 UNL     1      29.243  11.254  44.637  1.00  0.00     0.183 HD
ENDROOT
TORSDOF 0
ENDMDL
