MODEL 1
REMARK VINA RESULT:      -9.0      0.000      0.000
REMARK  6 active torsions:
REMARK  status: ('A' for Active; 'I' for Inactive)
REMARK       I    between atoms: N1_1  and  C1_2 
REMARK       I    between atoms: C1_2  and  N2_4 
REMARK    1  A    between atoms: N2_4  and  C2_5 
REMARK    2  A    between atoms: C7_12  and  N5_13 
REMARK    3  A    between atoms: N5_13  and  C8_14 
REMARK    4  A    between atoms: C11_17  and  O2_18 
REMARK    5  A    between atoms: O2_18  and  C12_19 
REMARK    6  A    between atoms: C12_19  and  C13_20 
ROOT
HETATM    1  C2  UNL     1      24.551  -0.696  54.211  1.00  0.00     0.037 A 
HETATM    2  C3  UNL     1      23.586  -1.160  55.069  1.00  0.00     0.032 A 
HETATM    3  C4  UNL     1      22.238  -0.908  54.970  1.00  0.00     0.035 A 
HETATM    4  C5  UNL     1      21.848  -0.111  53.894  1.00  0.00     0.072 A 
HETATM    5  N3  UNL     1      20.547   0.175  53.745  1.00  0.00    -0.241 NA
HETATM    6  C6  UNL     1      20.137   0.945  52.722  1.00  0.00     0.236 A 
HETATM    7  N4  UNL     1      20.992   1.460  51.812  1.00  0.00    -0.224 NA
HETATM    8  C7  UNL     1      22.329   1.193  51.924  1.00  0.00     0.142 A 
HETATM    9  C20 UNL     1      22.756   0.392  52.987  1.00  0.00     0.041 A 
HETATM   10  C21 UNL     1      24.084   0.080  53.179  1.00  0.00     0.047 A 
ENDROOT
BRANCH   8  11
HETATM   11  N5  UNL     1      23.379   1.643  51.095  1.00  0.00    -0.340 N 
HETATM   12  H7  UNL     1      23.886   0.791  50.759  1.00  0.00     0.167 HD
BRANCH  11  13
HETATM   13  C8  UNL     1      23.803   2.935  50.695  1.00  0.00     0.035 A 
HETATM   14  C9  UNL     1      23.012   4.054  50.812  1.00  0.00     0.032 A 
HETATM   15  C10 UNL     1      23.437   5.294  50.404  1.00  0.00     0.041 A 
HETATM   16  C11 UNL     1      24.697   5.445  49.852  1.00  0.00     0.091 A 
HETATM   17  C18 UNL     1      25.520   4.318  49.722  1.00  0.00     0.069 A 
HETATM   18 CL1  UNL     1      27.141   4.315  49.046  1.00  0.00    -0.081 Cl
HETATM   19  C19 UNL     1      25.059   3.066  50.149  1.00  0.00     0.056 A 
BRANCH  16  20
HETATM   20  O2  UNL     1      25.351   6.559  49.372  1.00  0.00    -0.345 OA
BRANCH  20  21
HETATM   21  C12 UNL     1      25.683   7.653  50.190  1.00  0.00     0.214 C 
BRANCH  21  22
HETATM   22  C13 UNL     1      26.897   8.336  49.726  1.00  0.00    -0.035 A 
HETATM   23  C14 UNL     1      27.732   9.323  50.109  1.00  0.00     0.023 A 
HETATM   24  C15 UNL     1      28.849   9.554  49.142  1.00  0.00     0.216 A 
HETATM   25  F1  UNL     1      30.071   9.305  49.708  1.00  0.00    -0.241 F 
HETATM   26  C16 UNL     1      28.523   8.526  48.118  1.00  0.00     0.014 A 
HETATM   27  C17 UNL     1      27.426   7.839  48.443  1.00  0.00     0.008 A 
ENDBRANCH  21  22
ENDBRANCH  20  21
ENDBRANCH  16  20
ENDBRANCH  11  13
ENDBRANCH   8  11
BRANCH   1  28
HETATM   28  N2  UNL     1      25.937  -0.913  54.274  1.00  0.00    -0.309 N 
HETATM   29  C1  UNL     1      26.948  -0.064  54.759  1.00  0.00     0.318 C 
HETATM   30  N1  UNL     1      28.349  -0.137  54.884  1.00  0.00    -0.352 N 
HETATM   31  O1  UNL     1      26.613   1.075  55.220  1.00  0.00    -0.247 OA
HETATM   32  H1  UNL     1      29.129  -0.660  55.332  1.00  0.00     0.160 HD
HETATM   33  H2  UNL     1      28.991   0.546  54.376  1.00  0.00     0.160 HD
HETATM   34  H3  UNL     1      26.377  -1.785  53.944  1.00  0.00     0.170 HD
ENDBRANCH   1  28
TORSDOF 6
ENDMDL
MODEL 2
REMARK VINA RESULT:      -8.9      3.069      4.011
REMARK  6 active torsions:
REMARK  status: ('A' for Active; 'I' for Inactive)
REMARK       I    between atoms: N1_1  and  C1_2 
REMARK       I    between atoms: C1_2  and  N2_4 
REMARK    1  A    between atoms: N2_4  and  C2_5 
REMARK    2  A    between atoms: C7_12  and  N5_13 
REMARK    3  A    between atoms: N5_13  and  C8_14 
REMARK    4  A    between atoms: C11_17  and  O2_18 
REMARK    5  A    between atoms: O2_18  and  C12_19 
REMARK    6  A    between atoms: C12_19  and  C13_20 
ROOT
HETATM    1  C2  UNL     1      25.707   1.755  53.434  1.00  0.00     0.037 A 
HETATM    2  C3  UNL     1      24.938   0.621  53.488  1.00  0.00     0.032 A 
HETATM    3  C4  UNL     1      23.815   0.377  52.733  1.00  0.00     0.035 A 
HETATM    4  C5  UNL     1      23.452   1.388  51.843  1.00  0.00     0.072 A 
HETATM    5  N3  UNL     1      22.364   1.213  51.081  1.00  0.00    -0.241 NA
HETATM    6  C6  UNL     1      21.983   2.169  50.217  1.00  0.00     0.236 A 
HETATM    7  N4  UNL     1      22.658   3.329  50.072  1.00  0.00    -0.224 NA
HETATM    8  C7  UNL     1      23.777   3.551  50.829  1.00  0.00     0.142 A 
HETATM    9  C20 UNL     1      24.174   2.557  51.728  1.00  0.00     0.041 A 
HETATM   10  C21 UNL     1      25.283   2.700  52.533  1.00  0.00     0.047 A 
ENDROOT
BRANCH   8  11
HETATM   11  N5  UNL     1      24.608   4.691  50.841  1.00  0.00    -0.340 N 
HETATM   12  H7  UNL     1      24.333   5.258  51.677  1.00  0.00     0.167 HD
BRANCH  11  13
HETATM   13  C8  UNL     1      25.645   5.135  49.984  1.00  0.00     0.035 A 
HETATM   14  C9  UNL     1      26.613   4.298  49.480  1.00  0.00     0.032 A 
HETATM   15  C10 UNL     1      27.618   4.752  48.663  1.00  0.00     0.041 A 
HETATM   16  C11 UNL     1      27.680   6.092  48.323  1.00  0.00     0.091 A 
HETATM   17  C18 UNL     1      26.705   6.965  48.827  1.00  0.00     0.069 A 
HETATM   18 CL1  UNL     1      26.623   8.689  48.508  1.00  0.00    -0.081 Cl
HETATM   19  C19 UNL     1      25.690   6.471  49.657  1.00  0.00     0.056 A 
BRANCH  16  20
HETATM   20  O2  UNL     1      28.570   6.789  47.536  1.00  0.00    -0.345 OA
BRANCH  20  21
HETATM   21  C12 UNL     1      29.862   7.128  47.974  1.00  0.00     0.214 C 
BRANCH  21  22
HETATM   22  C13 UNL     1      30.865   6.152  47.528  1.00  0.00    -0.035 A 
HETATM   23  C14 UNL     1      31.109   4.827  47.590  1.00  0.00     0.023 A 
HETATM   24  C15 UNL     1      32.375   4.432  46.898  1.00  0.00     0.216 A 
HETATM   25  F1  UNL     1      32.136   3.592  45.843  1.00  0.00    -0.241 F 
HETATM   26  C16 UNL     1      32.836   5.762  46.419  1.00  0.00     0.014 A 
HETATM   27  C17 UNL     1      31.989   6.732  46.771  1.00  0.00     0.008 A 
ENDBRANCH  21  22
ENDBRANCH  20  21
ENDBRANCH  16  20
ENDBRANCH  11  13
ENDBRANCH   8  11
BRANCH   1  28
HETATM   28  N2  UNL     1      26.851   2.058  54.189  1.00  0.00    -0.309 N 
HETATM   29  C1  UNL     1      28.205   1.997  53.813  1.00  0.00     0.318 C 
HETATM   30  N1  UNL     1      29.438   2.260  54.444  1.00  0.00    -0.352 N 
HETATM   31  O1  UNL     1      28.489   1.623  52.631  1.00  0.00    -0.247 OA
HETATM   32  H1  UNL     1      30.010   3.001  54.897  1.00  0.00     0.160 HD
HETATM   33  H2  UNL     1      30.166   1.496  54.584  1.00  0.00     0.160 HD
HETATM   34  H3  UNL     1      26.800   2.379  55.168  1.00  0.00     0.170 HD
ENDBRANCH   1  28
TORSDOF 6
ENDMDL
MODEL 3
REMARK VINA RESULT:      -8.8      1.824      3.717
REMARK  6 active torsions:
REMARK  status: ('A' for Active; 'I' for Inactive)
REMARK       I    between atoms: N1_1  and  C1_2 
REMARK       I    between atoms: C1_2  and  N2_4 
REMARK    1  A    between atoms: N2_4  and  C2_5 
REMARK    2  A    between atoms: C7_12  and  N5_13 
REMARK    3  A    between atoms: N5_13  and  C8_14 
REMARK    4  A    between atoms: C11_17  and  O2_18 
REMARK    5  A    between atoms: O2_18  and  C12_19 
REMARK    6  A    between atoms: C12_19  and  C13_20 
ROOT
HETATM    1  C2  UNL     1      24.101  -0.517  53.840  1.00  0.00     0.037 A 
HETATM    2  C3  UNL     1      24.784  -0.845  54.984  1.00  0.00     0.032 A 
HETATM    3  C4  UNL     1      26.040  -0.401  55.323  1.00  0.00     0.035 A 
HETATM    4  C5  UNL     1      26.648   0.456  54.405  1.00  0.00     0.072 A 
HETATM    5  N3  UNL     1      27.875   0.921  54.675  1.00  0.00    -0.241 NA
HETATM    6  C6  UNL     1      28.492   1.744  53.810  1.00  0.00     0.236 A 
HETATM    7  N4  UNL     1      27.923   2.139  52.651  1.00  0.00    -0.224 NA
HETATM    8  C7  UNL     1      26.669   1.691  52.335  1.00  0.00     0.142 A 
HETATM    9  C20 UNL     1      26.027   0.835  53.234  1.00  0.00     0.041 A 
HETATM   10  C21 UNL     1      24.768   0.331  52.991  1.00  0.00     0.047 A 
ENDROOT
BRANCH   8  11
HETATM   11  N5  UNL     1      25.912   1.970  51.177  1.00  0.00    -0.340 N 
HETATM   12  H7  UNL     1      25.507   1.060  50.853  1.00  0.00     0.167 HD
BRANCH  11  13
HETATM   13  C8  UNL     1      25.646   3.167  50.466  1.00  0.00     0.035 A 
HETATM   14  C9  UNL     1      24.398   3.740  50.401  1.00  0.00     0.032 A 
HETATM   15  C10 UNL     1      24.160   4.892  49.694  1.00  0.00     0.041 A 
HETATM   16  C11 UNL     1      25.194   5.512  49.015  1.00  0.00     0.091 A 
HETATM   17  C18 UNL     1      26.475   4.945  49.066  1.00  0.00     0.069 A 
HETATM   18 CL1  UNL     1      27.902   5.585  48.269  1.00  0.00    -0.081 Cl
HETATM   19  C19 UNL     1      26.687   3.769  49.797  1.00  0.00     0.056 A 
BRANCH  16  20
HETATM   20  O2  UNL     1      25.219   6.655  48.246  1.00  0.00    -0.345 OA
BRANCH  20  21
HETATM   21  C12 UNL     1      25.026   7.937  48.789  1.00  0.00     0.214 C 
BRANCH  21  22
HETATM   22  C13 UNL     1      26.299   8.630  49.025  1.00  0.00    -0.035 A 
HETATM   23  C14 UNL     1      27.145   8.911  50.038  1.00  0.00     0.023 A 
HETATM   24  C15 UNL     1      28.338   9.699  49.601  1.00  0.00     0.216 A 
HETATM   25  F1  UNL     1      29.504   9.007  49.798  1.00  0.00    -0.241 F 
HETATM   26  C16 UNL     1      28.045   9.835  48.150  1.00  0.00     0.014 A 
HETATM   27  C17 UNL     1      26.898   9.235  47.822  1.00  0.00     0.008 A 
ENDBRANCH  21  22
ENDBRANCH  20  21
ENDBRANCH  16  20
ENDBRANCH  11  13
ENDBRANCH   8  11
BRANCH   1  28
HETATM   28  N2  UNL     1      22.827  -0.951  53.442  1.00  0.00    -0.309 N 
HETATM   29  C1  UNL     1      21.608  -0.887  54.142  1.00  0.00     0.318 C 
HETATM   30  N1  UNL     1      20.278  -1.273  53.883  1.00  0.00    -0.352 N 
HETATM   31  O1  UNL     1      21.604  -0.371  55.305  1.00  0.00    -0.247 OA
HETATM   32  H1  UNL     1      19.464  -1.121  53.254  1.00  0.00     0.160 HD
HETATM   33  H2  UNL     1      19.781  -1.998  54.486  1.00  0.00     0.160 HD
HETATM   34  H3  UNL     1      22.652  -1.392  52.526  1.00  0.00     0.170 HD
ENDBRANCH   1  28
TORSDOF 6
ENDMDL
MODEL 4
REMARK VINA RESULT:      -8.8      1.804      2.097
REMARK  6 active torsions:
REMARK  status: ('A' for Active; 'I' for Inactive)
REMARK       I    between atoms: N1_1  and  C1_2 
REMARK       I    between atoms: C1_2  and  N2_4 
REMARK    1  A    between atoms: N2_4  and  C2_5 
REMARK    2  A    between atoms: C7_12  and  N5_13 
REMARK    3  A    between atoms: N5_13  and  C8_14 
REMARK    4  A    between atoms: C11_17  and  O2_18 
REMARK    5  A    between atoms: O2_18  and  C12_19 
REMARK    6  A    between atoms: C12_19  and  C13_20 
ROOT
HETATM    1  C2  UNL     1      25.316  -0.568  54.449  1.00  0.00     0.037 A 
HETATM    2  C3  UNL     1      24.748  -1.281  55.475  1.00  0.00     0.032 A 
HETATM    3  C4  UNL     1      23.404  -1.524  55.634  1.00  0.00     0.035 A 
HETATM    4  C5  UNL     1      22.571  -0.987  54.651  1.00  0.00     0.072 A 
HETATM    5  N3  UNL     1      21.249  -1.184  54.752  1.00  0.00    -0.241 NA
HETATM    6  C6  UNL     1      20.418  -0.677  53.825  1.00  0.00     0.236 A 
HETATM    7  N4  UNL     1      20.857   0.041  52.770  1.00  0.00    -0.224 NA
HETATM    8  C7  UNL     1      22.199   0.266  52.626  1.00  0.00     0.142 A 
HETATM    9  C20 UNL     1      23.065  -0.261  53.589  1.00  0.00     0.041 A 
HETATM   10  C21 UNL     1      24.429  -0.076  53.525  1.00  0.00     0.047 A 
ENDROOT
BRANCH   8  11
HETATM   11  N5  UNL     1      22.855   0.998  51.613  1.00  0.00    -0.340 N 
HETATM   12  H7  UNL     1      23.229   0.299  50.928  1.00  0.00     0.167 HD
BRANCH  11  13
HETATM   13  C8  UNL     1      23.061   2.384  51.406  1.00  0.00     0.035 A 
HETATM   14  C9  UNL     1      23.264   3.274  52.435  1.00  0.00     0.032 A 
HETATM   15  C10 UNL     1      23.448   4.616  52.213  1.00  0.00     0.041 A 
HETATM   16  C11 UNL     1      23.430   5.112  50.921  1.00  0.00     0.091 A 
HETATM   17  C18 UNL     1      23.223   4.223  49.857  1.00  0.00     0.069 A 
HETATM   18 CL1  UNL     1      23.165   4.667  48.159  1.00  0.00    -0.081 Cl
HETATM   19  C19 UNL     1      23.040   2.858  50.115  1.00  0.00     0.056 A 
BRANCH  16  20
HETATM   20  O2  UNL     1      23.584   6.393  50.438  1.00  0.00    -0.345 OA
BRANCH  20  21
HETATM   21  C12 UNL     1      24.599   7.255  50.890  1.00  0.00     0.214 C 
BRANCH  21  22
HETATM   22  C13 UNL     1      25.767   7.240  49.999  1.00  0.00    -0.035 A 
HETATM   23  C14 UNL     1      26.364   6.433  49.098  1.00  0.00     0.023 A 
HETATM   24  C15 UNL     1      27.597   7.033  48.502  1.00  0.00     0.216 A 
HETATM   25  F1  UNL     1      27.470   7.219  47.152  1.00  0.00    -0.241 F 
HETATM   26  C16 UNL     1      27.623   8.338  49.214  1.00  0.00     0.014 A 
HETATM   27  C17 UNL     1      26.595   8.459  50.057  1.00  0.00     0.008 A 
ENDBRANCH  21  22
ENDBRANCH  20  21
ENDBRANCH  16  20
ENDBRANCH  11  13
ENDBRANCH   8  11
BRANCH   1  28
HETATM   28  N2  UNL     1      26.676  -0.283  54.248  1.00  0.00    -0.309 N 
HETATM   29  C1  UNL     1      27.647  -1.028  53.555  1.00  0.00     0.318 C 
HETATM   30  N1  UNL     1      29.020  -0.878  53.275  1.00  0.00    -0.352 N 
HETATM   31  O1  UNL     1      27.296  -2.125  53.013  1.00  0.00    -0.247 OA
HETATM   32  H1  UNL     1      29.721  -0.275  52.800  1.00  0.00     0.160 HD
HETATM   33  H2  UNL     1      29.740  -1.581  53.625  1.00  0.00     0.160 HD
HETATM   34  H3  UNL     1      27.124   0.569  54.620  1.00  0.00     0.170 HD
ENDBRANCH   1  28
TORSDOF 6
ENDMDL
MODEL 5
REMARK VINA RESULT:      -8.8      2.109      3.035
REMARK  6 active torsions:
REMARK  status: ('A' for Active; 'I' for Inactive)
REMARK       I    between atoms: N1_1  and  C1_2 
REMARK       I    between atoms: C1_2  and  N2_4 
REMARK    1  A    between atoms: N2_4  and  C2_5 
REMARK    2  A    between atoms: C7_12  and  N5_13 
REMARK    3  A    between atoms: N5_13  and  C8_14 
REMARK    4  A    between atoms: C11_17  and  O2_18 
REMARK    5  A    between atoms: O2_18  and  C12_19 
REMARK    6  A    between atoms: C12_19  and  C13_20 
ROOT
HETATM    1  C2  UNL     1      25.831   1.447  53.677  1.00  0.00     0.037 A 
HETATM    2  C3  UNL     1      25.094   0.292  53.743  1.00  0.00     0.032 A 
HETATM    3  C4  UNL     1      23.944   0.033  53.035  1.00  0.00     0.035 A 
HETATM    4  C5  UNL     1      23.515   1.052  52.183  1.00  0.00     0.072 A 
HETATM    5  N3  UNL     1      22.397   0.863  51.468  1.00  0.00    -0.241 NA
HETATM    6  C6  UNL     1      21.953   1.826  50.642  1.00  0.00     0.236 A 
HETATM    7  N4  UNL     1      22.592   3.005  50.490  1.00  0.00    -0.224 NA
HETATM    8  C7  UNL     1      23.738   3.241  51.199  1.00  0.00     0.142 A 
HETATM    9  C20 UNL     1      24.201   2.241  52.059  1.00  0.00     0.041 A 
HETATM   10  C21 UNL     1      25.342   2.397  52.815  1.00  0.00     0.047 A 
ENDROOT
BRANCH   8  11
HETATM   11  N5  UNL     1      24.540   4.403  51.196  1.00  0.00    -0.340 N 
HETATM   12  H7  UNL     1      24.331   4.918  52.084  1.00  0.00     0.167 HD
BRANCH  11  13
HETATM   13  C8  UNL     1      25.482   4.920  50.273  1.00  0.00     0.035 A 
HETATM   14  C9  UNL     1      26.444   4.145  49.669  1.00  0.00     0.032 A 
HETATM   15  C10 UNL     1      27.357   4.669  48.788  1.00  0.00     0.041 A 
HETATM   16  C11 UNL     1      27.327   6.019  48.484  1.00  0.00     0.091 A 
HETATM   17  C18 UNL     1      26.355   6.828  49.089  1.00  0.00     0.069 A 
HETATM   18 CL1  UNL     1      26.165   8.554  48.828  1.00  0.00    -0.081 Cl
HETATM   19  C19 UNL     1      25.436   6.264  49.983  1.00  0.00     0.056 A 
BRANCH  16  20
HETATM   20  O2  UNL     1      28.115   6.779  47.649  1.00  0.00    -0.345 OA
BRANCH  20  21
HETATM   21  C12 UNL     1      29.512   6.857  47.791  1.00  0.00     0.214 C 
BRANCH  21  22
HETATM   22  C13 UNL     1      29.939   8.166  48.300  1.00  0.00    -0.035 A 
HETATM   23  C14 UNL     1      29.598   9.063  49.249  1.00  0.00     0.023 A 
HETATM   24  C15 UNL     1      30.479  10.270  49.257  1.00  0.00     0.216 A 
HETATM   25  F1  UNL     1      31.166  10.391  50.435  1.00  0.00    -0.241 F 
HETATM   26  C16 UNL     1      31.401   9.928  48.141  1.00  0.00     0.014 A 
HETATM   27  C17 UNL     1      31.101   8.745  47.601  1.00  0.00     0.008 A 
ENDBRANCH  21  22
ENDBRANCH  20  21
ENDBRANCH  16  20
ENDBRANCH  11  13
ENDBRANCH   8  11
BRANCH   1  28
HETATM   28  N2  UNL     1      27.001   1.765  54.385  1.00  0.00    -0.309 N 
HETATM   29  C1  UNL     1      28.315   1.917  53.906  1.00  0.00     0.318 C 
HETATM   30  N1  UNL     1      29.565   2.225  54.479  1.00  0.00    -0.352 N 
HETATM   31  O1  UNL     1      28.529   1.757  52.662  1.00  0.00    -0.247 OA
HETATM   32  H1  UNL     1      30.097   2.952  55.000  1.00  0.00     0.160 HD
HETATM   33  H2  UNL     1      30.379   1.538  54.444  1.00  0.00     0.160 HD
HETATM   34  H3  UNL     1      27.005   1.930  55.403  1.00  0.00     0.170 HD
ENDBRANCH   1  28
TORSDOF 6
ENDMDL
MODEL 6
REMARK VINA RESULT:      -8.7      2.574      3.850
REMARK  6 active torsions:
REMARK  status: ('A' for Active; 'I' for Inactive)
REMARK       I    between atoms: N1_1  and  C1_2 
REMARK       I    between atoms: C1_2  and  N2_4 
REMARK    1  A    between atoms: N2_4  and  C2_5 
REMARK    2  A    between atoms: C7_12  and  N5_13 
REMARK    3  A    between atoms: N5_13  and  C8_14 
REMARK    4  A    between atoms: C11_17  and  O2_18 
REMARK    5  A    between atoms: O2_18  and  C12_19 
REMARK    6  A    between atoms: C12_19  and  C13_20 
ROOT
HETATM    1  C2  UNL     1      26.215   1.350  52.553  1.00  0.00     0.037 A 
HETATM    2  C3  UNL     1      25.082   1.064  53.272  1.00  0.00     0.032 A 
HETATM    3  C4  UNL     1      23.815   1.511  52.982  1.00  0.00     0.035 A 
HETATM    4  C5  UNL     1      23.703   2.324  51.853  1.00  0.00     0.072 A 
HETATM    5  N3  UNL     1      22.494   2.797  51.520  1.00  0.00    -0.241 NA
HETATM    6  C6  UNL     1      22.351   3.587  50.441  1.00  0.00     0.236 A 
HETATM    7  N4  UNL     1      23.391   3.938  49.655  1.00  0.00    -0.224 NA
HETATM    8  C7  UNL     1      24.644   3.477  49.957  1.00  0.00     0.142 A 
HETATM    9  C20 UNL     1      24.793   2.655  51.078  1.00  0.00     0.041 A 
HETATM   10  C21 UNL     1      26.018   2.153  51.458  1.00  0.00     0.047 A 
ENDROOT
BRANCH   8  11
HETATM   11  N5  UNL     1      25.854   3.738  49.279  1.00  0.00    -0.340 N 
HETATM   12  H7  UNL     1      26.209   2.817  48.928  1.00  0.00     0.167 HD
BRANCH  11  13
HETATM   13  C8  UNL     1      26.580   4.929  49.030  1.00  0.00     0.035 A 
HETATM   14  C9  UNL     1      27.860   4.935  48.526  1.00  0.00     0.032 A 
HETATM   15  C10 UNL     1      28.551   6.100  48.306  1.00  0.00     0.041 A 
HETATM   16  C11 UNL     1      27.962   7.318  48.595  1.00  0.00     0.091 A 
HETATM   17  C18 UNL     1      26.659   7.336  49.111  1.00  0.00     0.069 A 
HETATM   18 CL1  UNL     1      25.754   8.779  49.538  1.00  0.00    -0.081 Cl
HETATM   19  C19 UNL     1      25.978   6.130  49.323  1.00  0.00     0.056 A 
BRANCH  16  20
HETATM   20  O2  UNL     1      28.432   8.607  48.469  1.00  0.00    -0.345 OA
BRANCH  20  21
HETATM   21  C12 UNL     1      29.370   9.160  49.358  1.00  0.00     0.214 C 
BRANCH  21  22
HETATM   22  C13 UNL     1      30.737   8.706  49.066  1.00  0.00    -0.035 A 
HETATM   23  C14 UNL     1      31.703   7.937  49.607  1.00  0.00     0.023 A 
HETATM   24  C15 UNL     1      32.938   7.872  48.768  1.00  0.00     0.216 A 
HETATM   25  F1  UNL     1      33.192   6.598  48.335  1.00  0.00    -0.241 F 
HETATM   26  C16 UNL     1      32.529   8.743  47.634  1.00  0.00     0.014 A 
HETATM   27  C17 UNL     1      31.291   9.214  47.798  1.00  0.00     0.008 A 
ENDBRANCH  21  22
ENDBRANCH  20  21
ENDBRANCH  16  20
ENDBRANCH  11  13
ENDBRANCH   8  11
BRANCH   1  28
HETATM   28  N2  UNL     1      27.529   0.929  52.813  1.00  0.00    -0.309 N 
HETATM   29  C1  UNL     1      28.528   1.558  53.578  1.00  0.00     0.318 C 
HETATM   30  N1  UNL     1      29.864   1.268  53.921  1.00  0.00    -0.352 N 
HETATM   31  O1  UNL     1      28.254   2.667  54.138  1.00  0.00    -0.247 OA
HETATM   32  H1  UNL     1      30.479   0.587  54.411  1.00  0.00     0.160 HD
HETATM   33  H2  UNL     1      30.665   1.908  53.631  1.00  0.00     0.160 HD
HETATM   34  H3  UNL     1      27.914   0.049  52.436  1.00  0.00     0.170 HD
ENDBRANCH   1  28
TORSDOF 6
ENDMDL
MODEL 7
REMARK VINA RESULT:      -8.6      2.350      2.955
REMARK  6 active torsions:
REMARK  status: ('A' for Active; 'I' for Inactive)
REMARK       I    between atoms: N1_1  and  C1_2 
REMARK       I    between atoms: C1_2  and  N2_4 
REMARK    1  A    between atoms: N2_4  and  C2_5 
REMARK    2  A    between atoms: C7_12  and  N5_13 
REMARK    3  A    between atoms: N5_13  and  C8_14 
REMARK    4  A    between atoms: C11_17  and  O2_18 
REMARK    5  A    between atoms: O2_18  and  C12_19 
REMARK    6  A    between atoms: C12_19  and  C13_20 
ROOT
HETATM    1  C2  UNL     1      25.359  -0.080  53.849  1.00  0.00     0.037 A 
HETATM    2  C3  UNL     1      25.179  -0.841  54.976  1.00  0.00     0.032 A 
HETATM    3  C4  UNL     1      23.985  -1.374  55.403  1.00  0.00     0.035 A 
HETATM    4  C5  UNL     1      22.878  -1.100  54.598  1.00  0.00     0.072 A 
HETATM    5  N3  UNL     1      21.684  -1.586  54.962  1.00  0.00    -0.241 NA
HETATM    6  C6  UNL     1      20.596  -1.337  54.213  1.00  0.00     0.236 A 
HETATM    7  N4  UNL     1      20.646  -0.602  53.082  1.00  0.00    -0.224 NA
HETATM    8  C7  UNL     1      21.845  -0.085  52.671  1.00  0.00     0.142 A 
HETATM    9  C20 UNL     1      22.977  -0.344  53.449  1.00  0.00     0.041 A 
HETATM   10  C21 UNL     1      24.221   0.142  53.114  1.00  0.00     0.047 A 
ENDROOT
BRANCH   8  11
HETATM   11  N5  UNL     1      22.106   0.715  51.539  1.00  0.00    -0.340 N 
HETATM   12  H7  UNL     1      22.579   0.100  50.835  1.00  0.00     0.167 HD
BRANCH  11  13
HETATM   13  C8  UNL     1      21.851   2.077  51.243  1.00  0.00     0.035 A 
HETATM   14  C9  UNL     1      21.025   2.869  52.006  1.00  0.00     0.032 A 
HETATM   15  C10 UNL     1      20.781   4.183  51.694  1.00  0.00     0.041 A 
HETATM   16  C11 UNL     1      21.373   4.749  50.578  1.00  0.00     0.091 A 
HETATM   17  C18 UNL     1      22.218   3.961  49.785  1.00  0.00     0.069 A 
HETATM   18 CL1  UNL     1      23.051   4.503  48.338  1.00  0.00    -0.081 Cl
HETATM   19  C19 UNL     1      22.449   2.623  50.130  1.00  0.00     0.056 A 
BRANCH  16  20
HETATM   20  O2  UNL     1      21.292   6.021  50.054  1.00  0.00    -0.345 OA
BRANCH  20  21
HETATM   21  C12 UNL     1      21.720   7.159  50.762  1.00  0.00     0.214 C 
BRANCH  21  22
HETATM   22  C13 UNL     1      23.160   7.396  50.598  1.00  0.00    -0.035 A 
HETATM   23  C14 UNL     1      24.337   6.975  51.107  1.00  0.00     0.023 A 
HETATM   24  C15 UNL     1      25.518   7.643  50.479  1.00  0.00     0.216 A 
HETATM   25  F1  UNL     1      26.322   6.746  49.828  1.00  0.00    -0.241 F 
HETATM   26  C16 UNL     1      24.829   8.536  49.510  1.00  0.00     0.014 A 
HETATM   27  C17 UNL     1      23.502   8.399  49.574  1.00  0.00     0.008 A 
ENDBRANCH  21  22
ENDBRANCH  20  21
ENDBRANCH  16  20
ENDBRANCH  11  13
ENDBRANCH   8  11
BRANCH   1  28
HETATM   28  N2  UNL     1      26.549   0.495  53.378  1.00  0.00    -0.309 N 
HETATM   29  C1  UNL     1      27.058   1.788  53.594  1.00  0.00     0.318 C 
HETATM   30  N1  UNL     1      28.209   2.497  53.197  1.00  0.00    -0.352 N 
HETATM   31  O1  UNL     1      26.382   2.592  54.313  1.00  0.00    -0.247 OA
HETATM   32  H1  UNL     1      29.248   2.514  53.250  1.00  0.00     0.160 HD
HETATM   33  H2  UNL     1      28.143   3.380  52.604  1.00  0.00     0.160 HD
HETATM   34  H3  UNL     1      27.216  -0.020  52.783  1.00  0.00     0.170 HD
ENDBRANCH   1  28
TORSDOF 6
ENDMDL
MODEL 8
REMARK VINA RESULT:      -8.3      1.674      2.128
REMARK  6 active torsions:
REMARK  status: ('A' for Active; 'I' for Inactive)
REMARK       I    between atoms: N1_1  and  C1_2 
REMARK       I    between atoms: C1_2  and  N2_4 
REMARK    1  A    between atoms: N2_4  and  C2_5 
REMARK    2  A    between atoms: C7_12  and  N5_13 
REMARK    3  A    between atoms: N5_13  and  C8_14 
REMARK    4  A    between atoms: C11_17  and  O2_18 
REMARK    5  A    between atoms: O2_18  and  C12_19 
REMARK    6  A    between atoms: C12_19  and  C13_20 
ROOT
HETATM    1  C2  UNL     1      24.680   0.265  53.140  1.00  0.00     0.037 A 
HETATM    2  C3  UNL     1      23.595  -0.544  53.365  1.00  0.00     0.032 A 
HETATM    3  C4  UNL     1      22.277  -0.167  53.258  1.00  0.00     0.035 A 
HETATM    4  C5  UNL     1      22.055   1.159  52.886  1.00  0.00     0.072 A 
HETATM    5  N3  UNL     1      20.792   1.591  52.769  1.00  0.00    -0.241 NA
HETATM    6  C6  UNL     1      20.542   2.864  52.418  1.00  0.00     0.236 A 
HETATM    7  N4  UNL     1      21.525   3.755  52.170  1.00  0.00    -0.224 NA
HETATM    8  C7  UNL     1      22.830   3.359  52.276  1.00  0.00     0.142 A 
HETATM    9  C20 UNL     1      23.091   2.035  52.641  1.00  0.00     0.041 A 
HETATM   10  C21 UNL     1      24.375   1.554  52.777  1.00  0.00     0.047 A 
ENDROOT
BRANCH   8  11
HETATM   11  N5  UNL     1      23.994   4.132  52.076  1.00  0.00    -0.340 N 
HETATM   12  H7  UNL     1      24.560   4.060  52.954  1.00  0.00     0.167 HD
BRANCH  11  13
HETATM   13  C8  UNL     1      24.459   4.907  50.985  1.00  0.00     0.035 A 
HETATM   14  C9  UNL     1      23.796   6.017  50.516  1.00  0.00     0.032 A 
HETATM   15  C10 UNL     1      24.258   6.745  49.448  1.00  0.00     0.041 A 
HETATM   16  C11 UNL     1      25.424   6.367  48.806  1.00  0.00     0.091 A 
HETATM   17  C18 UNL     1      26.115   5.237  49.266  1.00  0.00     0.069 A 
HETATM   18 CL1  UNL     1      27.603   4.607  48.579  1.00  0.00    -0.081 Cl
HETATM   19  C19 UNL     1      25.621   4.515  50.360  1.00  0.00     0.056 A 
BRANCH  16  20
HETATM   20  O2  UNL     1      26.087   6.915  47.730  1.00  0.00    -0.345 OA
BRANCH  20  21
HETATM   21  C12 UNL     1      26.794   8.128  47.816  1.00  0.00     0.214 C 
BRANCH  21  22
HETATM   22  C13 UNL     1      28.197   7.975  47.410  1.00  0.00    -0.035 A 
HETATM   23  C14 UNL     1      29.389   7.628  47.938  1.00  0.00     0.023 A 
HETATM   24  C15 UNL     1      30.505   7.673  46.944  1.00  0.00     0.216 A 
HETATM   25  F1  UNL     1      31.063   6.438  46.751  1.00  0.00    -0.241 F 
HETATM   26  C16 UNL     1      29.759   8.110  45.734  1.00  0.00     0.014 A 
HETATM   27  C17 UNL     1      28.460   8.281  45.992  1.00  0.00     0.008 A 
ENDBRANCH  21  22
ENDBRANCH  20  21
ENDBRANCH  16  20
ENDBRANCH  11  13
ENDBRANCH   8  11
BRANCH   1  28
HETATM   28  N2  UNL     1      26.039  -0.066  53.246  1.00  0.00    -0.309 N 
HETATM   29  C1  UNL     1      26.888   0.013  54.365  1.00  0.00     0.318 C 
HETATM   30  N1  UNL     1      28.244  -0.274  54.622  1.00  0.00    -0.352 N 
HETATM   31  O1  UNL     1      26.405   0.438  55.463  1.00  0.00    -0.247 OA
HETATM   32  H1  UNL     1      28.956  -1.032  54.637  1.00  0.00     0.160 HD
HETATM   33  H2  UNL     1      28.926   0.486  54.928  1.00  0.00     0.160 HD
HETATM   34  H3  UNL     1      26.586  -0.428  52.450  1.00  0.00     0.170 HD
ENDBRANCH   1  28
TORSDOF 6
ENDMDL
MODEL 9
REMARK VINA RESULT:      -8.3      2.884      3.392
REMARK  6 active torsions:
REMARK  status: ('A' for Active; 'I' for Inactive)
REMARK       I    between atoms: N1_1  and  C1_2 
REMARK       I    between atoms: C1_2  and  N2_4 
REMARK    1  A    between atoms: N2_4  and  C2_5 
REMARK    2  A    between atoms: C7_12  and  N5_13 
REMARK    3  A    between atoms: N5_13  and  C8_14 
REMARK    4  A    between atoms: C11_17  and  O2_18 
REMARK    5  A    between atoms: O2_18  and  C12_19 
REMARK    6  A    between atoms: C12_19  and  C13_20 
ROOT
HETATM    1  C2  UNL     1      25.472  -0.573  54.494  1.00  0.00     0.037 A 
HETATM    2  C3  UNL     1      24.903  -1.231  55.554  1.00  0.00     0.032 A 
HETATM    3  C4  UNL     1      23.559  -1.464  55.725  1.00  0.00     0.035 A 
HETATM    4  C5  UNL     1      22.727  -0.980  54.715  1.00  0.00     0.072 A 
HETATM    5  N3  UNL     1      21.405  -1.171  54.824  1.00  0.00    -0.241 NA
HETATM    6  C6  UNL     1      20.575  -0.712  53.872  1.00  0.00     0.236 A 
HETATM    7  N4  UNL     1      21.015  -0.051  52.780  1.00  0.00    -0.224 NA
HETATM    8  C7  UNL     1      22.357   0.166  52.626  1.00  0.00     0.142 A 
HETATM    9  C20 UNL     1      23.222  -0.310  53.616  1.00  0.00     0.041 A 
HETATM   10  C21 UNL     1      24.586  -0.130  53.544  1.00  0.00     0.047 A 
ENDROOT
BRANCH   8  11
HETATM   11  N5  UNL     1      23.015   0.843  51.577  1.00  0.00    -0.340 N 
HETATM   12  H7  UNL     1      23.345   0.112  50.904  1.00  0.00     0.167 HD
BRANCH  11  13
HETATM   13  C8  UNL     1      23.267   2.215  51.325  1.00  0.00     0.035 A 
HETATM   14  C9  UNL     1      22.440   3.222  51.765  1.00  0.00     0.032 A 
HETATM   15  C10 UNL     1      22.695   4.544  51.497  1.00  0.00     0.041 A 
HETATM   16  C11 UNL     1      23.813   4.897  50.761  1.00  0.00     0.091 A 
HETATM   17  C18 UNL     1      24.669   3.886  50.301  1.00  0.00     0.069 A 
HETATM   18 CL1  UNL     1      26.126   4.141  49.355  1.00  0.00    -0.081 Cl
HETATM   19  C19 UNL     1      24.383   2.546  50.592  1.00  0.00     0.056 A 
BRANCH  16  20
HETATM   20  O2  UNL     1      24.286   6.128  50.362  1.00  0.00    -0.345 OA
BRANCH  20  21
HETATM   21  C12 UNL     1      23.871   7.329  50.963  1.00  0.00     0.214 C 
BRANCH  21  22
HETATM   22  C13 UNL     1      22.911   8.059  50.124  1.00  0.00    -0.035 A 
HETATM   23  C14 UNL     1      22.898   8.905  49.073  1.00  0.00     0.023 A 
HETATM   24  C15 UNL     1      21.518   9.311  48.667  1.00  0.00     0.216 A 
HETATM   25  F1  UNL     1      21.221   8.899  47.395  1.00  0.00    -0.241 F 
HETATM   26  C16 UNL     1      20.718   8.555  49.667  1.00  0.00     0.014 A 
HETATM   27  C17 UNL     1      21.498   7.849  50.488  1.00  0.00     0.008 A 
ENDBRANCH  21  22
ENDBRANCH  20  21
ENDBRANCH  16  20
ENDBRANCH  11  13
ENDBRANCH   8  11
BRANCH   1  28
HETATM   28  N2  UNL     1      26.832  -0.299  54.279  1.00  0.00    -0.309 N 
HETATM   29  C1  UNL     1      27.790  -1.051  53.574  1.00  0.00     0.318 C 
HETATM   30  N1  UNL     1      29.161  -0.912  53.280  1.00  0.00    -0.352 N 
HETATM   31  O1  UNL     1      27.424  -2.143  53.034  1.00  0.00    -0.247 OA
HETATM   32  H1  UNL     1      29.862  -0.314  52.799  1.00  0.00     0.160 HD
HETATM   33  H2  UNL     1      29.879  -1.622  53.621  1.00  0.00     0.160 HD
HETATM   34  H3  UNL     1      27.292   0.548  54.648  1.00  0.00     0.170 HD
ENDBRANCH   1  28
TORSDOF 6
ENDMDL
