MODEL 1
REMARK VINA RESULT:      -9.8      0.000      0.000
REMARK  4 active torsions:
REMARK  status: ('A' for Active; 'I' for Inactive)
REMARK    1  A    between atoms: C4_5  and  N1_6 
REMARK    2  A    between atoms: N1_6  and  C5_7 
REMARK    3  A    between atoms: C10_14  and  C11_15 
REMARK    4  A    between atoms: N5_18  and  C13_19 
ROOT
HETATM    1  C5  UNL     1      24.961   1.979  52.251  1.00  0.00     0.161 A 
HETATM    2  N2  UNL     1      23.998   1.303  52.380  1.00  0.00    -0.386 NA
HETATM    3  C6  UNL     1      22.966   0.509  52.620  1.00  0.00     0.295 A 
HETATM    4  N3  UNL     1      22.072   0.566  51.693  1.00  0.00    -0.264 NA
HETATM    5  C7  UNL     1      22.267   1.423  50.575  1.00  0.00     0.171 A 
HETATM    6  C8  UNL     1      22.858   2.335  49.743  1.00  0.00     0.024 A 
HETATM    7  C9  UNL     1      23.999   3.260  49.416  1.00  0.00    -0.016 A 
HETATM    8  C10 UNL     1      25.066   3.419  50.180  1.00  0.00    -0.041 A 
HETATM    9  C19 UNL     1      25.628   2.951  51.417  1.00  0.00     0.131 A 
ENDROOT
BRANCH   8  10
HETATM   10  C11 UNL     1      25.978   4.410  49.536  1.00  0.00     0.007 A 
HETATM   11  C12 UNL     1      27.221   4.236  48.940  1.00  0.00     0.152 A 
HETATM   12  N4  UNL     1      27.714   5.385  48.479  1.00  0.00    -0.184 NA
HETATM   13  N5  UNL     1      26.862   6.360  48.729  1.00  0.00    -0.276 N 
HETATM   14  C18 UNL     1      25.839   5.779  49.353  1.00  0.00     0.126 A 
BRANCH  13  15
HETATM   15  C13 UNL     1      27.000   7.758  48.401  1.00  0.00     0.113 C 
HETATM   16  C14 UNL     1      27.050   8.584  49.669  1.00  0.00     0.057 C 
HETATM   17  C15 UNL     1      28.251   9.477  49.616  1.00  0.00     0.271 C 
HETATM   18  N6  UNL     1      29.437   8.626  49.617  1.00  0.00     0.083 N 
HETATM   19  C16 UNL     1      29.495   7.878  48.388  1.00  0.00     0.271 C 
HETATM   20  H14 UNL     1      29.380   7.984  50.434  1.00  0.00     0.315 HD
HETATM   21  C17 UNL     1      28.246   8.005  47.573  1.00  0.00     0.057 C 
ENDBRANCH  13  15
ENDBRANCH   8  10
BRANCH   1  22
HETATM   22  N1  UNL     1      25.825   1.733  53.390  1.00  0.00    -0.334 N 
HETATM   23  H3  UNL     1      25.797   2.048  54.409  1.00  0.00     0.168 HD
BRANCH  22  24
HETATM   24  C4  UNL     1      27.012   0.965  53.466  1.00  0.00     0.035 A 
HETATM   25  C3  UNL     1      28.177   1.637  53.853  1.00  0.00     0.032 A 
HETATM   26  C2  UNL     1      29.388   0.944  53.954  1.00  0.00     0.046 A 
HETATM   27  C1  UNL     1      29.430  -0.421  53.667  1.00  0.00     0.138 A 
HETATM   28  F1  UNL     1      30.622  -1.096  53.768  1.00  0.00    -0.204 F 
HETATM   29  C21 UNL     1      28.302  -1.081  53.290  1.00  0.00     0.074 A 
HETATM   30  C20 UNL     1      27.105  -0.403  53.189  1.00  0.00     0.056 A 
HETATM   31 CL1  UNL     1      28.392  -2.789  52.939  1.00  0.00    -0.081 Cl
ENDBRANCH  22  24
ENDBRANCH   1  22
TORSDOF 4
ENDMDL
MODEL 2
REMARK VINA RESULT:      -9.7      1.269      1.567
REMARK  4 active torsions:
REMARK  status: ('A' for Active; 'I' for Inactive)
REMARK    1  A    between atoms: C4_5  and  N1_6 
REMARK    2  A    between atoms: N1_6  and  C5_7 
REMARK    3  A    between atoms: C10_14  and  C11_15 
REMARK    4  A    between atoms: N5_18  and  C13_19 
ROOT
HETATM    1  C5  UNL     1      24.010   1.521  51.919  1.00  0.00     0.161 A 
HETATM    2  N2  UNL     1      23.005   0.897  51.899  1.00  0.00    -0.386 NA
HETATM    3  C6  UNL     1      21.912   0.153  51.976  1.00  0.00     0.295 A 
HETATM    4  N3  UNL     1      21.136   0.307  50.958  1.00  0.00    -0.264 NA
HETATM    5  C7  UNL     1      21.505   1.204  49.919  1.00  0.00     0.171 A 
HETATM    6  C8  UNL     1      22.235   2.121  49.211  1.00  0.00     0.024 A 
HETATM    7  C9  UNL     1      23.453   2.993  49.068  1.00  0.00    -0.016 A 
HETATM    8  C10 UNL     1      24.430   3.053  49.956  1.00  0.00    -0.041 A 
HETATM    9  C19 UNL     1      24.819   2.493  51.221  1.00  0.00     0.131 A 
ENDROOT
BRANCH   8  10
HETATM   10  C11 UNL     1      25.461   4.020  49.476  1.00  0.00     0.007 A 
HETATM   11  C12 UNL     1      26.821   3.848  49.250  1.00  0.00     0.152 A 
HETATM   12  N4  UNL     1      27.397   4.970  48.818  1.00  0.00    -0.184 NA
HETATM   13  N5  UNL     1      26.490   5.923  48.732  1.00  0.00    -0.276 N 
HETATM   14  C18 UNL     1      25.349   5.357  49.121  1.00  0.00     0.126 A 
BRANCH  13  15
HETATM   15  C13 UNL     1      26.683   7.289  48.309  1.00  0.00     0.113 C 
HETATM   16  C14 UNL     1      26.786   8.195  49.517  1.00  0.00     0.057 C 
HETATM   17  C15 UNL     1      28.023   9.030  49.390  1.00  0.00     0.271 C 
HETATM   18  N6  UNL     1      29.171   8.130  49.435  1.00  0.00     0.083 N 
HETATM   19  C16 UNL     1      29.180   7.299  48.259  1.00  0.00     0.271 C 
HETATM   20  H14 UNL     1      29.099   7.547  50.294  1.00  0.00     0.315 HD
HETATM   21  C17 UNL     1      27.925   7.425  47.451  1.00  0.00     0.057 C 
ENDBRANCH  13  15
ENDBRANCH   8  10
BRANCH   1  22
HETATM   22  N1  UNL     1      24.721   1.170  53.133  1.00  0.00    -0.334 N 
HETATM   23  H3  UNL     1      24.437   1.136  54.161  1.00  0.00     0.168 HD
BRANCH  22  24
HETATM   24  C4  UNL     1      26.064   0.755  53.298  1.00  0.00     0.035 A 
HETATM   25  C3  UNL     1      26.379  -0.546  52.889  1.00  0.00     0.032 A 
HETATM   26  C2  UNL     1      27.687  -1.026  53.016  1.00  0.00     0.046 A 
HETATM   27  C1  UNL     1      28.677  -0.203  53.554  1.00  0.00     0.138 A 
HETATM   28  F1  UNL     1      29.959  -0.681  53.677  1.00  0.00    -0.204 F 
HETATM   29  C21 UNL     1      28.379   1.062  53.955  1.00  0.00     0.074 A 
HETATM   30  C20 UNL     1      27.091   1.541  53.831  1.00  0.00     0.056 A 
HETATM   31 CL1  UNL     1      29.642   2.064  54.623  1.00  0.00    -0.081 Cl
ENDBRANCH  22  24
ENDBRANCH   1  22
TORSDOF 4
ENDMDL
MODEL 3
REMARK VINA RESULT:      -9.6      2.568      3.556
REMARK  4 active torsions:
REMARK  status: ('A' for Active; 'I' for Inactive)
REMARK    1  A    between atoms: C4_5  and  N1_6 
REMARK    2  A    between atoms: N1_6  and  C5_7 
REMARK    3  A    between atoms: C10_14  and  C11_15 
REMARK    4  A    between atoms: N5_18  and  C13_19 
ROOT
HETATM    1  C5  UNL     1      23.722  -0.010  53.056  1.00  0.00     0.161 A 
HETATM    2  N2  UNL     1      23.128  -0.576  53.908  1.00  0.00    -0.386 NA
HETATM    3  C6  UNL     1      22.556  -1.271  54.880  1.00  0.00     0.295 A 
HETATM    4  N3  UNL     1      21.329  -0.927  55.078  1.00  0.00    -0.264 NA
HETATM    5  C7  UNL     1      20.747   0.100  54.287  1.00  0.00     0.171 A 
HETATM    6  C8  UNL     1      20.627   1.080  53.338  1.00  0.00     0.024 A 
HETATM    7  C9  UNL     1      21.221   1.906  52.229  1.00  0.00    -0.016 A 
HETATM    8  C10 UNL     1      22.465   1.783  51.798  1.00  0.00    -0.041 A 
HETATM    9  C19 UNL     1      23.656   1.018  52.044  1.00  0.00     0.131 A 
ENDROOT
BRANCH   8  10
HETATM   10  C11 UNL     1      22.693   2.763  50.696  1.00  0.00     0.007 A 
HETATM   11  C12 UNL     1      22.851   2.561  49.329  1.00  0.00     0.152 A 
HETATM   12  N4  UNL     1      23.036   3.709  48.678  1.00  0.00    -0.184 NA
HETATM   13  N5  UNL     1      23.013   4.709  49.537  1.00  0.00    -0.276 N 
HETATM   14  C18 UNL     1      22.810   4.145  50.726  1.00  0.00     0.126 A 
BRANCH  13  15
HETATM   15  C13 UNL     1      23.173   6.116  49.258  1.00  0.00     0.113 C 
HETATM   16  C14 UNL     1      22.812   6.931  50.482  1.00  0.00     0.057 C 
HETATM   17  C15 UNL     1      23.932   7.880  50.776  1.00  0.00     0.271 C 
HETATM   18  N6  UNL     1      25.106   7.087  51.126  1.00  0.00     0.083 N 
HETATM   19  C16 UNL     1      25.554   6.355  49.970  1.00  0.00     0.271 C 
HETATM   20  H14 UNL     1      24.845   6.434  51.894  1.00  0.00     0.315 HD
HETATM   21  C17 UNL     1      24.592   6.431  48.826  1.00  0.00     0.057 C 
ENDBRANCH  13  15
ENDBRANCH   8  10
BRANCH   1  22
HETATM   22  N1  UNL     1      25.056  -0.575  53.001  1.00  0.00    -0.334 N 
HETATM   23  H3  UNL     1      25.432  -1.533  52.717  1.00  0.00     0.168 HD
BRANCH  22  24
HETATM   24  C4  UNL     1      26.297   0.020  53.331  1.00  0.00     0.035 A 
HETATM   25  C3  UNL     1      26.278   1.378  53.672  1.00  0.00     0.032 A 
HETATM   26  C2  UNL     1      27.465   2.035  54.013  1.00  0.00     0.046 A 
HETATM   27  C1  UNL     1      28.669   1.331  54.012  1.00  0.00     0.138 A 
HETATM   28  F1  UNL     1      29.832   1.982  54.348  1.00  0.00    -0.204 F 
HETATM   29  C21 UNL     1      28.697   0.012  53.682  1.00  0.00     0.074 A 
HETATM   30  C20 UNL     1      27.529  -0.641  53.345  1.00  0.00     0.056 A 
HETATM   31 CL1  UNL     1      30.223  -0.836  53.692  1.00  0.00    -0.081 Cl
ENDBRANCH  22  24
ENDBRANCH   1  22
TORSDOF 4
ENDMDL
MODEL 4
REMARK VINA RESULT:      -9.5      4.960      7.604
REMARK  4 active torsions:
REMARK  status: ('A' for Active; 'I' for Inactive)
REMARK    1  A    between atoms: C4_5  and  N1_6 
REMARK    2  A    between atoms: N1_6  and  C5_7 
REMARK    3  A    between atoms: C10_14  and  C11_15 
REMARK    4  A    between atoms: N5_18  and  C13_19 
ROOT
HETATM    1  C5  UNL     1      20.876   0.452  51.374  1.00  0.00     0.161 A 
HETATM    2  N2  UNL     1      19.738   0.172  51.534  1.00  0.00    -0.386 NA
HETATM    3  C6  UNL     1      18.441  -0.085  51.618  1.00  0.00     0.295 A 
HETATM    4  N3  UNL     1      18.141  -0.781  52.661  1.00  0.00    -0.264 NA
HETATM    5  C7  UNL     1      19.166  -1.183  53.560  1.00  0.00     0.171 A 
HETATM    6  C8  UNL     1      20.414  -1.328  54.105  1.00  0.00     0.024 A 
HETATM    7  C9  UNL     1      21.897  -1.075  54.063  1.00  0.00    -0.016 A 
HETATM    8  C10 UNL     1      22.505  -0.389  53.111  1.00  0.00    -0.041 A 
HETATM    9  C19 UNL     1      22.216   0.325  51.898  1.00  0.00     0.131 A 
ENDROOT
BRANCH   8  10
HETATM   10  C11 UNL     1      23.967  -0.347  53.404  1.00  0.00     0.007 A 
HETATM   11  C12 UNL     1      24.688  -0.870  54.471  1.00  0.00     0.152 A 
HETATM   12  N4  UNL     1      25.991  -0.614  54.361  1.00  0.00    -0.184 NA
HETATM   13  N5  UNL     1      26.212   0.070  53.255  1.00  0.00    -0.276 N 
HETATM   14  C18 UNL     1      25.014   0.224  52.695  1.00  0.00     0.126 A 
BRANCH  13  15
HETATM   15  C13 UNL     1      27.476   0.550  52.753  1.00  0.00     0.113 C 
HETATM   16  C14 UNL     1      27.639   2.019  53.084  1.00  0.00     0.057 C 
HETATM   17  C15 UNL     1      28.962   2.219  53.755  1.00  0.00     0.271 C 
HETATM   18  N6  UNL     1      28.928   1.500  55.025  1.00  0.00     0.083 N 
HETATM   19  C16 UNL     1      28.865   0.084  54.776  1.00  0.00     0.271 C 
HETATM   20  H14 UNL     1      28.091   1.815  55.559  1.00  0.00     0.315 HD
HETATM   21  C17 UNL     1      28.632  -0.242  53.333  1.00  0.00     0.057 C 
ENDBRANCH  13  15
ENDBRANCH   8  10
BRANCH   1  22
HETATM   22  N1  UNL     1      20.966   1.248  50.165  1.00  0.00    -0.334 N 
HETATM   23  H3  UNL     1      20.574   1.126  49.180  1.00  0.00     0.168 HD
BRANCH  22  24
HETATM   24  C4  UNL     1      21.639   2.474  49.946  1.00  0.00     0.035 A 
HETATM   25  C3  UNL     1      22.664   2.472  48.992  1.00  0.00     0.032 A 
HETATM   26  C2  UNL     1      23.372   3.647  48.718  1.00  0.00     0.046 A 
HETATM   27  C1  UNL     1      23.054   4.821  49.401  1.00  0.00     0.138 A 
HETATM   28  F1  UNL     1      23.754   5.972  49.128  1.00  0.00    -0.204 F 
HETATM   29  C21 UNL     1      22.060   4.831  50.329  1.00  0.00     0.074 A 
HETATM   30  C20 UNL     1      21.358   3.676  50.603  1.00  0.00     0.056 A 
HETATM   31 CL1  UNL     1      21.689   6.319  51.164  1.00  0.00    -0.081 Cl
ENDBRANCH  22  24
ENDBRANCH   1  22
TORSDOF 4
ENDMDL
MODEL 5
REMARK VINA RESULT:      -9.3      2.236      2.927
REMARK  4 active torsions:
REMARK  status: ('A' for Active; 'I' for Inactive)
REMARK    1  A    between atoms: C4_5  and  N1_6 
REMARK    2  A    between atoms: N1_6  and  C5_7 
REMARK    3  A    between atoms: C10_14  and  C11_15 
REMARK    4  A    between atoms: N5_18  and  C13_19 
ROOT
HETATM    1  C5  UNL     1      24.200   0.028  53.272  1.00  0.00     0.161 A 
HETATM    2  N2  UNL     1      23.209  -0.349  53.798  1.00  0.00    -0.386 NA
HETATM    3  C6  UNL     1      22.162  -0.854  54.433  1.00  0.00     0.295 A 
HETATM    4  N3  UNL     1      21.077  -0.200  54.195  1.00  0.00    -0.264 NA
HETATM    5  C7  UNL     1      21.108   0.929  53.331  1.00  0.00     0.171 A 
HETATM    6  C8  UNL     1      21.599   1.888  52.487  1.00  0.00     0.024 A 
HETATM    7  C9  UNL     1      22.750   2.511  51.743  1.00  0.00    -0.016 A 
HETATM    8  C10 UNL     1      23.992   2.062  51.790  1.00  0.00    -0.041 A 
HETATM    9  C19 UNL     1      24.775   1.019  52.393  1.00  0.00     0.131 A 
ENDROOT
BRANCH   8  10
HETATM   10  C11 UNL     1      24.852   2.928  50.932  1.00  0.00     0.007 A 
HETATM   11  C12 UNL     1      26.215   2.866  50.668  1.00  0.00     0.152 A 
HETATM   12  N4  UNL     1      26.603   3.835  49.839  1.00  0.00    -0.184 NA
HETATM   13  N5  UNL     1      25.562   4.574  49.511  1.00  0.00    -0.276 N 
HETATM   14  C18 UNL     1      24.531   4.035  50.158  1.00  0.00     0.126 A 
BRANCH  13  15
HETATM   15  C13 UNL     1      25.537   5.723  48.638  1.00  0.00     0.113 C 
HETATM   16  C14 UNL     1      24.110   6.193  48.444  1.00  0.00     0.057 C 
HETATM   17  C15 UNL     1      24.043   7.661  48.736  1.00  0.00     0.271 C 
HETATM   18  N6  UNL     1      24.363   7.847  50.147  1.00  0.00     0.083 N 
HETATM   19  C16 UNL     1      25.742   7.501  50.379  1.00  0.00     0.271 C 
HETATM   20  H14 UNL     1      23.734   7.239  50.711  1.00  0.00     0.315 HD
HETATM   21  C17 UNL     1      26.384   6.851  49.192  1.00  0.00     0.057 C 
ENDBRANCH  13  15
ENDBRANCH   8  10
BRANCH   1  22
HETATM   22  N1  UNL     1      25.273  -0.866  53.666  1.00  0.00    -0.334 N 
HETATM   23  H3  UNL     1      25.290  -1.862  54.048  1.00  0.00     0.168 HD
BRANCH  22  24
HETATM   24  C4  UNL     1      26.671  -0.648  53.651  1.00  0.00     0.035 A 
HETATM   25  C3  UNL     1      27.463  -1.656  53.088  1.00  0.00     0.032 A 
HETATM   26  C2  UNL     1      28.854  -1.511  53.034  1.00  0.00     0.046 A 
HETATM   27  C1  UNL     1      29.449  -0.358  53.547  1.00  0.00     0.138 A 
HETATM   28  F1  UNL     1      30.815  -0.221  53.492  1.00  0.00    -0.204 F 
HETATM   29  C21 UNL     1      28.687   0.626  54.097  1.00  0.00     0.074 A 
HETATM   30  C20 UNL     1      27.315   0.488  54.151  1.00  0.00     0.056 A 
HETATM   31 CL1  UNL     1      29.466   2.055  54.728  1.00  0.00    -0.081 Cl
ENDBRANCH  22  24
ENDBRANCH   1  22
TORSDOF 4
ENDMDL
MODEL 6
REMARK VINA RESULT:      -9.3      2.592      3.365
REMARK  4 active torsions:
REMARK  status: ('A' for Active; 'I' for Inactive)
REMARK    1  A    between atoms: C4_5  and  N1_6 
REMARK    2  A    between atoms: N1_6  and  C5_7 
REMARK    3  A    between atoms: C10_14  and  C11_15 
REMARK    4  A    between atoms: N5_18  and  C13_19 
ROOT
HETATM    1  C5  UNL     1      23.682   4.576  51.469  1.00  0.00     0.161 A 
HETATM    2  N2  UNL     1      22.506   4.686  51.414  1.00  0.00    -0.386 NA
HETATM    3  C6  UNL     1      21.184   4.764  51.456  1.00  0.00     0.295 A 
HETATM    4  N3  UNL     1      20.683   5.253  50.373  1.00  0.00    -0.264 NA
HETATM    5  C7  UNL     1      21.543   5.637  49.308  1.00  0.00     0.171 A 
HETATM    6  C8  UNL     1      22.694   5.852  48.600  1.00  0.00     0.024 A 
HETATM    7  C9  UNL     1      24.194   5.794  48.492  1.00  0.00    -0.016 A 
HETATM    8  C10 UNL     1      24.988   5.340  49.447  1.00  0.00    -0.041 A 
HETATM    9  C19 UNL     1      24.930   4.788  50.773  1.00  0.00     0.131 A 
ENDROOT
BRANCH   8  10
HETATM   10  C11 UNL     1      26.403   5.436  48.985  1.00  0.00     0.007 A 
HETATM   11  C12 UNL     1      27.379   4.454  48.860  1.00  0.00     0.152 A 
HETATM   12  N4  UNL     1      28.529   4.954  48.407  1.00  0.00    -0.184 NA
HETATM   13  N5  UNL     1      28.396   6.250  48.208  1.00  0.00    -0.276 N 
HETATM   14  C18 UNL     1      27.139   6.529  48.550  1.00  0.00     0.126 A 
BRANCH  13  15
HETATM   15  C13 UNL     1      29.391   7.175  47.724  1.00  0.00     0.113 C 
HETATM   16  C14 UNL     1      29.433   8.401  48.611  1.00  0.00     0.057 C 
HETATM   17  C15 UNL     1      30.850   8.645  49.031  1.00  0.00     0.271 C 
HETATM   18  N6  UNL     1      31.269   7.513  49.851  1.00  0.00     0.083 N 
HETATM   19  C16 UNL     1      31.338   6.327  49.039  1.00  0.00     0.271 C 
HETATM   20  H14 UNL     1      30.578   7.390  50.620  1.00  0.00     0.315 HD
HETATM   21  C17 UNL     1      30.761   6.527  47.671  1.00  0.00     0.057 C 
ENDBRANCH  13  15
ENDBRANCH   8  10
BRANCH   1  22
HETATM   22  N1  UNL     1      24.009   3.990  52.756  1.00  0.00    -0.334 N 
HETATM   23  H3  UNL     1      24.096   4.392  53.740  1.00  0.00     0.168 HD
BRANCH  22  24
HETATM   24  C4  UNL     1      24.320   2.647  53.076  1.00  0.00     0.035 A 
HETATM   25  C3  UNL     1      25.611   2.392  53.552  1.00  0.00     0.032 A 
HETATM   26  C2  UNL     1      25.991   1.090  53.893  1.00  0.00     0.046 A 
HETATM   27  C1  UNL     1      25.077   0.044  53.756  1.00  0.00     0.138 A 
HETATM   28  F1  UNL     1      25.456  -1.233  54.092  1.00  0.00    -0.204 F 
HETATM   29  C21 UNL     1      23.821   0.283  53.293  1.00  0.00     0.074 A 
HETATM   30  C20 UNL     1      23.440   1.566  52.956  1.00  0.00     0.056 A 
HETATM   31 CL1  UNL     1      22.704  -1.049  53.134  1.00  0.00    -0.081 Cl
ENDBRANCH  22  24
ENDBRANCH   1  22
TORSDOF 4
ENDMDL
MODEL 7
REMARK VINA RESULT:      -9.3      1.907      2.472
REMARK  4 active torsions:
REMARK  status: ('A' for Active; 'I' for Inactive)
REMARK    1  A    between atoms: C4_5  and  N1_6 
REMARK    2  A    between atoms: N1_6  and  C5_7 
REMARK    3  A    between atoms: C10_14  and  C11_15 
REMARK    4  A    between atoms: N5_18  and  C13_19 
ROOT
HETATM    1  C5  UNL     1      23.998   3.792  51.797  1.00  0.00     0.161 A 
HETATM    2  N2  UNL     1      22.818   3.780  51.880  1.00  0.00    -0.386 NA
HETATM    3  C6  UNL     1      21.509   3.714  52.073  1.00  0.00     0.295 A 
HETATM    4  N3  UNL     1      20.839   4.230  51.098  1.00  0.00    -0.264 NA
HETATM    5  C7  UNL     1      21.527   4.785  49.985  1.00  0.00     0.171 A 
HETATM    6  C8  UNL     1      22.561   5.175  49.177  1.00  0.00     0.024 A 
HETATM    7  C9  UNL     1      24.037   5.284  48.903  1.00  0.00    -0.016 A 
HETATM    8  C10 UNL     1      24.977   4.844  49.721  1.00  0.00    -0.041 A 
HETATM    9  C19 UNL     1      25.128   4.187  50.991  1.00  0.00     0.131 A 
ENDROOT
BRANCH   8  10
HETATM   10  C11 UNL     1      26.313   5.125  49.118  1.00  0.00     0.007 A 
HETATM   11  C12 UNL     1      27.405   4.289  48.917  1.00  0.00     0.152 A 
HETATM   12  N4  UNL     1      28.421   4.931  48.341  1.00  0.00    -0.184 NA
HETATM   13  N5  UNL     1      28.081   6.187  48.129  1.00  0.00    -0.276 N 
HETATM   14  C18 UNL     1      26.837   6.296  48.589  1.00  0.00     0.126 A 
BRANCH  13  15
HETATM   15  C13 UNL     1      28.881   7.227  47.528  1.00  0.00     0.113 C 
HETATM   16  C14 UNL     1      28.657   8.537  48.255  1.00  0.00     0.057 C 
HETATM   17  C15 UNL     1      29.986   9.111  48.635  1.00  0.00     0.271 C 
HETATM   18  N6  UNL     1      30.608   8.198  49.588  1.00  0.00     0.083 N 
HETATM   19  C16 UNL     1      30.930   6.959  48.930  1.00  0.00     0.271 C 
HETATM   20  H14 UNL     1      29.940   8.033  50.370  1.00  0.00     0.315 HD
HETATM   21  C17 UNL     1      30.354   6.868  47.551  1.00  0.00     0.057 C 
ENDBRANCH  13  15
ENDBRANCH   8  10
BRANCH   1  22
HETATM   22  N1  UNL     1      24.528   3.145  52.983  1.00  0.00    -0.334 N 
HETATM   23  H3  UNL     1      24.375   3.298  54.028  1.00  0.00     0.168 HD
BRANCH  22  24
HETATM   24  C4  UNL     1      25.446   2.073  53.085  1.00  0.00     0.035 A 
HETATM   25  C3  UNL     1      25.033   0.834  52.581  1.00  0.00     0.032 A 
HETATM   26  C2  UNL     1      25.888  -0.272  52.643  1.00  0.00     0.046 A 
HETATM   27  C1  UNL     1      27.155  -0.135  53.211  1.00  0.00     0.138 A 
HETATM   28  F1  UNL     1      27.990  -1.224  53.269  1.00  0.00    -0.204 F 
HETATM   29  C21 UNL     1      27.564   1.065  53.703  1.00  0.00     0.074 A 
HETATM   30  C20 UNL     1      26.725   2.159  53.644  1.00  0.00     0.056 A 
HETATM   31 CL1  UNL     1      29.157   1.200  54.405  1.00  0.00    -0.081 Cl
ENDBRANCH  22  24
ENDBRANCH   1  22
TORSDOF 4
ENDMDL
MODEL 8
REMARK VINA RESULT:      -9.1      3.245      4.935
REMARK  4 active torsions:
REMARK  status: ('A' for Active; 'I' for Inactive)
REMARK    1  A    between atoms: C4_5  and  N1_6 
REMARK    2  A    between atoms: N1_6  and  C5_7 
REMARK    3  A    between atoms: C10_14  and  C11_15 
REMARK    4  A    between atoms: N5_18  and  C13_19 
ROOT
HETATM    1  C5  UNL     1      26.207   4.152  49.334  1.00  0.00     0.161 A 
HETATM    2  N2  UNL     1      25.044   4.357  49.406  1.00  0.00    -0.386 NA
HETATM    3  C6  UNL     1      23.731   4.482  49.530  1.00  0.00     0.295 A 
HETATM    4  N3  UNL     1      23.303   5.629  49.126  1.00  0.00    -0.264 NA
HETATM    5  C7  UNL     1      24.223   6.589  48.623  1.00  0.00     0.171 A 
HETATM    6  C8  UNL     1      25.410   7.155  48.242  1.00  0.00     0.024 A 
HETATM    7  C9  UNL     1      26.904   7.076  48.081  1.00  0.00    -0.016 A 
HETATM    8  C10 UNL     1      27.631   6.022  48.410  1.00  0.00    -0.041 A 
HETATM    9  C19 UNL     1      27.488   4.700  48.956  1.00  0.00     0.131 A 
ENDROOT
BRANCH   8  10
HETATM   10  C11 UNL     1      29.064   6.310  48.111  1.00  0.00     0.007 A 
HETATM   11  C12 UNL     1      29.683   7.490  47.717  1.00  0.00     0.152 A 
HETATM   12  N4  UNL     1      30.995   7.329  47.550  1.00  0.00    -0.184 NA
HETATM   13  N5  UNL     1      31.321   6.079  47.813  1.00  0.00    -0.276 N 
HETATM   14  C18 UNL     1      30.177   5.482  48.145  1.00  0.00     0.126 A 
BRANCH  13  15
HETATM   15  C13 UNL     1      32.631   5.478  47.758  1.00  0.00     0.113 C 
HETATM   16  C14 UNL     1      32.513   3.971  47.835  1.00  0.00     0.057 C 
HETATM   17  C15 UNL     1      33.281   3.368  46.700  1.00  0.00     0.271 C 
HETATM   18  N6  UNL     1      32.635   3.781  45.458  1.00  0.00     0.083 N 
HETATM   19  C16 UNL     1      32.793   5.201  45.281  1.00  0.00     0.271 C 
HETATM   20  H14 UNL     1      31.626   3.530  45.513  1.00  0.00     0.315 HD
HETATM   21  C17 UNL     1      33.362   5.876  46.490  1.00  0.00     0.057 C 
ENDBRANCH  13  15
ENDBRANCH   8  10
BRANCH   1  22
HETATM   22  N1  UNL     1      26.446   2.805  49.816  1.00  0.00    -0.334 N 
HETATM   23  H3  UNL     1      26.774   1.907  49.341  1.00  0.00     0.168 HD
BRANCH  22  24
HETATM   24  C4  UNL     1      26.300   2.281  51.123  1.00  0.00     0.035 A 
HETATM   25  C3  UNL     1      27.366   2.483  52.008  1.00  0.00     0.032 A 
HETATM   26  C2  UNL     1      27.294   1.997  53.318  1.00  0.00     0.046 A 
HETATM   27  C1  UNL     1      26.155   1.310  53.739  1.00  0.00     0.138 A 
HETATM   28  F1  UNL     1      26.090   0.835  55.027  1.00  0.00    -0.204 F 
HETATM   29  C21 UNL     1      25.115   1.110  52.885  1.00  0.00     0.074 A 
HETATM   30  C20 UNL     1      25.181   1.587  51.592  1.00  0.00     0.056 A 
HETATM   31 CL1  UNL     1      23.706   0.246  53.446  1.00  0.00    -0.081 Cl
ENDBRANCH  22  24
ENDBRANCH   1  22
TORSDOF 4
ENDMDL
MODEL 9
REMARK VINA RESULT:      -9.0      3.795      5.718
REMARK  4 active torsions:
REMARK  status: ('A' for Active; 'I' for Inactive)
REMARK    1  A    between atoms: C4_5  and  N1_6 
REMARK    2  A    between atoms: N1_6  and  C5_7 
REMARK    3  A    between atoms: C10_14  and  C11_15 
REMARK    4  A    between atoms: N5_18  and  C13_19 
ROOT
HETATM    1  C5  UNL     1      23.529   0.964  53.040  1.00  0.00     0.161 A 
HETATM    2  N2  UNL     1      24.147   0.116  53.587  1.00  0.00    -0.386 NA
HETATM    3  C6  UNL     1      24.745  -0.856  54.258  1.00  0.00     0.295 A 
HETATM    4  N3  UNL     1      25.984  -0.994  53.930  1.00  0.00    -0.264 NA
HETATM    5  C7  UNL     1      26.551  -0.145  52.941  1.00  0.00     0.171 A 
HETATM    6  C8  UNL     1      26.649   0.842  51.998  1.00  0.00     0.024 A 
HETATM    7  C9  UNL     1      26.026   1.956  51.200  1.00  0.00    -0.016 A 
HETATM    8  C10 UNL     1      24.764   2.333  51.315  1.00  0.00    -0.041 A 
HETATM    9  C19 UNL     1      23.571   2.014  52.049  1.00  0.00     0.131 A 
ENDROOT
BRANCH   8  10
HETATM   10  C11 UNL     1      24.508   3.460  50.371  1.00  0.00     0.007 A 
HETATM   11  C12 UNL     1      23.828   3.483  49.159  1.00  0.00     0.152 A 
HETATM   12  N4  UNL     1      23.823   4.701  48.617  1.00  0.00    -0.184 NA
HETATM   13  N5  UNL     1      24.474   5.534  49.405  1.00  0.00    -0.276 N 
HETATM   14  C18 UNL     1      24.876   4.796  50.438  1.00  0.00     0.126 A 
BRANCH  13  15
HETATM   15  C13 UNL     1      24.706   6.943  49.200  1.00  0.00     0.113 C 
HETATM   16  C14 UNL     1      25.383   7.538  50.416  1.00  0.00     0.057 C 
HETATM   17  C15 UNL     1      26.600   8.290  49.972  1.00  0.00     0.271 C 
HETATM   18  N6  UNL     1      27.532   7.324  49.398  1.00  0.00     0.083 N 
HETATM   19  C16 UNL     1      26.981   6.787  48.181  1.00  0.00     0.271 C 
HETATM   20  H14 UNL     1      27.690   6.566  50.093  1.00  0.00     0.315 HD
HETATM   21  C17 UNL     1      25.553   7.184  47.966  1.00  0.00     0.057 C 
ENDBRANCH  13  15
ENDBRANCH   8  10
BRANCH   1  22
HETATM   22  N1  UNL     1      22.183   0.946  53.583  1.00  0.00    -0.334 N 
HETATM   23  H3  UNL     1      21.771   1.248  54.520  1.00  0.00     0.168 HD
BRANCH  22  24
HETATM   24  C4  UNL     1      20.981   0.497  52.987  1.00  0.00     0.035 A 
HETATM   25  C3  UNL     1      20.668   1.014  51.724  1.00  0.00     0.032 A 
HETATM   26  C2  UNL     1      19.498   0.614  51.070  1.00  0.00     0.046 A 
HETATM   27  C1  UNL     1      18.643  -0.303  51.681  1.00  0.00     0.138 A 
HETATM   28  F1  UNL     1      17.496  -0.692  51.034  1.00  0.00    -0.204 F 
HETATM   29  C21 UNL     1      18.940  -0.810  52.908  1.00  0.00     0.074 A 
HETATM   30  C20 UNL     1      20.092  -0.420  53.558  1.00  0.00     0.056 A 
HETATM   31 CL1  UNL     1      17.846  -1.956  53.643  1.00  0.00    -0.081 Cl
ENDBRANCH  22  24
ENDBRANCH   1  22
TORSDOF 4
ENDMDL
