MODEL 1
REMARK VINA RESULT:      -7.9      0.000      0.000
REMARK  3 active torsions:
REMARK  status: ('A' for Active; 'I' for Inactive)
REMARK    1  A    between atoms: O1_2  and  C2_3 
REMARK    2  A    between atoms: N2_15  and  C13_16 
REMARK    3  A    between atoms: C14_18  and  O2_19 
ROOT
HETATM    1  C2  UNL     1      22.899   5.419  50.206  1.00  0.00     0.043 C 
HETATM    2  C3  UNL     1      23.590   4.952  49.131  1.00  0.00     0.023 C 
HETATM    3  C4  UNL     1      24.070   3.639  49.664  1.00  0.00     0.017 A 
HETATM    4  C5  UNL     1      25.236   4.284  49.967  1.00  0.00    -0.028 A 
HETATM    5  C6  UNL     1      25.184   3.157  50.717  1.00  0.00     0.041 A 
HETATM    6  C7  UNL     1      24.208   2.235  50.728  1.00  0.00     0.025 A 
HETATM    7  C8  UNL     1      23.023   1.729  50.308  1.00  0.00    -0.015 A 
HETATM    8  C9  UNL     1      22.996   2.848  49.518  1.00  0.00    -0.012 A 
HETATM    9  C10 UNL     1      24.428   1.462  52.013  1.00  0.00     0.132 C 
HETATM   10  C11 UNL     1      23.163   1.895  52.844  1.00  0.00     0.085 C 
HETATM   11  C12 UNL     1      23.443   3.397  52.696  1.00  0.00     0.035 C 
HETATM   12  N1  UNL     1      24.684   3.394  52.984  1.00  0.00    -0.179 NA
HETATM   13  N2  UNL     1      25.357   2.194  52.894  1.00  0.00    -0.240 N 
HETATM   14  C16 UNL     1      22.264   4.164  52.334  1.00  0.00     0.063 C 
HETATM   15  C17 UNL     1      22.334   5.416  51.547  1.00  0.00     0.070 C 
ENDROOT
BRANCH  13  16
HETATM   16  C13 UNL     1      26.573   1.807  53.483  1.00  0.00     0.192 A 
HETATM   17  N3  UNL     1      27.683   2.355  53.853  1.00  0.00    -0.198 NA
HETATM   18  C14 UNL     1      28.603   1.569  54.390  1.00  0.00     0.171 A 
HETATM   19  C15 UNL     1      28.441   0.165  54.582  1.00  0.00     0.111 A 
HETATM   20  S1  UNL     1      26.735  -0.037  53.894  1.00  0.00    -0.058 SA
BRANCH  18  21
HETATM   21  O2  UNL     1      29.727   2.363  54.721  1.00  0.00    -0.344 OA
HETATM   22  H12 UNL     1      30.218   2.242  55.597  1.00  0.00     0.219 HD
ENDBRANCH  18  21
ENDBRANCH  13  16
BRANCH   1  23
HETATM   23  O1  UNL     1      22.469   6.670  49.673  1.00  0.00    -0.360 OA
HETATM   24  C1  UNL     1      21.640   7.510  50.458  1.00  0.00     0.209 C 
ENDBRANCH   1  23
TORSDOF 3
ENDMDL
MODEL 2
REMARK VINA RESULT:      -7.8      2.665      3.880
REMARK  3 active torsions:
REMARK  status: ('A' for Active; 'I' for Inactive)
REMARK    1  A    between atoms: O1_2  and  C2_3 
REMARK    2  A    between atoms: N2_15  and  C13_16 
REMARK    3  A    between atoms: C14_18  and  O2_19 
ROOT
HETATM    1  C2  UNL     1      22.724   2.151  50.593  1.00  0.00     0.043 C 
HETATM    2  C3  UNL     1      22.135   1.741  51.749  1.00  0.00     0.023 C 
HETATM    3  C4  UNL     1      23.323   1.690  52.658  1.00  0.00     0.017 A 
HETATM    4  C5  UNL     1      23.382   0.355  52.369  1.00  0.00    -0.028 A 
HETATM    5  C6  UNL     1      24.594   0.725  52.845  1.00  0.00     0.041 A 
HETATM    6  C7  UNL     1      24.968   1.951  53.249  1.00  0.00     0.025 A 
HETATM    7  C8  UNL     1      24.735   3.265  53.484  1.00  0.00    -0.015 A 
HETATM    8  C9  UNL     1      23.483   2.974  53.009  1.00  0.00    -0.012 A 
HETATM    9  C10 UNL     1      26.482   1.906  53.254  1.00  0.00     0.132 C 
HETATM   10  C11 UNL     1      26.815   2.885  52.067  1.00  0.00     0.085 C 
HETATM   11  C12 UNL     1      25.944   2.129  51.053  1.00  0.00     0.035 C 
HETATM   12  N1  UNL     1      26.335   0.943  51.306  1.00  0.00    -0.179 NA
HETATM   13  N2  UNL     1      26.959   0.721  52.515  1.00  0.00    -0.240 N 
HETATM   14  C16 UNL     1      25.103   3.006  50.258  1.00  0.00     0.063 C 
HETATM   15  C17 UNL     1      23.796   2.581  49.708  1.00  0.00     0.070 C 
ENDROOT
BRANCH  13  16
HETATM   16  C13 UNL     1      27.799  -0.335  52.904  1.00  0.00     0.192 A 
HETATM   17  N3  UNL     1      27.777  -1.627  52.931  1.00  0.00    -0.198 NA
HETATM   18  C14 UNL     1      28.845  -2.247  53.405  1.00  0.00     0.171 A 
HETATM   19  C15 UNL     1      30.011  -1.578  53.883  1.00  0.00     0.111 A 
HETATM   20  S1  UNL     1      29.485   0.175  53.609  1.00  0.00    -0.058 SA
BRANCH  18  21
HETATM   21  O2  UNL     1      28.613  -3.642  53.346  1.00  0.00    -0.344 OA
HETATM   22  H12 UNL     1      29.183  -4.247  52.770  1.00  0.00     0.219 HD
ENDBRANCH  18  21
ENDBRANCH  13  16
BRANCH   1  23
HETATM   23  O1  UNL     1      21.575   2.175  49.749  1.00  0.00    -0.360 OA
HETATM   24  C1  UNL     1      20.984   0.951  49.347  1.00  0.00     0.209 C 
ENDBRANCH   1  23
TORSDOF 3
ENDMDL
MODEL 3
REMARK VINA RESULT:      -7.6      2.064      2.270
REMARK  3 active torsions:
REMARK  status: ('A' for Active; 'I' for Inactive)
REMARK    1  A    between atoms: O1_2  and  C2_3 
REMARK    2  A    between atoms: N2_15  and  C13_16 
REMARK    3  A    between atoms: C14_18  and  O2_19 
ROOT
HETATM    1  C2  UNL     1      24.695   6.141  50.302  1.00  0.00     0.043 C 
HETATM    2  C3  UNL     1      25.170   5.677  49.115  1.00  0.00     0.023 C 
HETATM    3  C4  UNL     1      24.992   4.204  49.305  1.00  0.00     0.017 A 
HETATM    4  C5  UNL     1      26.303   4.180  49.688  1.00  0.00    -0.028 A 
HETATM    5  C6  UNL     1      25.718   3.053  50.160  1.00  0.00     0.041 A 
HETATM    6  C7  UNL     1      24.437   2.681  50.008  1.00  0.00     0.025 A 
HETATM    7  C8  UNL     1      23.176   2.860  49.543  1.00  0.00    -0.015 A 
HETATM    8  C9  UNL     1      23.690   4.025  49.035  1.00  0.00    -0.012 A 
HETATM    9  C10 UNL     1      24.220   1.618  51.067  1.00  0.00     0.132 C 
HETATM   10  C11 UNL     1      23.230   2.362  52.038  1.00  0.00     0.085 C 
HETATM   11  C12 UNL     1      24.150   3.576  52.227  1.00  0.00     0.035 C 
HETATM   12  N1  UNL     1      25.244   2.960  52.443  1.00  0.00    -0.179 NA
HETATM   13  N2  UNL     1      25.324   1.642  52.045  1.00  0.00    -0.240 N 
HETATM   14  C16 UNL     1      23.452   4.844  52.112  1.00  0.00     0.063 C 
HETATM   15  C17 UNL     1      24.110   6.080  51.633  1.00  0.00     0.070 C 
ENDROOT
BRANCH  13  16
HETATM   16  C13 UNL     1      26.210   0.636  52.465  1.00  0.00     0.192 A 
HETATM   17  N3  UNL     1      26.286  -0.654  52.442  1.00  0.00    -0.198 NA
HETATM   18  C14 UNL     1      27.357  -1.212  52.983  1.00  0.00     0.171 A 
HETATM   19  C15 UNL     1      28.424  -0.479  53.583  1.00  0.00     0.111 A 
HETATM   20  S1  UNL     1      27.786   1.240  53.330  1.00  0.00    -0.058 SA
BRANCH  18  21
HETATM   21  O2  UNL     1      27.241  -2.617  52.852  1.00  0.00    -0.344 OA
HETATM   22  H12 UNL     1      26.356  -3.087  52.992  1.00  0.00     0.219 HD
ENDBRANCH  18  21
ENDBRANCH  13  16
BRANCH   1  23
HETATM   23  O1  UNL     1      24.891   7.538  50.095  1.00  0.00    -0.360 OA
HETATM   24  C1  UNL     1      26.211   8.054  50.047  1.00  0.00     0.209 C 
ENDBRANCH   1  23
TORSDOF 3
ENDMDL
MODEL 4
REMARK VINA RESULT:      -7.3      2.953      6.499
REMARK  3 active torsions:
REMARK  status: ('A' for Active; 'I' for Inactive)
REMARK    1  A    between atoms: O1_2  and  C2_3 
REMARK    2  A    between atoms: N2_15  and  C13_16 
REMARK    3  A    between atoms: C14_18  and  O2_19 
ROOT
HETATM    1  C2  UNL     1      26.118  -0.123  53.041  1.00  0.00     0.043 C 
HETATM    2  C3  UNL     1      27.070   0.837  52.887  1.00  0.00     0.023 C 
HETATM    3  C4  UNL     1      26.219   2.009  52.512  1.00  0.00     0.017 A 
HETATM    4  C5  UNL     1      26.510   1.698  51.213  1.00  0.00    -0.028 A 
HETATM    5  C6  UNL     1      25.398   2.471  51.210  1.00  0.00     0.041 A 
HETATM    6  C7  UNL     1      24.772   2.997  52.276  1.00  0.00     0.025 A 
HETATM    7  C8  UNL     1      24.634   3.212  53.607  1.00  0.00    -0.015 A 
HETATM    8  C9  UNL     1      25.757   2.433  53.698  1.00  0.00    -0.012 A 
HETATM    9  C10 UNL     1      23.397   3.374  51.764  1.00  0.00     0.132 C 
HETATM   10  C11 UNL     1      22.496   2.341  52.536  1.00  0.00     0.085 C 
HETATM   11  C12 UNL     1      23.282   1.118  52.042  1.00  0.00     0.035 C 
HETATM   12  N1  UNL     1      23.355   1.419  50.806  1.00  0.00    -0.179 NA
HETATM   13  N2  UNL     1      23.148   2.737  50.457  1.00  0.00    -0.240 N 
HETATM   14  C16 UNL     1      23.585   0.170  53.099  1.00  0.00     0.063 C 
HETATM   15  C17 UNL     1      24.783  -0.700  53.075  1.00  0.00     0.070 C 
ENDROOT
BRANCH  13  16
HETATM   16  C13 UNL     1      22.802   3.286  49.211  1.00  0.00     0.192 A 
HETATM   17  N3  UNL     1      22.848   4.431  48.614  1.00  0.00    -0.198 NA
HETATM   18  C14 UNL     1      22.387   4.493  47.375  1.00  0.00     0.171 A 
HETATM   19  C15 UNL     1      21.848   3.378  46.666  1.00  0.00     0.111 A 
HETATM   20  S1  UNL     1      22.034   2.076  47.967  1.00  0.00    -0.058 SA
BRANCH  18  21
HETATM   21  O2  UNL     1      22.530   5.823  46.914  1.00  0.00    -0.344 OA
HETATM   22  H12 UNL     1      21.934   6.195  46.186  1.00  0.00     0.219 HD
ENDBRANCH  18  21
ENDBRANCH  13  16
BRANCH   1  23
HETATM   23  O1  UNL     1      26.958  -1.223  53.381  1.00  0.00    -0.360 OA
HETATM   24  C1  UNL     1      28.366  -1.071  53.305  1.00  0.00     0.209 C 
ENDBRANCH   1  23
TORSDOF 3
ENDMDL
MODEL 5
REMARK VINA RESULT:      -7.3      2.076      2.538
REMARK  3 active torsions:
REMARK  status: ('A' for Active; 'I' for Inactive)
REMARK    1  A    between atoms: O1_2  and  C2_3 
REMARK    2  A    between atoms: N2_15  and  C13_16 
REMARK    3  A    between atoms: C14_18  and  O2_19 
ROOT
HETATM    1  C2  UNL     1      20.432   3.727  49.419  1.00  0.00     0.043 C 
HETATM    2  C3  UNL     1      20.981   2.894  48.495  1.00  0.00     0.023 C 
HETATM    3  C4  UNL     1      21.614   1.873  49.388  1.00  0.00     0.017 A 
HETATM    4  C5  UNL     1      22.772   2.585  49.240  1.00  0.00    -0.028 A 
HETATM    5  C6  UNL     1      22.901   1.819  50.350  1.00  0.00     0.041 A 
HETATM    6  C7  UNL     1      21.995   0.967  50.857  1.00  0.00     0.025 A 
HETATM    7  C8  UNL     1      20.793   0.341  50.849  1.00  0.00    -0.015 A 
HETATM    8  C9  UNL     1      20.581   1.085  49.718  1.00  0.00    -0.012 A 
HETATM    9  C10 UNL     1      22.451   0.729  52.282  1.00  0.00     0.132 C 
HETATM   10  C11 UNL     1      21.301   1.440  53.088  1.00  0.00     0.085 C 
HETATM   11  C12 UNL     1      21.465   2.779  52.355  1.00  0.00     0.035 C 
HETATM   12  N1  UNL     1      22.733   2.884  52.419  1.00  0.00    -0.179 NA
HETATM   13  N2  UNL     1      23.455   1.737  52.670  1.00  0.00    -0.240 N 
HETATM   14  C16 UNL     1      20.201   3.356  51.931  1.00  0.00     0.063 C 
HETATM   15  C17 UNL     1      20.076   4.224  50.739  1.00  0.00     0.070 C 
ENDROOT
BRANCH  13  16
HETATM   16  C13 UNL     1      24.767   1.598  53.154  1.00  0.00     0.192 A 
HETATM   17  N3  UNL     1      25.777   2.352  53.436  1.00  0.00    -0.198 NA
HETATM   18  C14 UNL     1      26.872   1.764  53.891  1.00  0.00     0.171 A 
HETATM   19  C15 UNL     1      27.000   0.357  54.087  1.00  0.00     0.111 A 
HETATM   20  S1  UNL     1      25.315  -0.177  53.540  1.00  0.00    -0.058 SA
BRANCH  18  21
HETATM   21  O2  UNL     1      27.845   2.762  54.134  1.00  0.00    -0.344 OA
HETATM   22  H12 UNL     1      28.834   2.568  54.040  1.00  0.00     0.219 HD
ENDBRANCH  18  21
ENDBRANCH  13  16
BRANCH   1  23
HETATM   23  O1  UNL     1      19.853   4.689  48.540  1.00  0.00    -0.360 OA
HETATM   24  C1  UNL     1      18.788   5.501  49.006  1.00  0.00     0.209 C 
ENDBRANCH   1  23
TORSDOF 3
ENDMDL
MODEL 6
REMARK VINA RESULT:      -7.2      5.592      8.281
REMARK  3 active torsions:
REMARK  status: ('A' for Active; 'I' for Inactive)
REMARK    1  A    between atoms: O1_2  and  C2_3 
REMARK    2  A    between atoms: N2_15  and  C13_16 
REMARK    3  A    between atoms: C14_18  and  O2_19 
ROOT
HETATM    1  C2  UNL     1      22.260   1.219  52.028  1.00  0.00     0.043 C 
HETATM    2  C3  UNL     1      21.634   0.074  51.643  1.00  0.00     0.023 C 
HETATM    3  C4  UNL     1      20.417   0.638  50.980  1.00  0.00     0.017 A 
HETATM    4  C5  UNL     1      19.777   0.431  52.170  1.00  0.00    -0.028 A 
HETATM    5  C6  UNL     1      19.055   1.337  51.469  1.00  0.00     0.041 A 
HETATM    6  C7  UNL     1      19.329   1.822  50.246  1.00  0.00     0.025 A 
HETATM    7  C8  UNL     1      20.083   1.902  49.123  1.00  0.00    -0.015 A 
HETATM    8  C9  UNL     1      20.872   0.985  49.767  1.00  0.00    -0.012 A 
HETATM    9  C10 UNL     1      18.488   3.077  50.135  1.00  0.00     0.132 C 
HETATM   10  C11 UNL     1      19.604   4.187  50.135  1.00  0.00     0.085 C 
HETATM   11  C12 UNL     1      20.242   3.703  51.445  1.00  0.00     0.035 C 
HETATM   12  N1  UNL     1      19.182   3.568  52.140  1.00  0.00    -0.179 NA
HETATM   13  N2  UNL     1      17.984   3.471  51.465  1.00  0.00    -0.240 N 
HETATM   14  C16 UNL     1      21.690   3.618  51.377  1.00  0.00     0.063 C 
HETATM   15  C17 UNL     1      22.474   2.651  52.177  1.00  0.00     0.070 C 
ENDROOT
BRANCH  13  16
HETATM   16  C13 UNL     1      16.677   3.689  51.932  1.00  0.00     0.192 A 
HETATM   17  N3  UNL     1      16.094   4.206  52.963  1.00  0.00    -0.198 NA
HETATM   18  C14 UNL     1      14.771   4.197  52.985  1.00  0.00     0.171 A 
HETATM   19  C15 UNL     1      13.958   3.656  51.945  1.00  0.00     0.111 A 
HETATM   20  S1  UNL     1      15.287   3.087  50.790  1.00  0.00    -0.058 SA
BRANCH  18  21
HETATM   21  O2  UNL     1      14.342   4.805  54.189  1.00  0.00    -0.344 OA
HETATM   22  H12 UNL     1      13.841   5.683  54.187  1.00  0.00     0.219 HD
ENDBRANCH  18  21
ENDBRANCH  13  16
BRANCH   1  23
HETATM   23  O1  UNL     1      23.402   0.650  52.664  1.00  0.00    -0.360 OA
HETATM   24  C1  UNL     1      23.259  -0.555  53.397  1.00  0.00     0.209 C 
ENDBRANCH   1  23
TORSDOF 3
ENDMDL
MODEL 7
REMARK VINA RESULT:      -7.2      2.086      3.552
REMARK  3 active torsions:
REMARK  status: ('A' for Active; 'I' for Inactive)
REMARK    1  A    between atoms: O1_2  and  C2_3 
REMARK    2  A    between atoms: N2_15  and  C13_16 
REMARK    3  A    between atoms: C14_18  and  O2_19 
ROOT
HETATM    1  C2  UNL     1      20.770   1.555  50.414  1.00  0.00     0.043 C 
HETATM    2  C3  UNL     1      20.343   1.528  51.705  1.00  0.00     0.023 C 
HETATM    3  C4  UNL     1      21.500   2.185  52.391  1.00  0.00     0.017 A 
HETATM    4  C5  UNL     1      21.953   0.922  52.653  1.00  0.00    -0.028 A 
HETATM    5  C6  UNL     1      23.004   1.768  52.774  1.00  0.00     0.041 A 
HETATM    6  C7  UNL     1      22.997   3.100  52.601  1.00  0.00     0.025 A 
HETATM    7  C8  UNL     1      22.383   4.275  52.322  1.00  0.00    -0.015 A 
HETATM    8  C9  UNL     1      21.271   3.489  52.176  1.00  0.00    -0.012 A 
HETATM    9  C10 UNL     1      24.455   3.469  52.420  1.00  0.00     0.132 C 
HETATM   10  C11 UNL     1      24.467   3.907  50.908  1.00  0.00     0.085 C 
HETATM   11  C12 UNL     1      23.854   2.592  50.407  1.00  0.00     0.035 C 
HETATM   12  N1  UNL     1      24.584   1.775  51.057  1.00  0.00    -0.179 NA
HETATM   13  N2  UNL     1      25.257   2.259  52.158  1.00  0.00    -0.240 N 
HETATM   14  C16 UNL     1      22.780   2.792  49.449  1.00  0.00     0.063 C 
HETATM   15  C17 UNL     1      21.656   1.842  49.296  1.00  0.00     0.070 C 
ENDROOT
BRANCH  13  16
HETATM   16  C13 UNL     1      26.380   1.732  52.820  1.00  0.00     0.192 A 
HETATM   17  N3  UNL     1      27.264   2.120  53.679  1.00  0.00    -0.198 NA
HETATM   18  C14 UNL     1      28.189   1.246  54.039  1.00  0.00     0.171 A 
HETATM   19  C15 UNL     1      28.267  -0.088  53.538  1.00  0.00     0.111 A 
HETATM   20  S1  UNL     1      26.809  -0.067  52.399  1.00  0.00    -0.058 SA
BRANCH  18  21
HETATM   21  O2  UNL     1      29.048   1.868  54.977  1.00  0.00    -0.344 OA
HETATM   22  H12 UNL     1      29.500   2.750  54.774  1.00  0.00     0.219 HD
ENDBRANCH  18  21
ENDBRANCH  13  16
BRANCH   1  23
HETATM   23  O1  UNL     1      19.659   0.913  49.794  1.00  0.00    -0.360 OA
HETATM   24  C1  UNL     1      18.473   0.701  50.543  1.00  0.00     0.209 C 
ENDBRANCH   1  23
TORSDOF 3
ENDMDL
MODEL 8
REMARK VINA RESULT:      -7.1      3.608      4.788
REMARK  3 active torsions:
REMARK  status: ('A' for Active; 'I' for Inactive)
REMARK    1  A    between atoms: O1_2  and  C2_3 
REMARK    2  A    between atoms: N2_15  and  C13_16 
REMARK    3  A    between atoms: C14_18  and  O2_19 
ROOT
HETATM    1  C2  UNL     1      19.886   1.998  50.636  1.00  0.00     0.043 C 
HETATM    2  C3  UNL     1      20.412   0.944  49.957  1.00  0.00     0.023 C 
HETATM    3  C4  UNL     1      21.869   1.135  50.241  1.00  0.00     0.017 A 
HETATM    4  C5  UNL     1      21.934   1.774  49.034  1.00  0.00    -0.028 A 
HETATM    5  C6  UNL     1      23.017   2.150  49.755  1.00  0.00     0.041 A 
HETATM    6  C7  UNL     1      23.341   1.755  50.997  1.00  0.00     0.025 A 
HETATM    7  C8  UNL     1      23.126   1.042  52.130  1.00  0.00    -0.015 A 
HETATM    8  C9  UNL     1      22.004   0.615  51.470  1.00  0.00    -0.012 A 
HETATM    9  C10 UNL     1      24.354   2.777  51.472  1.00  0.00     0.132 C 
HETATM   10  C11 UNL     1      23.534   3.510  52.598  1.00  0.00     0.085 C 
HETATM   11  C12 UNL     1      22.354   3.845  51.676  1.00  0.00     0.035 C 
HETATM   12  N1  UNL     1      23.007   4.293  50.677  1.00  0.00    -0.179 NA
HETATM   13  N2  UNL     1      24.340   3.955  50.584  1.00  0.00    -0.240 N 
HETATM   14  C16 UNL     1      21.062   3.559  52.275  1.00  0.00     0.063 C 
HETATM   15  C17 UNL     1      19.874   3.187  51.476  1.00  0.00     0.070 C 
ENDROOT
BRANCH  13  16
HETATM   16  C13 UNL     1      25.367   4.572  49.849  1.00  0.00     0.192 A 
HETATM   17  N3  UNL     1      26.575   4.311  49.472  1.00  0.00    -0.198 NA
HETATM   18  C14 UNL     1      27.203   5.229  48.756  1.00  0.00     0.171 A 
HETATM   19  C15 UNL     1      26.628   6.479  48.377  1.00  0.00     0.111 A 
HETATM   20  S1  UNL     1      24.964   6.295  49.165  1.00  0.00    -0.058 SA
BRANCH  18  21
HETATM   21  O2  UNL     1      28.498   4.746  48.452  1.00  0.00    -0.344 OA
HETATM   22  H12 UNL     1      29.083   4.323  49.161  1.00  0.00     0.219 HD
ENDBRANCH  18  21
ENDBRANCH  13  16
BRANCH   1  23
HETATM   23  O1  UNL     1      18.507   1.796  50.335  1.00  0.00    -0.360 OA
HETATM   24  C1  UNL     1      17.974   0.482  50.371  1.00  0.00     0.209 C 
ENDBRANCH   1  23
TORSDOF 3
ENDMDL
MODEL 9
REMARK VINA RESULT:      -6.9      3.485      6.172
REMARK  3 active torsions:
REMARK  status: ('A' for Active; 'I' for Inactive)
REMARK    1  A    between atoms: O1_2  and  C2_3 
REMARK    2  A    between atoms: N2_15  and  C13_16 
REMARK    3  A    between atoms: C14_18  and  O2_19 
ROOT
HETATM    1  C2  UNL     1      21.839   0.111  53.717  1.00  0.00     0.043 C 
HETATM    2  C3  UNL     1      20.554   0.347  53.338  1.00  0.00     0.023 C 
HETATM    3  C4  UNL     1      20.775   1.222  52.145  1.00  0.00     0.017 A 
HETATM    4  C5  UNL     1      20.581   2.279  52.990  1.00  0.00    -0.028 A 
HETATM    5  C6  UNL     1      21.234   2.743  51.897  1.00  0.00     0.041 A 
HETATM    6  C7  UNL     1      21.619   2.036  50.822  1.00  0.00     0.025 A 
HETATM    7  C8  UNL     1      21.721   0.889  50.107  1.00  0.00    -0.015 A 
HETATM    8  C9  UNL     1      21.066   0.340  51.178  1.00  0.00    -0.012 A 
HETATM    9  C10 UNL     1      22.655   2.909  50.142  1.00  0.00     0.132 C 
HETATM   10  C11 UNL     1      23.962   2.065  50.381  1.00  0.00     0.085 C 
HETATM   11  C12 UNL     1      23.773   1.997  51.903  1.00  0.00     0.035 C 
HETATM   12  N1  UNL     1      23.506   3.224  52.122  1.00  0.00    -0.179 NA
HETATM   13  N2  UNL     1      23.088   3.986  51.052  1.00  0.00    -0.240 N 
HETATM   14  C16 UNL     1      23.979   0.666  52.445  1.00  0.00     0.063 C 
HETATM   15  C17 UNL     1      23.292   0.181  53.662  1.00  0.00     0.070 C 
ENDROOT
BRANCH  13  16
HETATM   16  C13 UNL     1      23.087   5.383  50.899  1.00  0.00     0.192 A 
HETATM   17  N3  UNL     1      23.914   6.368  51.022  1.00  0.00    -0.198 NA
HETATM   18  C14 UNL     1      23.459   7.583  50.762  1.00  0.00     0.171 A 
HETATM   19  C15 UNL     1      22.121   7.866  50.357  1.00  0.00     0.111 A 
HETATM   20  S1  UNL     1      21.438   6.147  50.354  1.00  0.00    -0.058 SA
BRANCH  18  21
HETATM   21  O2  UNL     1      24.516   8.504  50.956  1.00  0.00    -0.344 OA
HETATM   22  H12 UNL     1      24.416   9.298  51.575  1.00  0.00     0.219 HD
ENDBRANCH  18  21
ENDBRANCH  13  16
BRANCH   1  23
HETATM   23  O1  UNL     1      21.593  -0.709  54.857  1.00  0.00    -0.360 OA
HETATM   24  C1  UNL     1      22.637  -1.523  55.363  1.00  0.00     0.209 C 
ENDBRANCH   1  23
TORSDOF 3
ENDMDL
