MODEL 1
REMARK VINA RESULT:      -9.3      0.000      0.000
REMARK  6 active torsions:
REMARK  status: ('A' for Active; 'I' for Inactive)
REMARK    1  A    between atoms: O1_1  and  C1_2 
REMARK    2  A    between atoms: C1_2  and  C2_3 
REMARK    3  A    between atoms: C2_3  and  N1_4 
REMARK    4  A    between atoms: C2_3  and  C19_22 
REMARK    5  A    between atoms: N1_4  and  C3_5 
REMARK    6  A    between atoms: C3_5  and  C4_6 
ROOT
HETATM    1  C4  UNL     1      22.331   2.857  50.206  1.00  0.00    -0.005 A 
HETATM    2  C5  UNL     1      21.996   1.629  49.631  1.00  0.00     0.152 A 
HETATM    3  O2  UNL     1      22.207   0.675  50.523  1.00  0.00    -0.320 OA
HETATM    4  C6  UNL     1      22.655   1.154  51.645  1.00  0.00     0.097 A 
HETATM    5  C7  UNL     1      22.755   2.554  51.498  1.00  0.00     0.008 A 
HETATM    6  C8  UNL     1      23.261   3.043  52.774  1.00  0.00     0.011 C 
HETATM    7  C9  UNL     1      24.553   2.852  52.782  1.00  0.00    -0.022 C 
HETATM    8  C10 UNL     1      25.484   2.293  51.806  1.00  0.00     0.054 C 
HETATM    9  C11 UNL     1      25.915   0.904  52.010  1.00  0.00    -0.022 C 
HETATM   10  C12 UNL     1      25.357  -0.103  52.636  1.00  0.00     0.008 C 
HETATM   11  C13 UNL     1      24.108  -0.234  53.357  1.00  0.00    -0.023 A 
HETATM   12  C14 UNL     1      23.974  -0.923  54.535  1.00  0.00     0.012 A 
HETATM   13  C15 UNL     1      22.810  -1.111  55.245  1.00  0.00     0.001 A 
HETATM   14  C16 UNL     1      21.670  -0.546  54.716  1.00  0.00     0.001 A 
HETATM   15  C17 UNL     1      21.771   0.162  53.518  1.00  0.00     0.015 A 
HETATM   16  C18 UNL     1      22.975   0.337  52.818  1.00  0.00     0.009 A 
ENDROOT
BRANCH   1  17
HETATM   17  C3  UNL     1      22.441   4.351  50.070  1.00  0.00     0.156 C 
BRANCH  17  18
HETATM   18  N1  UNL     1      23.671   4.785  49.630  1.00  0.00    -0.407 N 
HETATM   19  H5  UNL     1      23.831   4.800  48.594  1.00  0.00     0.154 HD
BRANCH  18  20
HETATM   20  C2  UNL     1      24.628   5.527  50.281  1.00  0.00     0.133 C 
BRANCH  20  21
HETATM   21  C1  UNL     1      24.274   6.742  51.065  1.00  0.00     0.193 C 
BRANCH  21  22
HETATM   22  O1  UNL     1      24.368   6.647  52.426  1.00  0.00    -0.399 OA
HETATM   23  H1  UNL     1      24.350   5.725  52.725  1.00  0.00     0.209 HD
ENDBRANCH  21  22
ENDBRANCH  20  21
BRANCH  20  24
HETATM   24  C19 UNL     1      25.917   5.776  49.526  1.00  0.00    -0.034 A 
HETATM   25  C20 UNL     1      26.377   6.980  49.099  1.00  0.00     0.009 A 
HETATM   26  C21 UNL     1      27.553   7.173  48.420  1.00  0.00     0.001 A 
HETATM   27  C22 UNL     1      28.348   6.083  48.135  1.00  0.00     0.000 A 
HETATM   28  C23 UNL     1      27.967   4.833  48.526  1.00  0.00     0.001 A 
HETATM   29  C24 UNL     1      26.782   4.728  49.197  1.00  0.00     0.009 A 
ENDBRANCH  20  24
ENDBRANCH  18  20
ENDBRANCH  17  18
ENDBRANCH   1  17
TORSDOF 6
ENDMDL
MODEL 2
REMARK VINA RESULT:      -9.2      2.143      6.311
REMARK  6 active torsions:
REMARK  status: ('A' for Active; 'I' for Inactive)
REMARK    1  A    between atoms: O1_1  and  C1_2 
REMARK    2  A    between atoms: C1_2  and  C2_3 
REMARK    3  A    between atoms: C2_3  and  N1_4 
REMARK    4  A    between atoms: C2_3  and  C19_22 
REMARK    5  A    between atoms: N1_4  and  C3_5 
REMARK    6  A    between atoms: C3_5  and  C4_6 
ROOT
HETATM    1  C4  UNL     1      22.565   1.350  51.778  1.00  0.00    -0.005 A 
HETATM    2  C5  UNL     1      22.257   1.195  50.424  1.00  0.00     0.152 A 
HETATM    3  O2  UNL     1      22.932   2.098  49.733  1.00  0.00    -0.320 OA
HETATM    4  C6  UNL     1      23.663   2.848  50.503  1.00  0.00     0.097 A 
HETATM    5  C7  UNL     1      23.466   2.411  51.830  1.00  0.00     0.008 A 
HETATM    6  C8  UNL     1      24.301   3.278  52.651  1.00  0.00     0.011 C 
HETATM    7  C9  UNL     1      23.654   4.401  52.818  1.00  0.00    -0.022 C 
HETATM    8  C10 UNL     1      22.348   4.875  52.369  1.00  0.00     0.054 C 
HETATM    9  C11 UNL     1      22.325   5.769  51.205  1.00  0.00    -0.022 C 
HETATM   10  C12 UNL     1      23.161   5.934  50.210  1.00  0.00     0.008 C 
HETATM   11  C13 UNL     1      24.419   5.298  49.875  1.00  0.00    -0.023 A 
HETATM   12  C14 UNL     1      25.511   5.972  49.393  1.00  0.00     0.012 A 
HETATM   13  C15 UNL     1      26.718   5.418  49.026  1.00  0.00     0.001 A 
HETATM   14  C16 UNL     1      26.833   4.052  49.162  1.00  0.00     0.001 A 
HETATM   15  C17 UNL     1      25.740   3.336  49.652  1.00  0.00     0.015 A 
HETATM   16  C18 UNL     1      24.522   3.931  50.018  1.00  0.00     0.009 A 
ENDROOT
BRANCH   1  17
HETATM   17  C3  UNL     1      22.371   0.898  53.199  1.00  0.00     0.156 C 
BRANCH  17  18
HETATM   18  N1  UNL     1      22.788  -0.392  53.438  1.00  0.00    -0.407 N 
HETATM   19  H5  UNL     1      22.335  -1.154  52.877  1.00  0.00     0.154 HD
BRANCH  18  20
HETATM   20  C2  UNL     1      23.935  -0.850  54.041  1.00  0.00     0.133 C 
BRANCH  20  21
HETATM   21  C1  UNL     1      23.973  -1.193  55.489  1.00  0.00     0.193 C 
BRANCH  21  22
HETATM   22  O1  UNL     1      22.970  -1.994  55.960  1.00  0.00    -0.399 OA
HETATM   23  H1  UNL     1      23.075  -2.187  56.904  1.00  0.00     0.209 HD
ENDBRANCH  21  22
ENDBRANCH  20  21
BRANCH  20  24
HETATM   24  C19 UNL     1      25.223  -0.150  53.659  1.00  0.00    -0.034 A 
HETATM   25  C20 UNL     1      25.995   0.612  54.476  1.00  0.00     0.009 A 
HETATM   26  C21 UNL     1      27.160   1.231  54.099  1.00  0.00     0.001 A 
HETATM   27  C22 UNL     1      27.605   1.087  52.802  1.00  0.00     0.000 A 
HETATM   28  C23 UNL     1      26.894   0.339  51.911  1.00  0.00     0.001 A 
HETATM   29  C24 UNL     1      25.746  -0.243  52.366  1.00  0.00     0.009 A 
ENDBRANCH  20  24
ENDBRANCH  18  20
ENDBRANCH  17  18
ENDBRANCH   1  17
TORSDOF 6
ENDMDL
MODEL 3
REMARK VINA RESULT:      -8.9      1.684      3.243
REMARK  6 active torsions:
REMARK  status: ('A' for Active; 'I' for Inactive)
REMARK    1  A    between atoms: O1_1  and  C1_2 
REMARK    2  A    between atoms: C1_2  and  C2_3 
REMARK    3  A    between atoms: C2_3  and  N1_4 
REMARK    4  A    between atoms: C2_3  and  C19_22 
REMARK    5  A    between atoms: N1_4  and  C3_5 
REMARK    6  A    between atoms: C3_5  and  C4_6 
ROOT
HETATM    1  C4  UNL     1      22.989   4.212  52.134  1.00  0.00    -0.005 A 
HETATM    2  C5  UNL     1      23.727   4.468  53.292  1.00  0.00     0.152 A 
HETATM    3  O2  UNL     1      24.418   3.383  53.599  1.00  0.00    -0.320 OA
HETATM    4  C6  UNL     1      24.208   2.420  52.752  1.00  0.00     0.097 A 
HETATM    5  C7  UNL     1      23.296   2.898  51.787  1.00  0.00     0.008 A 
HETATM    6  C8  UNL     1      23.091   1.788  50.865  1.00  0.00     0.011 C 
HETATM    7  C9  UNL     1      22.234   0.972  51.418  1.00  0.00    -0.022 C 
HETATM    8  C10 UNL     1      21.507   0.999  52.684  1.00  0.00     0.054 C 
HETATM    9  C11 UNL     1      22.035   0.174  53.777  1.00  0.00    -0.022 C 
HETATM   10  C12 UNL     1      23.238  -0.280  54.030  1.00  0.00     0.008 C 
HETATM   11  C13 UNL     1      24.502  -0.137  53.335  1.00  0.00    -0.023 A 
HETATM   12  C14 UNL     1      25.402  -1.158  53.172  1.00  0.00     0.012 A 
HETATM   13  C15 UNL     1      26.630  -1.074  52.553  1.00  0.00     0.001 A 
HETATM   14  C16 UNL     1      26.981   0.159  52.050  1.00  0.00     0.001 A 
HETATM   15  C17 UNL     1      26.086   1.220  52.199  1.00  0.00     0.015 A 
HETATM   16  C18 UNL     1      24.840   1.101  52.834  1.00  0.00     0.009 A 
ENDROOT
BRANCH   1  17
HETATM   17  C3  UNL     1      22.021   4.702  51.094  1.00  0.00     0.156 C 
BRANCH  17  18
HETATM   18  N1  UNL     1      22.579   5.551  50.164  1.00  0.00    -0.407 N 
HETATM   19  H5  UNL     1      22.860   6.506  50.495  1.00  0.00     0.154 HD
BRANCH  18  20
HETATM   20  C2  UNL     1      23.153   5.270  48.947  1.00  0.00     0.133 C 
BRANCH  20  21
HETATM   21  C1  UNL     1      22.610   4.212  48.053  1.00  0.00     0.193 C 
BRANCH  21  22
HETATM   22  O1  UNL     1      22.161   4.613  46.825  1.00  0.00    -0.399 OA
HETATM   23  H1  UNL     1      22.279   5.566  46.691  1.00  0.00     0.209 HD
ENDBRANCH  21  22
ENDBRANCH  20  21
BRANCH  20  24
HETATM   24  C19 UNL     1      24.667   5.229  48.909  1.00  0.00    -0.034 A 
HETATM   25  C20 UNL     1      25.487   6.240  48.524  1.00  0.00     0.009 A 
HETATM   26  C21 UNL     1      26.858   6.172  48.505  1.00  0.00     0.001 A 
HETATM   27  C22 UNL     1      27.475   5.004  48.899  1.00  0.00     0.000 A 
HETATM   28  C23 UNL     1      26.731   3.935  49.302  1.00  0.00     0.001 A 
HETATM   29  C24 UNL     1      25.374   4.086  49.292  1.00  0.00     0.009 A 
ENDBRANCH  20  24
ENDBRANCH  18  20
ENDBRANCH  17  18
ENDBRANCH   1  17
TORSDOF 6
ENDMDL
MODEL 4
REMARK VINA RESULT:      -8.8      2.294      6.804
REMARK  6 active torsions:
REMARK  status: ('A' for Active; 'I' for Inactive)
REMARK    1  A    between atoms: O1_1  and  C1_2 
REMARK    2  A    between atoms: C1_2  and  C2_3 
REMARK    3  A    between atoms: C2_3  and  N1_4 
REMARK    4  A    between atoms: C2_3  and  C19_22 
REMARK    5  A    between atoms: N1_4  and  C3_5 
REMARK    6  A    between atoms: C3_5  and  C4_6 
ROOT
HETATM    1  C4  UNL     1      25.381   2.753  53.207  1.00  0.00    -0.005 A 
HETATM    2  C5  UNL     1      24.211   3.438  53.545  1.00  0.00     0.152 A 
HETATM    3  O2  UNL     1      23.420   3.469  52.485  1.00  0.00    -0.320 OA
HETATM    4  C6  UNL     1      23.956   2.867  51.466  1.00  0.00     0.097 A 
HETATM    5  C7  UNL     1      25.220   2.387  51.873  1.00  0.00     0.008 A 
HETATM    6  C8  UNL     1      25.778   1.725  50.701  1.00  0.00     0.011 C 
HETATM    7  C9  UNL     1      26.270   2.653  49.925  1.00  0.00    -0.022 C 
HETATM    8  C10 UNL     1      26.353   4.106  50.038  1.00  0.00     0.054 C 
HETATM    9  C11 UNL     1      25.364   4.894  49.291  1.00  0.00    -0.022 C 
HETATM   10  C12 UNL     1      24.161   4.606  48.859  1.00  0.00     0.008 C 
HETATM   11  C13 UNL     1      23.348   3.411  48.955  1.00  0.00    -0.023 A 
HETATM   12  C14 UNL     1      22.583   2.923  47.928  1.00  0.00     0.012 A 
HETATM   13  C15 UNL     1      21.766   1.815  47.971  1.00  0.00     0.001 A 
HETATM   14  C16 UNL     1      21.719   1.134  49.167  1.00  0.00     0.001 A 
HETATM   15  C17 UNL     1      22.486   1.603  50.234  1.00  0.00     0.015 A 
HETATM   16  C18 UNL     1      23.311   2.737  50.156  1.00  0.00     0.009 A 
ENDROOT
BRANCH   1  17
HETATM   17  C3  UNL     1      26.729   2.231  53.623  1.00  0.00     0.156 C 
BRANCH  17  18
HETATM   18  N1  UNL     1      26.673   1.151  54.475  1.00  0.00    -0.407 N 
HETATM   19  H5  UNL     1      26.554   1.353  55.497  1.00  0.00     0.154 HD
BRANCH  18  20
HETATM   20  C2  UNL     1      26.405  -0.170  54.206  1.00  0.00     0.133 C 
BRANCH  20  21
HETATM   21  C1  UNL     1      27.028  -0.874  53.051  1.00  0.00     0.193 C 
BRANCH  21  22
HETATM   22  O1  UNL     1      27.197  -2.226  53.172  1.00  0.00    -0.399 OA
HETATM   23  H1  UNL     1      26.692  -2.713  52.502  1.00  0.00     0.209 HD
ENDBRANCH  21  22
ENDBRANCH  20  21
BRANCH  20  24
HETATM   24  C19 UNL     1      24.961  -0.606  54.338  1.00  0.00    -0.034 A 
HETATM   25  C20 UNL     1      24.376  -1.115  55.453  1.00  0.00     0.009 A 
HETATM   26  C21 UNL     1      23.061  -1.498  55.541  1.00  0.00     0.001 A 
HETATM   27  C22 UNL     1      22.250  -1.368  54.434  1.00  0.00     0.000 A 
HETATM   28  C23 UNL     1      22.751  -0.865  53.270  1.00  0.00     0.001 A 
HETATM   29  C24 UNL     1      24.070  -0.508  53.266  1.00  0.00     0.009 A 
ENDBRANCH  20  24
ENDBRANCH  18  20
ENDBRANCH  17  18
ENDBRANCH   1  17
TORSDOF 6
ENDMDL
MODEL 5
REMARK VINA RESULT:      -8.7      1.668      2.312
REMARK  6 active torsions:
REMARK  status: ('A' for Active; 'I' for Inactive)
REMARK    1  A    between atoms: O1_1  and  C1_2 
REMARK    2  A    between atoms: C1_2  and  C2_3 
REMARK    3  A    between atoms: C2_3  and  N1_4 
REMARK    4  A    between atoms: C2_3  and  C19_22 
REMARK    5  A    between atoms: N1_4  and  C3_5 
REMARK    6  A    between atoms: C3_5  and  C4_6 
ROOT
HETATM    1  C4  UNL     1      23.902   3.519  50.568  1.00  0.00    -0.005 A 
HETATM    2  C5  UNL     1      23.345   2.547  49.734  1.00  0.00     0.152 A 
HETATM    3  O2  UNL     1      23.007   1.502  50.471  1.00  0.00    -0.320 OA
HETATM    4  C6  UNL     1      23.289   1.686  51.726  1.00  0.00     0.097 A 
HETATM    5  C7  UNL     1      23.868   2.968  51.847  1.00  0.00     0.008 A 
HETATM    6  C8  UNL     1      24.167   3.126  53.264  1.00  0.00     0.011 C 
HETATM    7  C9  UNL     1      25.283   2.490  53.502  1.00  0.00    -0.022 C 
HETATM    8  C10 UNL     1      26.198   1.731  52.654  1.00  0.00     0.054 C 
HETATM    9  C11 UNL     1      26.093   0.267  52.698  1.00  0.00    -0.022 C 
HETATM   10  C12 UNL     1      25.103  -0.531  53.014  1.00  0.00     0.008 C 
HETATM   11  C13 UNL     1      23.739  -0.278  53.431  1.00  0.00    -0.023 A 
HETATM   12  C14 UNL     1      23.101  -0.981  54.420  1.00  0.00     0.012 A 
HETATM   13  C15 UNL     1      21.799  -0.809  54.836  1.00  0.00     0.001 A 
HETATM   14  C16 UNL     1      21.073   0.168  54.191  1.00  0.00     0.001 A 
HETATM   15  C17 UNL     1      21.693   0.903  53.179  1.00  0.00     0.015 A 
HETATM   16  C18 UNL     1      23.025   0.704  52.780  1.00  0.00     0.009 A 
ENDROOT
BRANCH   1  17
HETATM   17  C3  UNL     1      24.517   4.883  50.718  1.00  0.00     0.156 C 
BRANCH  17  18
HETATM   18  N1  UNL     1      25.831   4.953  50.313  1.00  0.00    -0.407 N 
HETATM   19  H5  UNL     1      26.520   4.339  50.813  1.00  0.00     0.154 HD
BRANCH  18  20
HETATM   20  C2  UNL     1      26.369   5.432  49.142  1.00  0.00     0.133 C 
BRANCH  20  21
HETATM   21  C1  UNL     1      27.632   4.882  48.580  1.00  0.00     0.193 C 
BRANCH  21  22
HETATM   22  O1  UNL     1      28.786   5.178  49.252  1.00  0.00    -0.399 OA
HETATM   23  H1  UNL     1      29.472   4.508  49.103  1.00  0.00     0.209 HD
ENDBRANCH  21  22
ENDBRANCH  20  21
BRANCH  20  24
HETATM   24  C19 UNL     1      26.351   6.935  48.958  1.00  0.00    -0.034 A 
HETATM   25  C20 UNL     1      26.417   7.865  49.945  1.00  0.00     0.009 A 
HETATM   26  C21 UNL     1      26.402   9.223  49.744  1.00  0.00     0.001 A 
HETATM   27  C22 UNL     1      26.314   9.707  48.456  1.00  0.00     0.000 A 
HETATM   28  C23 UNL     1      26.244   8.847  47.401  1.00  0.00     0.001 A 
HETATM   29  C24 UNL     1      26.264   7.512  47.688  1.00  0.00     0.009 A 
ENDBRANCH  20  24
ENDBRANCH  18  20
ENDBRANCH  17  18
ENDBRANCH   1  17
TORSDOF 6
ENDMDL
MODEL 6
REMARK VINA RESULT:      -8.3      2.230      3.875
REMARK  6 active torsions:
REMARK  status: ('A' for Active; 'I' for Inactive)
REMARK    1  A    between atoms: O1_1  and  C1_2 
REMARK    2  A    between atoms: C1_2  and  C2_3 
REMARK    3  A    between atoms: C2_3  and  N1_4 
REMARK    4  A    between atoms: C2_3  and  C19_22 
REMARK    5  A    between atoms: N1_4  and  C3_5 
REMARK    6  A    between atoms: C3_5  and  C4_6 
ROOT
HETATM    1  C4  UNL     1      23.757   2.691  52.017  1.00  0.00    -0.005 A 
HETATM    2  C5  UNL     1      23.797   3.520  53.141  1.00  0.00     0.152 A 
HETATM    3  O2  UNL     1      24.858   3.200  53.863  1.00  0.00    -0.320 OA
HETATM    4  C6  UNL     1      25.533   2.228  53.324  1.00  0.00     0.097 A 
HETATM    5  C7  UNL     1      24.870   1.861  52.133  1.00  0.00     0.008 A 
HETATM    6  C8  UNL     1      25.659   0.774  51.570  1.00  0.00     0.011 C 
HETATM    7  C9  UNL     1      25.332  -0.318  52.207  1.00  0.00    -0.022 C 
HETATM    8  C10 UNL     1      24.382  -0.600  53.281  1.00  0.00     0.054 C 
HETATM    9  C11 UNL     1      24.926  -0.725  54.639  1.00  0.00    -0.022 C 
HETATM   10  C12 UNL     1      26.012  -0.248  55.196  1.00  0.00     0.008 C 
HETATM   11  C13 UNL     1      27.083   0.586  54.690  1.00  0.00    -0.023 A 
HETATM   12  C14 UNL     1      28.408   0.386  54.981  1.00  0.00     0.012 A 
HETATM   13  C15 UNL     1      29.464   1.162  54.560  1.00  0.00     0.001 A 
HETATM   14  C16 UNL     1      29.152   2.245  53.766  1.00  0.00     0.001 A 
HETATM   15  C17 UNL     1      27.812   2.477  53.451  1.00  0.00     0.015 A 
HETATM   16  C18 UNL     1      26.758   1.663  53.896  1.00  0.00     0.009 A 
ENDROOT
BRANCH   1  17
HETATM   17  C3  UNL     1      23.068   2.288  50.743  1.00  0.00     0.156 C 
BRANCH  17  18
HETATM   18  N1  UNL     1      23.437   3.033  49.645  1.00  0.00    -0.407 N 
HETATM   19  H5  UNL     1      23.287   2.601  48.701  1.00  0.00     0.154 HD
BRANCH  18  20
HETATM   20  C2  UNL     1      23.659   4.385  49.532  1.00  0.00     0.133 C 
BRANCH  20  21
HETATM   21  C1  UNL     1      22.690   5.280  48.843  1.00  0.00     0.193 C 
BRANCH  21  22
HETATM   22  O1  UNL     1      22.144   4.818  47.677  1.00  0.00    -0.399 OA
HETATM   23  H1  UNL     1      22.760   4.248  47.192  1.00  0.00     0.209 HD
ENDBRANCH  21  22
ENDBRANCH  20  21
BRANCH  20  24
HETATM   24  C19 UNL     1      25.070   4.810  49.182  1.00  0.00    -0.034 A 
HETATM   25  C20 UNL     1      26.188   4.048  49.296  1.00  0.00     0.009 A 
HETATM   26  C21 UNL     1      27.454   4.463  48.966  1.00  0.00     0.001 A 
HETATM   27  C22 UNL     1      27.635   5.741  48.482  1.00  0.00     0.000 A 
HETATM   28  C23 UNL     1      26.568   6.577  48.333  1.00  0.00     0.001 A 
HETATM   29  C24 UNL     1      25.343   6.087  48.684  1.00  0.00     0.009 A 
ENDBRANCH  20  24
ENDBRANCH  18  20
ENDBRANCH  17  18
ENDBRANCH   1  17
TORSDOF 6
ENDMDL
MODEL 7
REMARK VINA RESULT:      -8.1      1.594      3.013
REMARK  6 active torsions:
REMARK  status: ('A' for Active; 'I' for Inactive)
REMARK    1  A    between atoms: O1_1  and  C1_2 
REMARK    2  A    between atoms: C1_2  and  C2_3 
REMARK    3  A    between atoms: C2_3  and  N1_4 
REMARK    4  A    between atoms: C2_3  and  C19_22 
REMARK    5  A    between atoms: N1_4  and  C3_5 
REMARK    6  A    between atoms: C3_5  and  C4_6 
ROOT
HETATM    1  C4  UNL     1      22.101   5.193  49.807  1.00  0.00    -0.005 A 
HETATM    2  C5  UNL     1      21.637   5.515  51.085  1.00  0.00     0.152 A 
HETATM    3  O2  UNL     1      21.867   4.489  51.888  1.00  0.00    -0.320 OA
HETATM    4  C6  UNL     1      22.443   3.507  51.262  1.00  0.00     0.097 A 
HETATM    5  C7  UNL     1      22.618   3.905  49.919  1.00  0.00     0.008 A 
HETATM    6  C8  UNL     1      23.262   2.775  49.261  1.00  0.00     0.011 C 
HETATM    7  C9  UNL     1      22.333   1.900  48.986  1.00  0.00    -0.022 C 
HETATM    8  C10 UNL     1      20.888   1.880  49.199  1.00  0.00     0.054 C 
HETATM    9  C11 UNL     1      20.390   1.106  50.343  1.00  0.00    -0.022 C 
HETATM   10  C12 UNL     1      20.954   0.750  51.471  1.00  0.00     0.008 C 
HETATM   11  C13 UNL     1      22.274   0.984  52.020  1.00  0.00    -0.023 A 
HETATM   12  C14 UNL     1      23.002   0.035  52.691  1.00  0.00     0.012 A 
HETATM   13  C15 UNL     1      24.242   0.209  53.263  1.00  0.00     0.001 A 
HETATM   14  C16 UNL     1      24.802   1.462  53.146  1.00  0.00     0.001 A 
HETATM   15  C17 UNL     1      24.088   2.452  52.468  1.00  0.00     0.015 A 
HETATM   16  C18 UNL     1      22.824   2.241  51.894  1.00  0.00     0.009 A 
ENDROOT
BRANCH   1  17
HETATM   17  C3  UNL     1      22.299   5.600  48.373  1.00  0.00     0.156 C 
BRANCH  17  18
HETATM   18  N1  UNL     1      23.385   6.421  48.168  1.00  0.00    -0.407 N 
HETATM   19  H5  UNL     1      23.368   7.033  47.316  1.00  0.00     0.154 HD
BRANCH  18  20
HETATM   20  C2  UNL     1      24.349   6.844  49.052  1.00  0.00     0.133 C 
BRANCH  20  21
HETATM   21  C1  UNL     1      24.423   8.258  49.509  1.00  0.00     0.193 C 
BRANCH  21  22
HETATM   22  O1  UNL     1      24.686   8.465  50.835  1.00  0.00    -0.399 OA
HETATM   23  H1  UNL     1      25.105   7.692  51.244  1.00  0.00     0.209 HD
ENDBRANCH  21  22
ENDBRANCH  20  21
BRANCH  20  24
HETATM   24  C19 UNL     1      25.751   6.318  48.823  1.00  0.00    -0.034 A 
HETATM   25  C20 UNL     1      26.811   7.033  48.366  1.00  0.00     0.009 A 
HETATM   26  C21 UNL     1      28.072   6.527  48.173  1.00  0.00     0.001 A 
HETATM   27  C22 UNL     1      28.310   5.199  48.454  1.00  0.00     0.000 A 
HETATM   28  C23 UNL     1      27.304   4.403  48.918  1.00  0.00     0.001 A 
HETATM   29  C24 UNL     1      26.080   4.985  49.083  1.00  0.00     0.009 A 
ENDBRANCH  20  24
ENDBRANCH  18  20
ENDBRANCH  17  18
ENDBRANCH   1  17
TORSDOF 6
ENDMDL
MODEL 8
REMARK VINA RESULT:      -7.9      1.710      6.723
REMARK  6 active torsions:
REMARK  status: ('A' for Active; 'I' for Inactive)
REMARK    1  A    between atoms: O1_1  and  C1_2 
REMARK    2  A    between atoms: C1_2  and  C2_3 
REMARK    3  A    between atoms: C2_3  and  N1_4 
REMARK    4  A    between atoms: C2_3  and  C19_22 
REMARK    5  A    between atoms: N1_4  and  C3_5 
REMARK    6  A    between atoms: C3_5  and  C4_6 
ROOT
HETATM    1  C4  UNL     1      22.542   3.955  50.459  1.00  0.00    -0.005 A 
HETATM    2  C5  UNL     1      22.509   3.530  49.129  1.00  0.00     0.152 A 
HETATM    3  O2  UNL     1      23.531   4.071  48.487  1.00  0.00    -0.320 OA
HETATM    4  C6  UNL     1      24.246   4.824  49.268  1.00  0.00     0.097 A 
HETATM    5  C7  UNL     1      23.656   4.787  50.550  1.00  0.00     0.008 A 
HETATM    6  C8  UNL     1      24.489   5.643  51.385  1.00  0.00     0.011 C 
HETATM    7  C9  UNL     1      24.139   6.879  51.150  1.00  0.00    -0.022 C 
HETATM    8  C10 UNL     1      23.134   7.482  50.278  1.00  0.00     0.054 C 
HETATM    9  C11 UNL     1      23.601   8.039  49.002  1.00  0.00    -0.022 C 
HETATM   10  C12 UNL     1      24.648   7.772  48.261  1.00  0.00     0.008 C 
HETATM   11  C13 UNL     1      25.737   6.828  48.412  1.00  0.00    -0.023 A 
HETATM   12  C14 UNL     1      27.045   7.119  48.125  1.00  0.00     0.012 A 
HETATM   13  C15 UNL     1      28.114   6.256  48.215  1.00  0.00     0.001 A 
HETATM   14  C16 UNL     1      27.835   4.975  48.638  1.00  0.00     0.001 A 
HETATM   15  C17 UNL     1      26.512   4.645  48.939  1.00  0.00     0.015 A 
HETATM   16  C18 UNL     1      25.444   5.551  48.838  1.00  0.00     0.009 A 
ENDROOT
BRANCH   1  17
HETATM   17  C3  UNL     1      21.931   3.926  51.832  1.00  0.00     0.156 C 
BRANCH  17  18
HETATM   18  N1  UNL     1      22.469   2.971  52.665  1.00  0.00    -0.407 N 
HETATM   19  H5  UNL     1      22.519   3.201  53.688  1.00  0.00     0.154 HD
BRANCH  18  20
HETATM   20  C2  UNL     1      22.650   1.624  52.460  1.00  0.00     0.133 C 
BRANCH  20  21
HETATM   21  C1  UNL     1      21.814   0.608  53.157  1.00  0.00     0.193 C 
BRANCH  21  22
HETATM   22  O1  UNL     1      20.792   0.052  52.439  1.00  0.00    -0.399 OA
HETATM   23  H1  UNL     1      21.115  -0.398  51.643  1.00  0.00     0.209 HD
ENDBRANCH  21  22
ENDBRANCH  20  21
BRANCH  20  24
HETATM   24  C19 UNL     1      24.083   1.137  52.400  1.00  0.00    -0.034 A 
HETATM   25  C20 UNL     1      25.105   1.732  51.733  1.00  0.00     0.009 A 
HETATM   26  C21 UNL     1      26.395   1.267  51.701  1.00  0.00     0.001 A 
HETATM   27  C22 UNL     1      26.707   0.113  52.388  1.00  0.00     0.000 A 
HETATM   28  C23 UNL     1      25.745  -0.552  53.087  1.00  0.00     0.001 A 
HETATM   29  C24 UNL     1      24.486  -0.023  53.067  1.00  0.00     0.009 A 
ENDBRANCH  20  24
ENDBRANCH  18  20
ENDBRANCH  17  18
ENDBRANCH   1  17
TORSDOF 6
ENDMDL
MODEL 9
REMARK VINA RESULT:      -7.9      2.225      3.980
REMARK  6 active torsions:
REMARK  status: ('A' for Active; 'I' for Inactive)
REMARK    1  A    between atoms: O1_1  and  C1_2 
REMARK    2  A    between atoms: C1_2  and  C2_3 
REMARK    3  A    between atoms: C2_3  and  N1_4 
REMARK    4  A    between atoms: C2_3  and  C19_22 
REMARK    5  A    between atoms: N1_4  and  C3_5 
REMARK    6  A    between atoms: C3_5  and  C4_6 
ROOT
HETATM    1  C4  UNL     1      25.754   2.781  50.818  1.00  0.00    -0.005 A 
HETATM    2  C5  UNL     1      25.814   2.411  52.164  1.00  0.00     0.152 A 
HETATM    3  O2  UNL     1      24.586   2.160  52.586  1.00  0.00    -0.320 OA
HETATM    4  C6  UNL     1      23.707   2.330  51.644  1.00  0.00     0.097 A 
HETATM    5  C7  UNL     1      24.403   2.730  50.483  1.00  0.00     0.008 A 
HETATM    6  C8  UNL     1      23.380   2.909  49.461  1.00  0.00     0.011 C 
HETATM    7  C9  UNL     1      22.831   4.078  49.656  1.00  0.00    -0.022 C 
HETATM    8  C10 UNL     1      23.066   5.138  50.632  1.00  0.00     0.054 C 
HETATM    9  C11 UNL     1      22.139   5.219  51.769  1.00  0.00    -0.022 C 
HETATM   10  C12 UNL     1      21.381   4.320  52.346  1.00  0.00     0.008 C 
HETATM   11  C13 UNL     1      21.171   2.909  52.091  1.00  0.00    -0.023 A 
HETATM   12  C14 UNL     1      19.944   2.300  52.137  1.00  0.00     0.012 A 
HETATM   13  C15 UNL     1      19.687   0.962  51.938  1.00  0.00     0.001 A 
HETATM   14  C16 UNL     1      20.775   0.162  51.665  1.00  0.00     0.001 A 
HETATM   15  C17 UNL     1      22.039   0.751  51.610  1.00  0.00     0.015 A 
HETATM   16  C18 UNL     1      22.267   2.121  51.816  1.00  0.00     0.009 A 
ENDROOT
BRANCH   1  17
HETATM   17  C3  UNL     1      26.477   3.204  49.570  1.00  0.00     0.156 C 
BRANCH  17  18
HETATM   18  N1  UNL     1      27.003   4.475  49.631  1.00  0.00    -0.407 N 
HETATM   19  H5  UNL     1      27.751   4.651  50.346  1.00  0.00     0.154 HD
BRANCH  18  20
HETATM   20  C2  UNL     1      26.974   5.486  48.700  1.00  0.00     0.133 C 
BRANCH  20  21
HETATM   21  C1  UNL     1      28.224   6.077  48.149  1.00  0.00     0.193 C 
BRANCH  21  22
HETATM   22  O1  UNL     1      29.126   6.566  49.054  1.00  0.00    -0.399 OA
HETATM   23  H1  UNL     1      28.713   7.183  49.677  1.00  0.00     0.209 HD
ENDBRANCH  21  22
ENDBRANCH  20  21
BRANCH  20  24
HETATM   24  C19 UNL     1      25.960   6.587  48.931  1.00  0.00    -0.034 A 
HETATM   25  C20 UNL     1      25.893   7.401  50.016  1.00  0.00     0.009 A 
HETATM   26  C21 UNL     1      24.962   8.393  50.194  1.00  0.00     0.001 A 
HETATM   27  C22 UNL     1      24.012   8.603  49.217  1.00  0.00     0.000 A 
HETATM   28  C23 UNL     1      24.003   7.834  48.091  1.00  0.00     0.001 A 
HETATM   29  C24 UNL     1      24.963   6.868  47.992  1.00  0.00     0.009 A 
ENDBRANCH  20  24
ENDBRANCH  18  20
ENDBRANCH  17  18
ENDBRANCH   1  17
TORSDOF 6
ENDMDL
