MODEL 1
REMARK VINA RESULT:      -8.3      0.000      0.000
REMARK  5 active torsions:
REMARK  status: ('A' for Active; 'I' for Inactive)
REMARK    1  A    between atoms: N1_9  and  C8_10 
REMARK    2  A    between atoms: N3_18  and  C14_19 
REMARK    3  A    between atoms: C14_19  and  C15_20 
REMARK    4  A    between atoms: C15_20  and  C16_21 
REMARK    5  A    between atoms: C17_22  and  C18_23 
ROOT
HETATM    1  F1  UNL     1      28.802  -0.466  54.851  1.00  0.00    -0.211 F 
HETATM    2  C1  UNL     1      27.695  -0.083  54.125  1.00  0.00     0.090 C 
HETATM    3  C2  UNL     1      27.574  -0.349  52.828  1.00  0.00     0.013 C 
HETATM    4  C3  UNL     1      26.361   0.081  52.070  1.00  0.00     0.064 C 
HETATM    5  C4  UNL     1      25.896   1.469  52.453  1.00  0.00     0.066 C 
HETATM    6  C5  UNL     1      26.048   1.767  53.902  1.00  0.00     0.041 C 
HETATM    7  C6  UNL     1      26.571   0.653  54.754  1.00  0.00     0.072 C 
HETATM    8  C7  UNL     1      26.815   2.411  51.640  1.00  0.00     0.177 C 
HETATM    9  N1  UNL     1      25.960   3.034  50.647  1.00  0.00    -0.293 N 
HETATM   10  N2  UNL     1      24.840   2.186  50.564  1.00  0.00    -0.148 NA
HETATM   11  N3  UNL     1      24.670   1.711  51.836  1.00  0.00    -0.318 N 
HETATM   12  H14 UNL     1      24.014   2.802  50.351  1.00  0.00     0.172 HD
ENDROOT
BRANCH   9  13
HETATM   13  C8  UNL     1      26.127   4.226  49.899  1.00  0.00     0.047 A 
HETATM   14  C9  UNL     1      25.211   5.248  49.855  1.00  0.00     0.032 A 
HETATM   15  C10 UNL     1      25.486   6.377  49.092  1.00  0.00     0.021 A 
HETATM   16  C11 UNL     1      26.649   6.498  48.379  1.00  0.00     0.011 A 
HETATM   17 BR1  UNL     1      27.044   8.047  47.320  1.00  0.00    -0.051 Br
HETATM   18  C12 UNL     1      27.601   5.495  48.392  1.00  0.00     0.021 A 
HETATM   19  C13 UNL     1      27.282   4.400  49.161  1.00  0.00     0.032 A 
ENDBRANCH   9  13
BRANCH  11  20
HETATM   20  C14 UNL     1      23.505   2.021  52.508  1.00  0.00     0.143 C 
BRANCH  20  21
HETATM   21  C15 UNL     1      22.303   1.355  51.889  1.00  0.00     0.048 C 
BRANCH  21  22
HETATM   22  C16 UNL     1      22.133   0.002  52.536  1.00  0.00    -0.028 C 
HETATM   23  C17 UNL     1      22.148  -0.027  53.861  1.00  0.00    -0.016 C 
BRANCH  23  24
HETATM   24  C18 UNL     1      22.012  -1.151  54.830  1.00  0.00     0.141 C 
HETATM   25 CL1  UNL     1      23.547  -1.389  55.689  1.00  0.00    -0.126 Cl
ENDBRANCH  23  24
ENDBRANCH  21  22
ENDBRANCH  20  21
ENDBRANCH  11  20
TORSDOF 5
ENDMDL
MODEL 2
REMARK VINA RESULT:      -7.8      2.860      4.296
REMARK  5 active torsions:
REMARK  status: ('A' for Active; 'I' for Inactive)
REMARK    1  A    between atoms: N1_9  and  C8_10 
REMARK    2  A    between atoms: N3_18  and  C14_19 
REMARK    3  A    between atoms: C14_19  and  C15_20 
REMARK    4  A    between atoms: C15_20  and  C16_21 
REMARK    5  A    between atoms: C17_22  and  C18_23 
ROOT
HETATM    1  F1  UNL     1      18.889   2.068  50.552  1.00  0.00    -0.211 F 
HETATM    2  C1  UNL     1      20.167   2.043  51.065  1.00  0.00     0.090 C 
HETATM    3  C2  UNL     1      20.660   3.046  51.785  1.00  0.00     0.013 C 
HETATM    4  C3  UNL     1      22.050   2.988  52.326  1.00  0.00     0.064 C 
HETATM    5  C4  UNL     1      23.037   2.409  51.335  1.00  0.00     0.066 C 
HETATM    6  C5  UNL     1      22.476   1.297  50.521  1.00  0.00     0.041 C 
HETATM    7  C6  UNL     1      21.072   0.890  50.839  1.00  0.00     0.072 C 
HETATM    8  C7  UNL     1      23.380   3.597  50.407  1.00  0.00     0.177 C 
HETATM    9  N1  UNL     1      24.762   3.934  50.694  1.00  0.00    -0.293 N 
HETATM   10  N2  UNL     1      25.006   3.372  51.961  1.00  0.00    -0.148 NA
HETATM   11  N3  UNL     1      24.258   2.227  51.982  1.00  0.00    -0.318 N 
HETATM   12  H14 UNL     1      26.017   3.082  51.969  1.00  0.00     0.172 HD
ENDROOT
BRANCH   9  13
HETATM   13  C8  UNL     1      25.720   4.645  49.928  1.00  0.00     0.047 A 
HETATM   14  C9  UNL     1      26.818   4.072  49.337  1.00  0.00     0.032 A 
HETATM   15  C10 UNL     1      27.687   4.868  48.600  1.00  0.00     0.021 A 
HETATM   16  C11 UNL     1      27.478   6.213  48.448  1.00  0.00     0.011 A 
HETATM   17 BR1  UNL     1      28.667   7.326  47.436  1.00  0.00    -0.051 Br
HETATM   18  C12 UNL     1      26.385   6.835  49.025  1.00  0.00     0.021 A 
HETATM   19  C13 UNL     1      25.557   6.004  49.743  1.00  0.00     0.032 A 
ENDBRANCH   9  13
BRANCH  11  20
HETATM   20  C14 UNL     1      24.908   1.014  52.098  1.00  0.00     0.143 C 
BRANCH  20  21
HETATM   21  C15 UNL     1      24.766   0.429  53.479  1.00  0.00     0.048 C 
BRANCH  21  22
HETATM   22  C16 UNL     1      23.758  -0.692  53.411  1.00  0.00    -0.028 C 
HETATM   23  C17 UNL     1      22.623  -0.506  54.069  1.00  0.00    -0.016 C 
BRANCH  23  24
HETATM   24  C18 UNL     1      21.418  -1.369  54.230  1.00  0.00     0.141 C 
HETATM   25 CL1  UNL     1      19.963  -0.457  53.779  1.00  0.00    -0.126 Cl
ENDBRANCH  23  24
ENDBRANCH  21  22
ENDBRANCH  20  21
ENDBRANCH  11  20
TORSDOF 5
ENDMDL
MODEL 3
REMARK VINA RESULT:      -7.8      1.717      2.260
REMARK  5 active torsions:
REMARK  status: ('A' for Active; 'I' for Inactive)
REMARK    1  A    between atoms: N1_9  and  C8_10 
REMARK    2  A    between atoms: N3_18  and  C14_19 
REMARK    3  A    between atoms: C14_19  and  C15_20 
REMARK    4  A    between atoms: C15_20  and  C16_21 
REMARK    5  A    between atoms: C17_22  and  C18_23 
ROOT
HETATM    1  F1  UNL     1      29.019  -0.495  54.852  1.00  0.00    -0.211 F 
HETATM    2  C1  UNL     1      27.870  -0.126  54.186  1.00  0.00     0.090 C 
HETATM    3  C2  UNL     1      27.673  -0.417  52.904  1.00  0.00     0.013 C 
HETATM    4  C3  UNL     1      26.416  -0.002  52.211  1.00  0.00     0.064 C 
HETATM    5  C4  UNL     1      25.974   1.394  52.593  1.00  0.00     0.066 C 
HETATM    6  C5  UNL     1      26.212   1.720  54.025  1.00  0.00     0.041 C 
HETATM    7  C6  UNL     1      26.785   0.622  54.865  1.00  0.00     0.072 C 
HETATM    8  C7  UNL     1      26.842   2.319  51.709  1.00  0.00     0.177 C 
HETATM    9  N1  UNL     1      25.929   2.923  50.757  1.00  0.00    -0.293 N 
HETATM   10  N2  UNL     1      24.807   2.074  50.757  1.00  0.00    -0.148 NA
HETATM   11  N3  UNL     1      24.714   1.624  52.045  1.00  0.00    -0.318 N 
HETATM   12  H14 UNL     1      23.969   2.687  50.582  1.00  0.00     0.172 HD
ENDROOT
BRANCH   9  13
HETATM   13  C8  UNL     1      26.050   4.101  49.977  1.00  0.00     0.047 A 
HETATM   14  C9  UNL     1      27.141   4.406  49.200  1.00  0.00     0.032 A 
HETATM   15  C10 UNL     1      27.146   5.588  48.469  1.00  0.00     0.021 A 
HETATM   16  C11 UNL     1      26.090   6.460  48.503  1.00  0.00     0.011 A 
HETATM   17 BR1  UNL     1      26.081   8.096  47.501  1.00  0.00    -0.051 Br
HETATM   18  C12 UNL     1      24.970   6.195  49.270  1.00  0.00     0.021 A 
HETATM   19  C13 UNL     1      25.014   5.015  49.974  1.00  0.00     0.032 A 
ENDBRANCH   9  13
BRANCH  11  20
HETATM   20  C14 UNL     1      23.590   1.947  52.780  1.00  0.00     0.143 C 
BRANCH  20  21
HETATM   21  C15 UNL     1      22.848   0.721  53.244  1.00  0.00     0.048 C 
BRANCH  21  22
HETATM   22  C16 UNL     1      22.026   0.205  52.089  1.00  0.00    -0.028 C 
HETATM   23  C17 UNL     1      21.355   1.109  51.390  1.00  0.00    -0.016 C 
BRANCH  23  24
HETATM   24  C18 UNL     1      20.456   0.980  50.207  1.00  0.00     0.141 C 
HETATM   25 CL1  UNL     1      21.423   0.973  48.719  1.00  0.00    -0.126 Cl
ENDBRANCH  23  24
ENDBRANCH  21  22
ENDBRANCH  20  21
ENDBRANCH  11  20
TORSDOF 5
ENDMDL
MODEL 4
REMARK VINA RESULT:      -7.7      3.925      6.800
REMARK  5 active torsions:
REMARK  status: ('A' for Active; 'I' for Inactive)
REMARK    1  A    between atoms: N1_9  and  C8_10 
REMARK    2  A    between atoms: N3_18  and  C14_19 
REMARK    3  A    between atoms: C14_19  and  C15_20 
REMARK    4  A    between atoms: C15_20  and  C16_21 
REMARK    5  A    between atoms: C17_22  and  C18_23 
ROOT
HETATM    1  F1  UNL     1      29.414  -0.934  54.588  1.00  0.00    -0.211 F 
HETATM    2  C1  UNL     1      28.429  -0.134  54.052  1.00  0.00     0.090 C 
HETATM    3  C2  UNL     1      27.639   0.618  54.812  1.00  0.00     0.013 C 
HETATM    4  C3  UNL     1      26.580   1.475  54.200  1.00  0.00     0.064 C 
HETATM    5  C4  UNL     1      25.854   0.783  53.067  1.00  0.00     0.066 C 
HETATM    6  C5  UNL     1      26.739  -0.069  52.229  1.00  0.00     0.041 C 
HETATM    7  C6  UNL     1      28.192  -0.068  52.590  1.00  0.00     0.072 C 
HETATM    8  C7  UNL     1      24.810  -0.109  53.777  1.00  0.00     0.177 C 
HETATM    9  N1  UNL     1      23.518   0.474  53.469  1.00  0.00    -0.293 N 
HETATM   10  N2  UNL     1      23.811   1.795  53.083  1.00  0.00    -0.148 NA
HETATM   11  N3  UNL     1      25.018   1.710  52.445  1.00  0.00    -0.318 N 
HETATM   12  H14 UNL     1      23.096   2.060  52.357  1.00  0.00     0.172 HD
ENDROOT
BRANCH   9  13
HETATM   13  C8  UNL     1      22.216  -0.086  53.505  1.00  0.00     0.047 A 
HETATM   14  C9  UNL     1      21.869  -1.191  54.243  1.00  0.00     0.032 A 
HETATM   15  C10 UNL     1      20.557  -1.647  54.208  1.00  0.00     0.021 A 
HETATM   16  C11 UNL     1      19.598  -1.025  53.454  1.00  0.00     0.011 A 
HETATM   17 BR1  UNL     1      17.783  -1.642  53.393  1.00  0.00    -0.051 Br
HETATM   18  C12 UNL     1      19.900   0.091  52.695  1.00  0.00     0.021 A 
HETATM   19  C13 UNL     1      21.211   0.503  52.763  1.00  0.00     0.032 A 
ENDBRANCH   9  13
BRANCH  11  20
HETATM   20  C14 UNL     1      25.087   2.051  51.109  1.00  0.00     0.143 C 
BRANCH  20  21
HETATM   21  C15 UNL     1      23.828   2.727  50.634  1.00  0.00     0.048 C 
BRANCH  21  22
HETATM   22  C16 UNL     1      24.216   3.796  49.642  1.00  0.00    -0.028 C 
HETATM   23  C17 UNL     1      25.384   4.390  49.839  1.00  0.00    -0.016 C 
BRANCH  23  24
HETATM   24  C18 UNL     1      26.088   5.467  49.087  1.00  0.00     0.141 C 
HETATM   25 CL1  UNL     1      27.691   4.896  48.582  1.00  0.00    -0.126 Cl
ENDBRANCH  23  24
ENDBRANCH  21  22
ENDBRANCH  20  21
ENDBRANCH  11  20
TORSDOF 5
ENDMDL
MODEL 5
REMARK VINA RESULT:      -7.5      3.063      4.815
REMARK  5 active torsions:
REMARK  status: ('A' for Active; 'I' for Inactive)
REMARK    1  A    between atoms: N1_9  and  C8_10 
REMARK    2  A    between atoms: N3_18  and  C14_19 
REMARK    3  A    between atoms: C14_19  and  C15_20 
REMARK    4  A    between atoms: C15_20  and  C16_21 
REMARK    5  A    between atoms: C17_22  and  C18_23 
ROOT
HETATM    1  F1  UNL     1      18.830   2.049  50.962  1.00  0.00    -0.211 F 
HETATM    2  C1  UNL     1      20.142   2.022  51.384  1.00  0.00     0.090 C 
HETATM    3  C2  UNL     1      20.662   2.987  52.135  1.00  0.00     0.013 C 
HETATM    4  C3  UNL     1      22.088   2.927  52.576  1.00  0.00     0.064 C 
HETATM    5  C4  UNL     1      23.015   2.439  51.485  1.00  0.00     0.066 C 
HETATM    6  C5  UNL     1      22.422   1.369  50.637  1.00  0.00     0.041 C 
HETATM    7  C6  UNL     1      21.051   0.908  51.020  1.00  0.00     0.072 C 
HETATM    8  C7  UNL     1      23.270   3.693  50.618  1.00  0.00     0.177 C 
HETATM    9  N1  UNL     1      24.661   4.045  50.833  1.00  0.00    -0.293 N 
HETATM   10  N2  UNL     1      25.003   3.407  52.040  1.00  0.00    -0.148 NA
HETATM   11  N3  UNL     1      24.281   2.245  52.034  1.00  0.00    -0.318 N 
HETATM   12  H14 UNL     1      26.018   3.141  51.960  1.00  0.00     0.172 HD
ENDROOT
BRANCH   9  13
HETATM   13  C8  UNL     1      25.550   4.828  50.054  1.00  0.00     0.047 A 
HETATM   14  C9  UNL     1      25.437   6.186  49.882  1.00  0.00     0.032 A 
HETATM   15  C10 UNL     1      26.374   6.852  49.101  1.00  0.00     0.021 A 
HETATM   16  C11 UNL     1      27.409   6.190  48.496  1.00  0.00     0.011 A 
HETATM   17 BR1  UNL     1      28.710   7.094  47.415  1.00  0.00    -0.051 Br
HETATM   18  C12 UNL     1      27.564   4.823  48.642  1.00  0.00     0.021 A 
HETATM   19  C13 UNL     1      26.612   4.211  49.423  1.00  0.00     0.032 A 
ENDBRANCH   9  13
BRANCH  11  20
HETATM   20  C14 UNL     1      24.962   1.043  52.024  1.00  0.00     0.143 C 
BRANCH  20  21
HETATM   21  C15 UNL     1      26.424   1.226  51.709  1.00  0.00     0.048 C 
BRANCH  21  22
HETATM   22  C16 UNL     1      27.199   0.172  52.461  1.00  0.00    -0.028 C 
HETATM   23  C17 UNL     1      28.056   0.607  53.375  1.00  0.00    -0.016 C 
BRANCH  23  24
HETATM   24  C18 UNL     1      28.977  -0.119  54.295  1.00  0.00     0.141 C 
HETATM   25 CL1  UNL     1      29.510  -1.633  53.538  1.00  0.00    -0.126 Cl
ENDBRANCH  23  24
ENDBRANCH  21  22
ENDBRANCH  20  21
ENDBRANCH  11  20
TORSDOF 5
ENDMDL
MODEL 6
REMARK VINA RESULT:      -7.4      4.197      6.450
REMARK  5 active torsions:
REMARK  status: ('A' for Active; 'I' for Inactive)
REMARK    1  A    between atoms: N1_9  and  C8_10 
REMARK    2  A    between atoms: N3_18  and  C14_19 
REMARK    3  A    between atoms: C14_19  and  C15_20 
REMARK    4  A    between atoms: C15_20  and  C16_21 
REMARK    5  A    between atoms: C17_22  and  C18_23 
ROOT
HETATM    1  F1  UNL     1      29.143  -1.219  54.298  1.00  0.00    -0.211 F 
HETATM    2  C1  UNL     1      28.209  -0.296  53.881  1.00  0.00     0.090 C 
HETATM    3  C2  UNL     1      27.446   0.375  54.738  1.00  0.00     0.013 C 
HETATM    4  C3  UNL     1      26.443   1.369  54.253  1.00  0.00     0.064 C 
HETATM    5  C4  UNL     1      25.701   0.894  53.022  1.00  0.00     0.066 C 
HETATM    6  C5  UNL     1      26.555   0.131  52.073  1.00  0.00     0.041 C 
HETATM    7  C6  UNL     1      28.000   0.001  52.443  1.00  0.00     0.072 C 
HETATM    8  C7  UNL     1      24.601  -0.038  53.581  1.00  0.00     0.177 C 
HETATM    9  N1  UNL     1      23.346   0.653  53.354  1.00  0.00    -0.293 N 
HETATM   10  N2  UNL     1      23.713   1.999  53.173  1.00  0.00    -0.148 NA
HETATM   11  N3  UNL     1      24.925   1.946  52.540  1.00  0.00    -0.318 N 
HETATM   12  H14 UNL     1      23.025   2.407  52.489  1.00  0.00     0.172 HD
ENDROOT
BRANCH   9  13
HETATM   13  C8  UNL     1      22.017   0.163  53.294  1.00  0.00     0.047 A 
HETATM   14  C9  UNL     1      21.037   0.680  52.482  1.00  0.00     0.032 A 
HETATM   15  C10 UNL     1      19.769   0.112  52.501  1.00  0.00     0.021 A 
HETATM   16  C11 UNL     1      19.468  -0.952  53.310  1.00  0.00     0.011 A 
HETATM   17 BR1  UNL     1      17.723  -1.747  53.348  1.00  0.00    -0.051 Br
HETATM   18  C12 UNL     1      20.422  -1.506  54.143  1.00  0.00     0.021 A 
HETATM   19  C13 UNL     1      21.660  -0.909  54.088  1.00  0.00     0.032 A 
ENDBRANCH   9  13
BRANCH  11  20
HETATM   20  C14 UNL     1      25.033   2.479  51.271  1.00  0.00     0.143 C 
BRANCH  20  21
HETATM   21  C15 UNL     1      23.848   3.341  50.918  1.00  0.00     0.048 C 
BRANCH  21  22
HETATM   22  C16 UNL     1      23.318   2.884  49.581  1.00  0.00    -0.028 C 
HETATM   23  C17 UNL     1      22.342   1.988  49.606  1.00  0.00    -0.016 C 
BRANCH  23  24
HETATM   24  C18 UNL     1      21.585   1.316  48.512  1.00  0.00     0.141 C 
HETATM   25 CL1  UNL     1      20.591   2.509  47.652  1.00  0.00    -0.126 Cl
ENDBRANCH  23  24
ENDBRANCH  21  22
ENDBRANCH  20  21
ENDBRANCH  11  20
TORSDOF 5
ENDMDL
MODEL 7
REMARK VINA RESULT:      -7.4      3.730      5.841
REMARK  5 active torsions:
REMARK  status: ('A' for Active; 'I' for Inactive)
REMARK    1  A    between atoms: N1_9  and  C8_10 
REMARK    2  A    between atoms: N3_18  and  C14_19 
REMARK    3  A    between atoms: C14_19  and  C15_20 
REMARK    4  A    between atoms: C15_20  and  C16_21 
REMARK    5  A    between atoms: C17_22  and  C18_23 
ROOT
HETATM    1  F1  UNL     1      23.422   6.063  47.400  1.00  0.00    -0.211 F 
HETATM    2  C1  UNL     1      23.195   5.299  48.524  1.00  0.00     0.090 C 
HETATM    3  C2  UNL     1      23.569   5.697  49.736  1.00  0.00     0.013 C 
HETATM    4  C3  UNL     1      23.309   4.846  50.935  1.00  0.00     0.064 C 
HETATM    5  C4  UNL     1      23.562   3.377  50.672  1.00  0.00     0.066 C 
HETATM    6  C5  UNL     1      23.156   2.940  49.309  1.00  0.00     0.041 C 
HETATM    7  C6  UNL     1      22.519   3.982  48.444  1.00  0.00     0.072 C 
HETATM    8  C7  UNL     1      25.094   3.226  50.820  1.00  0.00     0.177 C 
HETATM    9  N1  UNL     1      25.298   2.445  52.025  1.00  0.00    -0.293 N 
HETATM   10  N2  UNL     1      24.093   2.578  52.740  1.00  0.00    -0.148 NA
HETATM   11  N3  UNL     1      23.125   2.648  51.776  1.00  0.00    -0.318 N 
HETATM   12  H14 UNL     1      23.951   1.672  53.257  1.00  0.00     0.172 HD
ENDROOT
BRANCH   9  13
HETATM   13  C8  UNL     1      26.412   1.680  52.455  1.00  0.00     0.047 A 
HETATM   14  C9  UNL     1      27.564   2.216  52.976  1.00  0.00     0.032 A 
HETATM   15  C10 UNL     1      28.590   1.367  53.374  1.00  0.00     0.021 A 
HETATM   16  C11 UNL     1      28.483   0.006  53.259  1.00  0.00     0.011 A 
HETATM   17 BR1  UNL     1      29.889  -1.180  53.802  1.00  0.00    -0.051 Br
HETATM   18  C12 UNL     1      27.342  -0.579  52.741  1.00  0.00     0.021 A 
HETATM   19  C13 UNL     1      26.358   0.303  52.362  1.00  0.00     0.032 A 
ENDBRANCH   9  13
BRANCH  11  20
HETATM   20  C14 UNL     1      22.167   1.655  51.728  1.00  0.00     0.143 C 
BRANCH  20  21
HETATM   21  C15 UNL     1      20.937   2.019  52.518  1.00  0.00     0.048 C 
BRANCH  21  22
HETATM   22  C16 UNL     1      20.661   0.903  53.495  1.00  0.00    -0.028 C 
HETATM   23  C17 UNL     1      21.503  -0.120  53.478  1.00  0.00    -0.016 C 
BRANCH  23  24
HETATM   24  C18 UNL     1      21.552  -1.377  54.278  1.00  0.00     0.141 C 
HETATM   25 CL1  UNL     1      22.971  -1.352  55.345  1.00  0.00    -0.126 Cl
ENDBRANCH  23  24
ENDBRANCH  21  22
ENDBRANCH  20  21
ENDBRANCH  11  20
TORSDOF 5
ENDMDL
MODEL 8
REMARK VINA RESULT:      -7.1      3.976      6.073
REMARK  5 active torsions:
REMARK  status: ('A' for Active; 'I' for Inactive)
REMARK    1  A    between atoms: N1_9  and  C8_10 
REMARK    2  A    between atoms: N3_18  and  C14_19 
REMARK    3  A    between atoms: C14_19  and  C15_20 
REMARK    4  A    between atoms: C15_20  and  C16_21 
REMARK    5  A    between atoms: C17_22  and  C18_23 
ROOT
HETATM    1  F1  UNL     1      23.422   6.046  47.227  1.00  0.00    -0.211 F 
HETATM    2  C1  UNL     1      23.230   5.460  48.459  1.00  0.00     0.090 C 
HETATM    3  C2  UNL     1      23.854   5.891  49.551  1.00  0.00     0.013 C 
HETATM    4  C3  UNL     1      23.625   5.234  50.873  1.00  0.00     0.064 C 
HETATM    5  C4  UNL     1      23.554   3.726  50.768  1.00  0.00     0.066 C 
HETATM    6  C5  UNL     1      22.868   3.248  49.537  1.00  0.00     0.041 C 
HETATM    7  C6  UNL     1      22.314   4.308  48.637  1.00  0.00     0.072 C 
HETATM    8  C7  UNL     1      25.034   3.281  50.733  1.00  0.00     0.177 C 
HETATM    9  N1  UNL     1      25.270   2.597  51.990  1.00  0.00    -0.293 N 
HETATM   10  N2  UNL     1      24.236   3.044  52.834  1.00  0.00    -0.148 NA
HETATM   11  N3  UNL     1      23.162   3.215  52.004  1.00  0.00    -0.318 N 
HETATM   12  H14 UNL     1      24.007   2.243  53.476  1.00  0.00     0.172 HD
ENDROOT
BRANCH   9  13
HETATM   13  C8  UNL     1      26.273   1.667  52.365  1.00  0.00     0.047 A 
HETATM   14  C9  UNL     1      26.178   0.310  52.181  1.00  0.00     0.032 A 
HETATM   15  C10 UNL     1      27.229  -0.506  52.580  1.00  0.00     0.021 A 
HETATM   16  C11 UNL     1      28.361   0.008  53.156  1.00  0.00     0.011 A 
HETATM   17 BR1  UNL     1      29.821  -1.104  53.714  1.00  0.00    -0.051 Br
HETATM   18  C12 UNL     1      28.502   1.368  53.361  1.00  0.00     0.021 A 
HETATM   19  C13 UNL     1      27.435   2.132  52.949  1.00  0.00     0.032 A 
ENDBRANCH   9  13
BRANCH  11  20
HETATM   20  C14 UNL     1      22.038   2.439  52.208  1.00  0.00     0.143 C 
BRANCH  20  21
HETATM   21  C15 UNL     1      22.358   0.967  52.186  1.00  0.00     0.048 C 
BRANCH  21  22
HETATM   22  C16 UNL     1      21.232   0.254  51.478  1.00  0.00    -0.028 C 
HETATM   23  C17 UNL     1      20.019   0.407  51.991  1.00  0.00    -0.016 C 
BRANCH  23  24
HETATM   24  C18 UNL     1      18.692  -0.130  51.576  1.00  0.00     0.141 C 
HETATM   25 CL1  UNL     1      18.020  -1.133  52.876  1.00  0.00    -0.126 Cl
ENDBRANCH  23  24
ENDBRANCH  21  22
ENDBRANCH  20  21
ENDBRANCH  11  20
TORSDOF 5
ENDMDL
MODEL 9
REMARK VINA RESULT:      -7.0      3.018      4.100
REMARK  5 active torsions:
REMARK  status: ('A' for Active; 'I' for Inactive)
REMARK    1  A    between atoms: N1_9  and  C8_10 
REMARK    2  A    between atoms: N3_18  and  C14_19 
REMARK    3  A    between atoms: C14_19  and  C15_20 
REMARK    4  A    between atoms: C15_20  and  C16_21 
REMARK    5  A    between atoms: C17_22  and  C18_23 
ROOT
HETATM    1  F1  UNL     1      22.460  -1.348  55.752  1.00  0.00    -0.211 F 
HETATM    2  C1  UNL     1      22.096  -0.812  54.536  1.00  0.00     0.090 C 
HETATM    3  C2  UNL     1      22.765  -1.078  53.418  1.00  0.00     0.013 C 
HETATM    4  C3  UNL     1      22.345  -0.480  52.116  1.00  0.00     0.064 C 
HETATM    5  C4  UNL     1      21.931   0.970  52.247  1.00  0.00     0.066 C 
HETATM    6  C5  UNL     1      21.197   1.265  53.507  1.00  0.00     0.041 C 
HETATM    7  C6  UNL     1      20.933   0.099  54.406  1.00  0.00     0.072 C 
HETATM    8  C7  UNL     1      23.269   1.745  52.243  1.00  0.00     0.177 C 
HETATM    9  N1  UNL     1      23.297   2.475  50.990  1.00  0.00    -0.293 N 
HETATM   10  N2  UNL     1      22.366   1.808  50.173  1.00  0.00    -0.148 NA
HETATM   11  N3  UNL     1      21.390   1.387  51.033  1.00  0.00    -0.318 N 
HETATM   12  H14 UNL     1      21.936   2.541  49.551  1.00  0.00     0.172 HD
ENDROOT
BRANCH   9  13
HETATM   13  C8  UNL     1      24.045   3.615  50.599  1.00  0.00     0.047 A 
HETATM   14  C9  UNL     1      25.042   3.600  49.656  1.00  0.00     0.032 A 
HETATM   15  C10 UNL     1      25.703   4.783  49.346  1.00  0.00     0.021 A 
HETATM   16  C11 UNL     1      25.386   5.966  49.958  1.00  0.00     0.011 A 
HETATM   17 BR1  UNL     1      26.288   7.607  49.544  1.00  0.00    -0.051 Br
HETATM   18  C12 UNL     1      24.389   6.030  50.915  1.00  0.00     0.021 A 
HETATM   19  C13 UNL     1      23.766   4.834  51.185  1.00  0.00     0.032 A 
ENDBRANCH   9  13
BRANCH  11  20
HETATM   20  C14 UNL     1      20.111   1.884  50.877  1.00  0.00     0.143 C 
BRANCH  20  21
HETATM   21  C15 UNL     1      19.158   0.837  50.360  1.00  0.00     0.048 C 
BRANCH  21  22
HETATM   22  C16 UNL     1      18.110   0.594  51.418  1.00  0.00    -0.028 C 
HETATM   23  C17 UNL     1      18.171  -0.567  52.055  1.00  0.00    -0.016 C 
BRANCH  23  24
HETATM   24  C18 UNL     1      17.327  -1.149  53.137  1.00  0.00     0.141 C 
HETATM   25 CL1  UNL     1      18.081  -2.633  53.751  1.00  0.00    -0.126 Cl
ENDBRANCH  23  24
ENDBRANCH  21  22
ENDBRANCH  20  21
ENDBRANCH  11  20
TORSDOF 5
ENDMDL
