MODEL 1
REMARK VINA RESULT:      -8.0      0.000      0.000
REMARK  3 active torsions:
REMARK  status: ('A' for Active; 'I' for Inactive)
REMARK    1  A    between atoms: C3_3  and  C4_4 
REMARK    2  A    between atoms: C4_4  and  N1_5 
REMARK    3  A    between atoms: N1_5  and  C5_6 
ROOT
HETATM    1  C5  UNL     1      25.224   0.949  52.204  1.00  0.00     0.046 C 
HETATM    2  C6  UNL     1      24.171   0.474  52.802  1.00  0.00     0.039 C 
HETATM    3  C7  UNL     1      22.787   0.929  52.874  1.00  0.00    -0.035 A 
HETATM    4  C8  UNL     1      21.600   0.507  53.276  1.00  0.00    -0.015 A 
HETATM    5  C9  UNL     1      20.818   1.688  52.925  1.00  0.00     0.060 A 
HETATM    6  C10 UNL     1      22.152   2.202  52.452  1.00  0.00     0.147 A 
HETATM    7  N2  UNL     1      22.170   2.299  51.007  1.00  0.00    -0.254 N 
HETATM    8  C11 UNL     1      21.923   1.135  50.227  1.00  0.00     0.223 C 
HETATM    9  N3  UNL     1      22.029   1.399  48.948  1.00  0.00    -0.277 NA
HETATM   10  C12 UNL     1      21.650   2.737  48.457  1.00  0.00     0.210 C 
HETATM   11  C13 UNL     1      22.563   3.663  49.228  1.00  0.00     0.071 C 
HETATM   12  N4  UNL     1      22.488   3.574  50.528  1.00  0.00    -0.174 NA
HETATM   13  C14 UNL     1      23.575   4.680  48.832  1.00  0.00     0.013 C 
HETATM   14  C15 UNL     1      24.738   4.264  49.302  1.00  0.00     0.045 C 
HETATM   15  C16 UNL     1      26.119   4.701  49.315  1.00  0.00     0.002 C 
HETATM   16  C17 UNL     1      26.598   3.660  50.022  1.00  0.00     0.113 C 
HETATM   17  N5  UNL     1      26.768   2.454  50.764  1.00  0.00    -0.271 NA
HETATM   18  C18 UNL     1      25.763   1.982  51.368  1.00  0.00     0.145 C 
ENDROOT
BRANCH   1  19
HETATM   19  N1  UNL     1      26.511   0.308  52.279  1.00  0.00    -0.385 N 
HETATM   20  H8  UNL     1      27.327   0.258  51.616  1.00  0.00     0.160 HD
BRANCH  19  21
HETATM   21  C4  UNL     1      26.546  -0.364  53.561  1.00  0.00     0.147 C 
BRANCH  21  22
HETATM   22  C3  UNL     1      27.472   0.251  54.533  1.00  0.00    -0.012 C 
HETATM   23  C2  UNL     1      28.775   0.016  54.611  1.00  0.00    -0.033 C 
HETATM   24  C1  UNL     1      29.483  -0.911  53.712  1.00  0.00     0.036 C 
ENDBRANCH  21  22
ENDBRANCH  19  21
ENDBRANCH   1  19
TORSDOF 3
ENDMDL
MODEL 2
REMARK VINA RESULT:      -8.0      1.695      4.293
REMARK  3 active torsions:
REMARK  status: ('A' for Active; 'I' for Inactive)
REMARK    1  A    between atoms: C3_3  and  C4_4 
REMARK    2  A    between atoms: C4_4  and  N1_5 
REMARK    3  A    between atoms: N1_5  and  C5_6 
ROOT
HETATM    1  C5  UNL     1      25.321   0.634  52.718  1.00  0.00     0.046 C 
HETATM    2  C6  UNL     1      26.065   1.345  51.923  1.00  0.00     0.039 C 
HETATM    3  C7  UNL     1      25.750   2.302  50.868  1.00  0.00    -0.035 A 
HETATM    4  C8  UNL     1      26.344   3.203  50.104  1.00  0.00    -0.015 A 
HETATM    5  C9  UNL     1      25.180   3.653  49.349  1.00  0.00     0.060 A 
HETATM    6  C10 UNL     1      24.466   2.639  50.204  1.00  0.00     0.147 A 
HETATM    7  N2  UNL     1      23.591   3.304  51.147  1.00  0.00    -0.254 N 
HETATM    8  C11 UNL     1      24.138   4.242  52.065  1.00  0.00     0.223 C 
HETATM    9  N3  UNL     1      23.214   4.702  52.870  1.00  0.00    -0.277 NA
HETATM   10  C12 UNL     1      21.833   4.844  52.372  1.00  0.00     0.210 C 
HETATM   11  C13 UNL     1      21.466   3.439  51.953  1.00  0.00     0.071 C 
HETATM   12  N4  UNL     1      22.257   2.890  51.071  1.00  0.00    -0.174 NA
HETATM   13  C14 UNL     1      20.380   2.496  52.339  1.00  0.00     0.013 C 
HETATM   14  C15 UNL     1      20.966   1.443  52.883  1.00  0.00     0.045 C 
HETATM   15  C16 UNL     1      20.583   0.176  53.471  1.00  0.00     0.002 C 
HETATM   16  C17 UNL     1      21.832  -0.245  53.746  1.00  0.00     0.113 C 
HETATM   17  N5  UNL     1      23.244  -0.380  53.893  1.00  0.00    -0.271 NA
HETATM   18  C18 UNL     1      23.989   0.289  53.121  1.00  0.00     0.145 C 
ENDROOT
BRANCH   1  19
HETATM   19  N1  UNL     1      25.873  -0.258  53.703  1.00  0.00    -0.385 N 
HETATM   20  H8  UNL     1      25.805  -1.299  53.848  1.00  0.00     0.160 HD
BRANCH  19  21
HETATM   21  C4  UNL     1      26.638   0.574  54.607  1.00  0.00     0.147 C 
BRANCH  21  22
HETATM   22  C3  UNL     1      28.076   0.238  54.657  1.00  0.00    -0.012 C 
HETATM   23  C2  UNL     1      29.067   1.040  54.290  1.00  0.00    -0.033 C 
HETATM   24  C1  UNL     1      28.855   2.403  53.775  1.00  0.00     0.036 C 
ENDBRANCH  21  22
ENDBRANCH  19  21
ENDBRANCH   1  19
TORSDOF 3
ENDMDL
MODEL 3
REMARK VINA RESULT:      -8.0      1.751      4.511
REMARK  3 active torsions:
REMARK  status: ('A' for Active; 'I' for Inactive)
REMARK    1  A    between atoms: C3_3  and  C4_4 
REMARK    2  A    between atoms: C4_4  and  N1_5 
REMARK    3  A    between atoms: N1_5  and  C5_6 
ROOT
HETATM    1  C5  UNL     1      24.496   1.156  52.618  1.00  0.00     0.046 C 
HETATM    2  C6  UNL     1      24.672   1.956  51.608  1.00  0.00     0.039 C 
HETATM    3  C7  UNL     1      23.829   2.318  50.474  1.00  0.00    -0.035 A 
HETATM    4  C8  UNL     1      23.776   3.197  49.488  1.00  0.00    -0.015 A 
HETATM    5  C9  UNL     1      22.533   2.754  48.866  1.00  0.00     0.060 A 
HETATM    6  C10 UNL     1      22.555   1.740  49.979  1.00  0.00     0.147 A 
HETATM    7  N2  UNL     1      21.496   2.012  50.928  1.00  0.00    -0.254 N 
HETATM    8  C11 UNL     1      21.451   3.275  51.580  1.00  0.00     0.223 C 
HETATM    9  N3  UNL     1      20.461   3.325  52.436  1.00  0.00    -0.277 NA
HETATM   10  C12 UNL     1      19.225   2.573  52.149  1.00  0.00     0.210 C 
HETATM   11  C13 UNL     1      19.703   1.144  52.031  1.00  0.00     0.071 C 
HETATM   12  N4  UNL     1      20.630   0.933  51.137  1.00  0.00    -0.174 NA
HETATM   13  C14 UNL     1      19.360  -0.121  52.736  1.00  0.00     0.013 C 
HETATM   14  C15 UNL     1      20.461  -0.529  53.344  1.00  0.00     0.045 C 
HETATM   15  C16 UNL     1      20.888  -1.628  54.186  1.00  0.00     0.002 C 
HETATM   16  C17 UNL     1      22.165  -1.223  54.322  1.00  0.00     0.113 C 
HETATM   17  N5  UNL     1      23.409  -0.529  54.261  1.00  0.00    -0.271 NA
HETATM   18  C18 UNL     1      23.611   0.242  53.281  1.00  0.00     0.145 C 
ENDROOT
BRANCH   1  19
HETATM   19  N1  UNL     1      25.495   0.960  53.634  1.00  0.00    -0.385 N 
HETATM   20  H8  UNL     1      25.453   0.927  54.686  1.00  0.00     0.160 HD
BRANCH  19  21
HETATM   21  C4  UNL     1      26.750   0.800  52.931  1.00  0.00     0.147 C 
BRANCH  21  22
HETATM   22  C3  UNL     1      27.213  -0.601  52.846  1.00  0.00    -0.012 C 
HETATM   23  C2  UNL     1      28.408  -1.041  53.218  1.00  0.00    -0.033 C 
HETATM   24  C1  UNL     1      29.451  -0.168  53.780  1.00  0.00     0.036 C 
ENDBRANCH  21  22
ENDBRANCH  19  21
ENDBRANCH   1  19
TORSDOF 3
ENDMDL
MODEL 4
REMARK VINA RESULT:      -7.8      2.244      2.685
REMARK  3 active torsions:
REMARK  status: ('A' for Active; 'I' for Inactive)
REMARK    1  A    between atoms: C3_3  and  C4_4 
REMARK    2  A    between atoms: C4_4  and  N1_5 
REMARK    3  A    between atoms: N1_5  and  C5_6 
ROOT
HETATM    1  C5  UNL     1      24.384   0.831  53.091  1.00  0.00     0.046 C 
HETATM    2  C6  UNL     1      23.867  -0.294  53.490  1.00  0.00     0.039 C 
HETATM    3  C7  UNL     1      22.506  -0.689  53.831  1.00  0.00    -0.035 A 
HETATM    4  C8  UNL     1      21.798  -1.777  54.084  1.00  0.00    -0.015 A 
HETATM    5  C9  UNL     1      20.504  -1.146  54.320  1.00  0.00     0.060 A 
HETATM    6  C10 UNL     1      21.275   0.115  54.033  1.00  0.00     0.147 A 
HETATM    7  N2  UNL     1      20.854   0.685  52.770  1.00  0.00    -0.254 N 
HETATM    8  C11 UNL     1      20.961  -0.092  51.584  1.00  0.00     0.223 C 
HETATM    9  N3  UNL     1      20.584   0.599  50.537  1.00  0.00    -0.277 NA
HETATM   10  C12 UNL     1      19.523   1.612  50.688  1.00  0.00     0.210 C 
HETATM   11  C13 UNL     1      20.086   2.557  51.725  1.00  0.00     0.071 C 
HETATM   12  N4  UNL     1      20.416   2.010  52.864  1.00  0.00    -0.174 NA
HETATM   13  C14 UNL     1      20.377   4.016  51.743  1.00  0.00     0.013 C 
HETATM   14  C15 UNL     1      21.681   4.143  51.919  1.00  0.00     0.045 C 
HETATM   15  C16 UNL     1      22.658   5.206  52.036  1.00  0.00     0.002 C 
HETATM   16  C17 UNL     1      23.729   4.406  52.199  1.00  0.00     0.113 C 
HETATM   17  N5  UNL     1      24.621   3.303  52.344  1.00  0.00    -0.271 NA
HETATM   18  C18 UNL     1      24.146   2.203  52.746  1.00  0.00     0.145 C 
ENDROOT
BRANCH   1  19
HETATM   19  N1  UNL     1      25.787   0.981  52.807  1.00  0.00    -0.385 N 
HETATM   20  H8  UNL     1      26.333   1.671  52.230  1.00  0.00     0.160 HD
BRANCH  19  21
HETATM   21  C4  UNL     1      26.451  -0.097  53.510  1.00  0.00     0.147 C 
BRANCH  21  22
HETATM   22  C3  UNL     1      27.344   0.358  54.595  1.00  0.00    -0.012 C 
HETATM   23  C2  UNL     1      28.640   0.087  54.690  1.00  0.00    -0.033 C 
HETATM   24  C1  UNL     1      29.370  -0.722  53.701  1.00  0.00     0.036 C 
ENDBRANCH  21  22
ENDBRANCH  19  21
ENDBRANCH   1  19
TORSDOF 3
ENDMDL
MODEL 5
REMARK VINA RESULT:      -7.8      1.783      5.184
REMARK  3 active torsions:
REMARK  status: ('A' for Active; 'I' for Inactive)
REMARK    1  A    between atoms: C3_3  and  C4_4 
REMARK    2  A    between atoms: C4_4  and  N1_5 
REMARK    3  A    between atoms: N1_5  and  C5_6 
ROOT
HETATM    1  C5  UNL     1      24.589   2.851  50.703  1.00  0.00     0.046 C 
HETATM    2  C6  UNL     1      23.708   3.117  49.784  1.00  0.00     0.039 C 
HETATM    3  C7  UNL     1      22.478   2.450  49.373  1.00  0.00    -0.035 A 
HETATM    4  C8  UNL     1      21.418   2.656  48.609  1.00  0.00    -0.015 A 
HETATM    5  C9  UNL     1      20.726   1.394  48.849  1.00  0.00     0.060 A 
HETATM    6  C10 UNL     1      21.915   1.125  49.734  1.00  0.00     0.147 A 
HETATM    7  N2  UNL     1      21.517   1.129  51.126  1.00  0.00    -0.254 N 
HETATM    8  C11 UNL     1      20.904   2.289  51.673  1.00  0.00     0.223 C 
HETATM    9  N3  UNL     1      20.660   2.130  52.950  1.00  0.00    -0.277 NA
HETATM   10  C12 UNL     1      20.328   0.786  53.457  1.00  0.00     0.210 C 
HETATM   11  C13 UNL     1      21.538  -0.038  53.081  1.00  0.00     0.071 C 
HETATM   12  N4  UNL     1      21.840  -0.047  51.811  1.00  0.00    -0.174 NA
HETATM   13  C14 UNL     1      22.510  -0.858  53.855  1.00  0.00     0.013 C 
HETATM   14  C15 UNL     1      23.697  -0.299  53.691  1.00  0.00     0.045 C 
HETATM   15  C16 UNL     1      25.064  -0.518  54.116  1.00  0.00     0.002 C 
HETATM   16  C17 UNL     1      25.593   0.536  53.465  1.00  0.00     0.113 C 
HETATM   17  N5  UNL     1      25.818   1.701  52.675  1.00  0.00    -0.271 NA
HETATM   18  C18 UNL     1      24.985   1.971  51.764  1.00  0.00     0.145 C 
ENDROOT
BRANCH   1  19
HETATM   19  N1  UNL     1      25.747   3.676  50.926  1.00  0.00    -0.385 N 
HETATM   20  H8  UNL     1      26.404   3.785  51.741  1.00  0.00     0.160 HD
BRANCH  19  21
HETATM   21  C4  UNL     1      25.916   4.459  49.720  1.00  0.00     0.147 C 
BRANCH  21  22
HETATM   22  C3  UNL     1      27.215   4.249  49.048  1.00  0.00    -0.012 C 
HETATM   23  C2  UNL     1      27.956   5.198  48.492  1.00  0.00    -0.033 C 
HETATM   24  C1  UNL     1      27.570   6.618  48.474  1.00  0.00     0.036 C 
ENDBRANCH  21  22
ENDBRANCH  19  21
ENDBRANCH   1  19
TORSDOF 3
ENDMDL
MODEL 6
REMARK VINA RESULT:      -7.4      2.493      5.697
REMARK  3 active torsions:
REMARK  status: ('A' for Active; 'I' for Inactive)
REMARK    1  A    between atoms: C3_3  and  C4_4 
REMARK    2  A    between atoms: C4_4  and  N1_5 
REMARK    3  A    between atoms: N1_5  and  C5_6 
ROOT
HETATM    1  C5  UNL     1      21.801   3.731  52.213  1.00  0.00     0.046 C 
HETATM    2  C6  UNL     1      20.568   3.423  51.937  1.00  0.00     0.039 C 
HETATM    3  C7  UNL     1      19.900   2.152  51.684  1.00  0.00    -0.035 A 
HETATM    4  C8  UNL     1      18.682   1.653  51.558  1.00  0.00    -0.015 A 
HETATM    5  C9  UNL     1      19.040   0.260  51.314  1.00  0.00     0.060 A 
HETATM    6  C10 UNL     1      20.443   0.790  51.456  1.00  0.00     0.147 A 
HETATM    7  N2  UNL     1      21.045   0.296  52.677  1.00  0.00    -0.254 N 
HETATM    8  C11 UNL     1      20.419   0.568  53.924  1.00  0.00     0.223 C 
HETATM    9  N3  UNL     1      21.127   0.091  54.917  1.00  0.00    -0.277 NA
HETATM   10  C12 UNL     1      21.910  -1.142  54.714  1.00  0.00     0.210 C 
HETATM   11  C13 UNL     1      22.837  -0.784  53.575  1.00  0.00     0.071 C 
HETATM   12  N4  UNL     1      22.253  -0.382  52.479  1.00  0.00    -0.174 NA
HETATM   13  C14 UNL     1      24.317  -0.769  53.414  1.00  0.00     0.013 C 
HETATM   14  C15 UNL     1      24.662   0.485  53.178  1.00  0.00     0.045 C 
HETATM   15  C16 UNL     1      25.869   1.246  52.929  1.00  0.00     0.002 C 
HETATM   16  C17 UNL     1      25.266   2.443  52.799  1.00  0.00     0.113 C 
HETATM   17  N5  UNL     1      24.335   3.521  52.722  1.00  0.00    -0.271 NA
HETATM   18  C18 UNL     1      23.133   3.250  52.439  1.00  0.00     0.145 C 
ENDROOT
BRANCH   1  19
HETATM   19  N1  UNL     1      22.232   5.087  52.429  1.00  0.00    -0.385 N 
HETATM   20  H8  UNL     1      22.695   5.573  53.239  1.00  0.00     0.160 HD
BRANCH  19  21
HETATM   21  C4  UNL     1      21.889   5.809  51.221  1.00  0.00     0.147 C 
BRANCH  21  22
HETATM   22  C3  UNL     1      23.039   6.478  50.579  1.00  0.00    -0.012 C 
HETATM   23  C2  UNL     1      23.771   5.974  49.593  1.00  0.00    -0.033 C 
HETATM   24  C1  UNL     1      23.522   4.650  48.998  1.00  0.00     0.036 C 
ENDBRANCH  21  22
ENDBRANCH  19  21
ENDBRANCH   1  19
TORSDOF 3
ENDMDL
MODEL 7
REMARK VINA RESULT:      -7.4      7.155     10.846
REMARK  3 active torsions:
REMARK  status: ('A' for Active; 'I' for Inactive)
REMARK    1  A    between atoms: C3_3  and  C4_4 
REMARK    2  A    between atoms: C4_4  and  N1_5 
REMARK    3  A    between atoms: N1_5  and  C5_6 
ROOT
HETATM    1  C5  UNL     1      30.287   6.244  48.031  1.00  0.00     0.046 C 
HETATM    2  C6  UNL     1      30.744   5.070  47.706  1.00  0.00     0.039 C 
HETATM    3  C7  UNL     1      31.923   4.639  46.964  1.00  0.00    -0.035 A 
HETATM    4  C8  UNL     1      32.605   3.540  46.692  1.00  0.00    -0.015 A 
HETATM    5  C9  UNL     1      33.649   4.130  45.860  1.00  0.00     0.060 A 
HETATM    6  C10 UNL     1      32.901   5.405  46.152  1.00  0.00     0.147 A 
HETATM    7  N2  UNL     1      33.686   6.261  47.017  1.00  0.00    -0.254 N 
HETATM    8  C11 UNL     1      34.102   5.777  48.287  1.00  0.00     0.223 C 
HETATM    9  N3  UNL     1      34.755   6.700  48.948  1.00  0.00    -0.277 NA
HETATM   10  C12 UNL     1      35.572   7.676  48.203  1.00  0.00     0.210 C 
HETATM   11  C13 UNL     1      34.572   8.342  47.286  1.00  0.00     0.071 C 
HETATM   12  N4  UNL     1      33.913   7.539  46.494  1.00  0.00    -0.174 NA
HETATM   13  C14 UNL     1      34.137   9.751  47.081  1.00  0.00     0.013 C 
HETATM   14  C15 UNL     1      32.852   9.801  47.388  1.00  0.00     0.045 C 
HETATM   15  C16 UNL     1      31.789  10.784  47.434  1.00  0.00     0.002 C 
HETATM   16  C17 UNL     1      30.826   9.942  47.855  1.00  0.00     0.113 C 
HETATM   17  N5  UNL     1      30.069   8.815  48.288  1.00  0.00    -0.271 NA
HETATM   18  C18 UNL     1      30.482   7.663  47.971  1.00  0.00     0.145 C 
ENDROOT
BRANCH   1  19
HETATM   19  N1  UNL     1      29.075   6.421  48.786  1.00  0.00    -0.385 N 
HETATM   20  H8  UNL     1      28.755   7.156  49.469  1.00  0.00     0.160 HD
BRANCH  19  21
HETATM   21  C4  UNL     1      28.229   5.295  48.450  1.00  0.00     0.147 C 
BRANCH  21  22
HETATM   22  C3  UNL     1      26.811   5.482  48.817  1.00  0.00    -0.012 C 
HETATM   23  C2  UNL     1      26.031   4.562  49.371  1.00  0.00    -0.033 C 
HETATM   24  C1  UNL     1      26.494   3.204  49.701  1.00  0.00     0.036 C 
ENDBRANCH  21  22
ENDBRANCH  19  21
ENDBRANCH   1  19
TORSDOF 3
ENDMDL
MODEL 8
REMARK VINA RESULT:      -7.1      2.737      5.408
REMARK  3 active torsions:
REMARK  status: ('A' for Active; 'I' for Inactive)
REMARK    1  A    between atoms: C3_3  and  C4_4 
REMARK    2  A    between atoms: C4_4  and  N1_5 
REMARK    3  A    between atoms: N1_5  and  C5_6 
ROOT
HETATM    1  C5  UNL     1      22.150   0.708  52.274  1.00  0.00     0.046 C 
HETATM    2  C6  UNL     1      22.763   1.329  51.309  1.00  0.00     0.039 C 
HETATM    3  C7  UNL     1      22.367   1.677  49.950  1.00  0.00    -0.035 A 
HETATM    4  C8  UNL     1      22.774   2.417  48.932  1.00  0.00    -0.015 A 
HETATM    5  C9  UNL     1      21.697   2.112  47.996  1.00  0.00     0.060 A 
HETATM    6  C10 UNL     1      21.199   1.262  49.134  1.00  0.00     0.147 A 
HETATM    7  N2  UNL     1      19.989   1.830  49.694  1.00  0.00    -0.254 N 
HETATM    8  C11 UNL     1      20.013   3.156  50.205  1.00  0.00     0.223 C 
HETATM    9  N3  UNL     1      18.851   3.482  50.714  1.00  0.00    -0.277 NA
HETATM   10  C12 UNL     1      17.624   2.919  50.121  1.00  0.00     0.210 C 
HETATM   11  C13 UNL     1      17.821   1.426  50.260  1.00  0.00     0.071 C 
HETATM   12  N4  UNL     1      18.903   0.948  49.707  1.00  0.00    -0.174 NA
HETATM   13  C14 UNL     1      17.047   0.339  50.918  1.00  0.00     0.013 C 
HETATM   14  C15 UNL     1      17.824  -0.166  51.861  1.00  0.00     0.045 C 
HETATM   15  C16 UNL     1      17.766  -1.202  52.871  1.00  0.00     0.002 C 
HETATM   16  C17 UNL     1      19.005  -1.004  53.360  1.00  0.00     0.113 C 
HETATM   17  N5  UNL     1      20.327  -0.542  53.629  1.00  0.00    -0.271 NA
HETATM   18  C18 UNL     1      20.950   0.050  52.702  1.00  0.00     0.145 C 
ENDROOT
BRANCH   1  19
HETATM   19  N1  UNL     1      22.759   0.481  53.558  1.00  0.00    -0.385 N 
HETATM   20  H8  UNL     1      22.367   0.248  54.507  1.00  0.00     0.160 HD
BRANCH  19  21
HETATM   21  C4  UNL     1      24.183   0.644  53.357  1.00  0.00     0.147 C 
BRANCH  21  22
HETATM   22  C3  UNL     1      24.971  -0.573  53.642  1.00  0.00    -0.012 C 
HETATM   23  C2  UNL     1      26.090  -0.927  53.025  1.00  0.00    -0.033 C 
HETATM   24  C1  UNL     1      26.708  -0.131  51.951  1.00  0.00     0.036 C 
ENDBRANCH  21  22
ENDBRANCH  19  21
ENDBRANCH   1  19
TORSDOF 3
ENDMDL
MODEL 9
REMARK VINA RESULT:      -7.0      1.990      5.573
REMARK  3 active torsions:
REMARK  status: ('A' for Active; 'I' for Inactive)
REMARK    1  A    between atoms: C3_3  and  C4_4 
REMARK    2  A    between atoms: C4_4  and  N1_5 
REMARK    3  A    between atoms: N1_5  and  C5_6 
ROOT
HETATM    1  C5  UNL     1      24.081   3.548  50.888  1.00  0.00     0.046 C 
HETATM    2  C6  UNL     1      23.148   3.745  50.004  1.00  0.00     0.039 C 
HETATM    3  C7  UNL     1      22.058   2.909  49.514  1.00  0.00    -0.035 A 
HETATM    4  C8  UNL     1      20.964   2.996  48.776  1.00  0.00    -0.015 A 
HETATM    5  C9  UNL     1      20.529   1.607  48.865  1.00  0.00     0.060 A 
HETATM    6  C10 UNL     1      21.765   1.468  49.715  1.00  0.00     0.147 A 
HETATM    7  N2  UNL     1      21.400   1.234  51.097  1.00  0.00    -0.254 N 
HETATM    8  C11 UNL     1      20.589   2.185  51.775  1.00  0.00     0.223 C 
HETATM    9  N3  UNL     1      20.404   1.836  53.024  1.00  0.00    -0.277 NA
HETATM   10  C12 UNL     1      20.344   0.403  53.367  1.00  0.00     0.210 C 
HETATM   11  C13 UNL     1      21.681  -0.126  52.901  1.00  0.00     0.071 C 
HETATM   12  N4  UNL     1      21.954   0.070  51.640  1.00  0.00    -0.174 NA
HETATM   13  C14 UNL     1      22.805  -0.829  53.576  1.00  0.00     0.013 C 
HETATM   14  C15 UNL     1      23.861  -0.039  53.482  1.00  0.00     0.045 C 
HETATM   15  C16 UNL     1      25.253  -0.041  53.883  1.00  0.00     0.002 C 
HETATM   16  C17 UNL     1      25.560   1.162  53.362  1.00  0.00     0.113 C 
HETATM   17  N5  UNL     1      25.544   2.432  52.715  1.00  0.00    -0.271 NA
HETATM   18  C18 UNL     1      24.657   2.643  51.839  1.00  0.00     0.145 C 
ENDROOT
BRANCH   1  19
HETATM   19  N1  UNL     1      25.066   4.547  51.210  1.00  0.00    -0.385 N 
HETATM   20  H8  UNL     1      25.755   4.647  51.999  1.00  0.00     0.160 HD
BRANCH  19  21
HETATM   21  C4  UNL     1      24.971   5.548  50.168  1.00  0.00     0.147 C 
BRANCH  21  22
HETATM   22  C3  UNL     1      25.054   6.937  50.665  1.00  0.00    -0.012 C 
HETATM   23  C2  UNL     1      24.023   7.750  50.852  1.00  0.00    -0.033 C 
HETATM   24  C1  UNL     1      22.628   7.362  50.582  1.00  0.00     0.036 C 
ENDBRANCH  21  22
ENDBRANCH  19  21
ENDBRANCH   1  19
TORSDOF 3
ENDMDL
