MODEL 1
REMARK VINA RESULT:      -9.5      0.000      0.000
REMARK  7 active torsions:
REMARK  status: ('A' for Active; 'I' for Inactive)
REMARK    1  A    between atoms: N1_1  and  C1_2 
REMARK    2  A    between atoms: C5_8  and  C6_9 
REMARK    3  A    between atoms: C6_9  and  N4_10 
REMARK    4  A    between atoms: C12_17  and  C13_18 
REMARK    5  A    between atoms: C17_22  and  O1_23 
REMARK    6  A    between atoms: O1_23  and  C18_24 
REMARK    7  A    between atoms: C18_24  and  C19_25 
ROOT
HETATM    1  C1  UNL     1      25.164   6.228  49.987  1.00  0.00     0.126 C 
HETATM    2  N2  UNL     1      24.771   7.247  49.250  1.00  0.00    -0.227 NA
HETATM    3  C2  UNL     1      24.428   8.480  49.820  1.00  0.00     0.228 C 
HETATM    4  N3  UNL     1      24.949   9.295  49.018  1.00  0.00    -0.283 NA
HETATM    5  C3  UNL     1      25.677   9.042  47.856  1.00  0.00     0.150 C 
HETATM    6  C4  UNL     1      26.426   7.793  47.642  1.00  0.00     0.030 C 
HETATM    7  C5  UNL     1      27.552   7.423  48.523  1.00  0.00     0.033 C 
HETATM    8  C10 UNL     1      27.945   5.985  48.286  1.00  0.00     0.130 C 
HETATM    9  N5  UNL     1      26.916   5.072  48.811  1.00  0.00    -0.373 N 
HETATM   10  C11 UNL     1      27.021   3.707  49.313  1.00  0.00     0.097 A 
HETATM   11  C12 UNL     1      25.757   3.791  49.661  1.00  0.00    -0.002 A 
HETATM   12  C26 UNL     1      25.491   5.135  49.089  1.00  0.00     0.188 A 
ENDROOT
BRANCH  11  13
HETATM   13  C13 UNL     1      24.698   2.978  50.305  1.00  0.00    -0.023 A 
HETATM   14  C14 UNL     1      23.401   2.761  49.890  1.00  0.00     0.012 A 
HETATM   15  C15 UNL     1      22.535   1.967  50.599  1.00  0.00     0.004 A 
HETATM   16  C16 UNL     1      22.910   1.342  51.767  1.00  0.00     0.037 A 
HETATM   17  C17 UNL     1      24.202   1.536  52.213  1.00  0.00     0.070 A 
HETATM   18  C25 UNL     1      25.062   2.334  51.494  1.00  0.00     0.049 A 
BRANCH  17  19
HETATM   19  O1  UNL     1      24.612   0.913  53.397  1.00  0.00    -0.347 OA
BRANCH  19  20
HETATM   20  C18 UNL     1      25.095  -0.408  53.395  1.00  0.00     0.214 C 
BRANCH  20  21
HETATM   21  C19 UNL     1      26.555  -0.498  53.593  1.00  0.00    -0.034 A 
HETATM   22  C20 UNL     1      27.107   0.346  54.543  1.00  0.00     0.009 A 
HETATM   23  C21 UNL     1      28.460   0.355  54.816  1.00  0.00     0.001 A 
HETATM   24  C22 UNL     1      29.234  -0.528  54.086  1.00  0.00     0.000 A 
HETATM   25  C23 UNL     1      28.730  -1.382  53.136  1.00  0.00     0.001 A 
HETATM   26  C24 UNL     1      27.360  -1.360  52.891  1.00  0.00     0.009 A 
ENDBRANCH  20  21
ENDBRANCH  19  20
ENDBRANCH  17  19
ENDBRANCH  11  13
BRANCH   1  27
HETATM   27  N1  UNL     1      25.036   6.936  51.211  1.00  0.00    -0.385 N 
HETATM   28  H1  UNL     1      25.856   7.474  51.579  1.00  0.00     0.157 HD
HETATM   29  H2  UNL     1      24.119   6.924  51.753  1.00  0.00     0.157 HD
ENDBRANCH   1  27
BRANCH   7  30
HETATM   30  C6  UNL     1      28.726   8.347  48.291  1.00  0.00     0.278 C 
BRANCH  30  31
HETATM   31  N4  UNL     1      29.050   9.216  49.359  1.00  0.00     0.088 N 
HETATM   32  C7  UNL     1      30.463   9.482  49.514  1.00  0.00     0.274 C 
HETATM   33  C8  UNL     1      30.314  10.775  48.749  1.00  0.00     0.060 C 
HETATM   34  C9  UNL     1      28.850  10.602  48.984  1.00  0.00     0.274 C 
ENDBRANCH  30  31
ENDBRANCH   7  30
TORSDOF 7
ENDMDL
MODEL 2
REMARK VINA RESULT:      -9.1      1.590      1.914
REMARK  7 active torsions:
REMARK  status: ('A' for Active; 'I' for Inactive)
REMARK    1  A    between atoms: N1_1  and  C1_2 
REMARK    2  A    between atoms: C5_8  and  C6_9 
REMARK    3  A    between atoms: C6_9  and  N4_10 
REMARK    4  A    between atoms: C12_17  and  C13_18 
REMARK    5  A    between atoms: C17_22  and  O1_23 
REMARK    6  A    between atoms: O1_23  and  C18_24 
REMARK    7  A    between atoms: C18_24  and  C19_25 
ROOT
HETATM    1  C1  UNL     1      26.397   7.283  49.560  1.00  0.00     0.126 C 
HETATM    2  N2  UNL     1      25.999   8.387  48.962  1.00  0.00    -0.227 NA
HETATM    3  C2  UNL     1      25.737   9.561  49.682  1.00  0.00     0.228 C 
HETATM    4  N3  UNL     1      26.239  10.443  48.940  1.00  0.00    -0.283 NA
HETATM    5  C3  UNL     1      26.888  10.296  47.715  1.00  0.00     0.150 C 
HETATM    6  C4  UNL     1      27.576   9.056  47.322  1.00  0.00     0.030 C 
HETATM    7  C5  UNL     1      28.738   8.557  48.086  1.00  0.00     0.033 C 
HETATM    8  C10 UNL     1      29.063   7.143  47.673  1.00  0.00     0.130 C 
HETATM    9  N5  UNL     1      28.033   6.209  48.160  1.00  0.00    -0.373 N 
HETATM   10  C11 UNL     1      28.117   4.795  48.505  1.00  0.00     0.097 A 
HETATM   11  C12 UNL     1      26.879   4.880  48.938  1.00  0.00    -0.002 A 
HETATM   12  C26 UNL     1      26.630   6.285  48.532  1.00  0.00     0.188 A 
ENDROOT
BRANCH  11  13
HETATM   13  C13 UNL     1      25.830   4.033  49.556  1.00  0.00    -0.023 A 
HETATM   14  C14 UNL     1      24.510   3.885  49.188  1.00  0.00     0.012 A 
HETATM   15  C15 UNL     1      23.657   3.048  49.863  1.00  0.00     0.004 A 
HETATM   16  C16 UNL     1      24.070   2.309  50.948  1.00  0.00     0.037 A 
HETATM   17  C17 UNL     1      25.386   2.431  51.345  1.00  0.00     0.070 A 
HETATM   18  C25 UNL     1      26.233   3.273  50.661  1.00  0.00     0.049 A 
BRANCH  17  19
HETATM   19  O1  UNL     1      25.835   1.691  52.445  1.00  0.00    -0.347 OA
BRANCH  19  20
HETATM   20  C18 UNL     1      26.005   0.297  52.364  1.00  0.00     0.214 C 
BRANCH  20  21
HETATM   21  C19 UNL     1      27.332  -0.159  52.823  1.00  0.00    -0.034 A 
HETATM   22  C20 UNL     1      28.215   0.822  53.244  1.00  0.00     0.009 A 
HETATM   23  C21 UNL     1      29.486   0.520  53.692  1.00  0.00     0.001 A 
HETATM   24  C22 UNL     1      29.826  -0.820  53.697  1.00  0.00     0.000 A 
HETATM   25  C23 UNL     1      28.984  -1.825  53.289  1.00  0.00     0.001 A 
HETATM   26  C24 UNL     1      27.711  -1.477  52.845  1.00  0.00     0.009 A 
ENDBRANCH  20  21
ENDBRANCH  19  20
ENDBRANCH  17  19
ENDBRANCH  11  13
BRANCH   1  27
HETATM   27  N1  UNL     1      26.367   7.857  50.858  1.00  0.00    -0.385 N 
HETATM   28  H1  UNL     1      26.788   8.804  51.009  1.00  0.00     0.157 HD
HETATM   29  H2  UNL     1      25.923   7.335  51.673  1.00  0.00     0.157 HD
ENDBRANCH   1  27
BRANCH   7  30
HETATM   30  C6  UNL     1      29.930   9.465  47.882  1.00  0.00     0.278 C 
BRANCH  30  31
HETATM   31  N4  UNL     1      31.027   8.898  47.191  1.00  0.00     0.088 N 
HETATM   32  C7  UNL     1      31.544   9.708  46.111  1.00  0.00     0.274 C 
HETATM   33  C8  UNL     1      32.626  10.245  47.016  1.00  0.00     0.060 C 
HETATM   34  C9  UNL     1      32.265   9.109  47.915  1.00  0.00     0.274 C 
ENDBRANCH  30  31
ENDBRANCH   7  30
TORSDOF 7
ENDMDL
MODEL 3
REMARK VINA RESULT:      -8.9      4.176      5.550
REMARK  7 active torsions:
REMARK  status: ('A' for Active; 'I' for Inactive)
REMARK    1  A    between atoms: N1_1  and  C1_2 
REMARK    2  A    between atoms: C5_8  and  C6_9 
REMARK    3  A    between atoms: C6_9  and  N4_10 
REMARK    4  A    between atoms: C12_17  and  C13_18 
REMARK    5  A    between atoms: C17_22  and  O1_23 
REMARK    6  A    between atoms: O1_23  and  C18_24 
REMARK    7  A    between atoms: C18_24  and  C19_25 
ROOT
HETATM    1  C1  UNL     1      23.042   3.222  51.720  1.00  0.00     0.126 C 
HETATM    2  N2  UNL     1      22.676   4.484  51.797  1.00  0.00    -0.227 NA
HETATM    3  C2  UNL     1      23.611   5.513  51.972  1.00  0.00     0.228 C 
HETATM    4  N3  UNL     1      23.178   6.399  51.193  1.00  0.00    -0.283 NA
HETATM    5  C3  UNL     1      22.055   6.370  50.367  1.00  0.00     0.150 C 
HETATM    6  C4  UNL     1      21.476   5.119  49.852  1.00  0.00     0.030 C 
HETATM    7  C5  UNL     1      22.253   4.236  48.958  1.00  0.00     0.033 C 
HETATM    8  C10 UNL     1      21.563   2.901  48.822  1.00  0.00     0.130 C 
HETATM    9  N5  UNL     1      21.666   2.131  50.074  1.00  0.00    -0.373 N 
HETATM   10  C11 UNL     1      21.672   0.692  50.309  1.00  0.00     0.097 A 
HETATM   11  C12 UNL     1      21.938   0.951  51.570  1.00  0.00    -0.002 A 
HETATM   12  C26 UNL     1      21.848   2.430  51.484  1.00  0.00     0.188 A 
ENDROOT
BRANCH  11  13
HETATM   13  C13 UNL     1      22.185   0.242  52.848  1.00  0.00    -0.023 A 
HETATM   14  C14 UNL     1      21.279  -0.141  53.814  1.00  0.00     0.012 A 
HETATM   15  C15 UNL     1      21.666  -0.804  54.951  1.00  0.00     0.004 A 
HETATM   16  C16 UNL     1      22.983  -1.124  55.194  1.00  0.00     0.037 A 
HETATM   17  C17 UNL     1      23.919  -0.756  54.249  1.00  0.00     0.070 A 
HETATM   18  C25 UNL     1      23.519  -0.092  53.112  1.00  0.00     0.049 A 
BRANCH  17  19
HETATM   19  O1  UNL     1      25.265  -1.069  54.468  1.00  0.00    -0.347 OA
BRANCH  19  20
HETATM   20  C18 UNL     1      26.205  -1.015  53.423  1.00  0.00     0.214 C 
BRANCH  20  21
HETATM   21  C19 UNL     1      27.177   0.086  53.567  1.00  0.00    -0.034 A 
HETATM   22  C20 UNL     1      26.979   1.199  52.766  1.00  0.00     0.009 A 
HETATM   23  C21 UNL     1      27.824   2.291  52.808  1.00  0.00     0.001 A 
HETATM   24  C22 UNL     1      28.878   2.210  53.698  1.00  0.00     0.000 A 
HETATM   25  C23 UNL     1      29.113   1.128  54.511  1.00  0.00     0.001 A 
HETATM   26  C24 UNL     1      28.238   0.048  54.437  1.00  0.00     0.009 A 
ENDBRANCH  20  21
ENDBRANCH  19  20
ENDBRANCH  17  19
ENDBRANCH  11  13
BRANCH   1  27
HETATM   27  N1  UNL     1      24.423   3.508  51.884  1.00  0.00    -0.385 N 
HETATM   28  H1  UNL     1      24.767   3.853  52.812  1.00  0.00     0.157 HD
HETATM   29  H2  UNL     1      25.105   3.376  51.078  1.00  0.00     0.157 HD
ENDBRANCH   1  27
BRANCH   7  30
HETATM   30  C6  UNL     1      22.437   4.887  47.607  1.00  0.00     0.278 C 
BRANCH  30  31
HETATM   31  N4  UNL     1      21.400   4.670  46.669  1.00  0.00     0.088 N 
HETATM   32  C7  UNL     1      20.912   5.866  46.021  1.00  0.00     0.274 C 
HETATM   33  C8  UNL     1      21.797   5.595  44.829  1.00  0.00     0.060 C 
HETATM   34  C9  UNL     1      21.931   4.220  45.397  1.00  0.00     0.274 C 
ENDBRANCH  30  31
ENDBRANCH   7  30
TORSDOF 7
ENDMDL
MODEL 4
REMARK VINA RESULT:      -8.6      4.919      8.491
REMARK  7 active torsions:
REMARK  status: ('A' for Active; 'I' for Inactive)
REMARK    1  A    between atoms: N1_1  and  C1_2 
REMARK    2  A    between atoms: C5_8  and  C6_9 
REMARK    3  A    between atoms: C6_9  and  N4_10 
REMARK    4  A    between atoms: C12_17  and  C13_18 
REMARK    5  A    between atoms: C17_22  and  O1_23 
REMARK    6  A    between atoms: O1_23  and  C18_24 
REMARK    7  A    between atoms: C18_24  and  C19_25 
ROOT
HETATM    1  C1  UNL     1      23.244   2.773  51.838  1.00  0.00     0.126 C 
HETATM    2  N2  UNL     1      24.219   2.837  50.955  1.00  0.00    -0.227 NA
HETATM    3  C2  UNL     1      24.897   4.034  50.691  1.00  0.00     0.228 C 
HETATM    4  N3  UNL     1      26.089   3.648  50.602  1.00  0.00    -0.283 NA
HETATM    5  C3  UNL     1      26.608   2.360  50.728  1.00  0.00     0.150 C 
HETATM    6  C4  UNL     1      25.943   1.307  51.512  1.00  0.00     0.030 C 
HETATM    7  C5  UNL     1      25.747   1.455  52.969  1.00  0.00     0.033 C 
HETATM    8  C10 UNL     1      24.791   0.401  53.473  1.00  0.00     0.130 C 
HETATM    9  N5  UNL     1      23.420   0.680  53.013  1.00  0.00    -0.373 N 
HETATM   10  C11 UNL     1      22.131   0.343  53.605  1.00  0.00     0.097 A 
HETATM   11  C12 UNL     1      21.567   1.070  52.666  1.00  0.00    -0.002 A 
HETATM   12  C26 UNL     1      22.802   1.392  51.907  1.00  0.00     0.188 A 
ENDROOT
BRANCH  11  13
HETATM   13  C13 UNL     1      20.222   1.504  52.217  1.00  0.00    -0.023 A 
HETATM   14  C14 UNL     1      19.725   2.783  52.090  1.00  0.00     0.012 A 
HETATM   15  C15 UNL     1      18.447   3.025  51.650  1.00  0.00     0.004 A 
HETATM   16  C16 UNL     1      17.589   2.004  51.312  1.00  0.00     0.037 A 
HETATM   17  C17 UNL     1      18.053   0.709  51.426  1.00  0.00     0.070 A 
HETATM   18  C25 UNL     1      19.336   0.478  51.868  1.00  0.00     0.049 A 
BRANCH  17  19
HETATM   19  O1  UNL     1      17.203  -0.350  51.089  1.00  0.00    -0.347 OA
BRANCH  19  20
HETATM   20  C18 UNL     1      16.145  -0.732  51.933  1.00  0.00     0.214 C 
BRANCH  20  21
HETATM   21  C19 UNL     1      16.312  -2.083  52.506  1.00  0.00    -0.034 A 
HETATM   22  C20 UNL     1      15.316  -3.004  52.226  1.00  0.00     0.009 A 
HETATM   23  C21 UNL     1      15.360  -4.298  52.707  1.00  0.00     0.001 A 
HETATM   24  C22 UNL     1      16.456  -4.621  53.484  1.00  0.00     0.000 A 
HETATM   25  C23 UNL     1      17.466  -3.741  53.787  1.00  0.00     0.001 A 
HETATM   26  C24 UNL     1      17.383  -2.446  53.282  1.00  0.00     0.009 A 
ENDBRANCH  20  21
ENDBRANCH  19  20
ENDBRANCH  17  19
ENDBRANCH  11  13
BRANCH   1  27
HETATM   27  N1  UNL     1      23.320   4.151  52.170  1.00  0.00    -0.385 N 
HETATM   28  H1  UNL     1      22.451   4.653  52.474  1.00  0.00     0.157 HD
HETATM   29  H2  UNL     1      24.245   4.674  52.114  1.00  0.00     0.157 HD
ENDBRANCH   1  27
BRANCH   7  30
HETATM   30  C6  UNL     1      27.073   1.368  53.689  1.00  0.00     0.278 C 
BRANCH  30  31
HETATM   31  N4  UNL     1      27.450   0.080  54.137  1.00  0.00     0.088 N 
HETATM   32  C7  UNL     1      28.183  -0.704  53.169  1.00  0.00     0.274 C 
HETATM   33  C8  UNL     1      29.487  -0.300  53.811  1.00  0.00     0.060 C 
HETATM   34  C9  UNL     1      28.642   0.141  54.960  1.00  0.00     0.274 C 
ENDBRANCH  30  31
ENDBRANCH   7  30
TORSDOF 7
ENDMDL
MODEL 5
REMARK VINA RESULT:      -8.4      2.306      3.924
REMARK  7 active torsions:
REMARK  status: ('A' for Active; 'I' for Inactive)
REMARK    1  A    between atoms: N1_1  and  C1_2 
REMARK    2  A    between atoms: C5_8  and  C6_9 
REMARK    3  A    between atoms: C6_9  and  N4_10 
REMARK    4  A    between atoms: C12_17  and  C13_18 
REMARK    5  A    between atoms: C17_22  and  O1_23 
REMARK    6  A    between atoms: O1_23  and  C18_24 
REMARK    7  A    between atoms: C18_24  and  C19_25 
ROOT
HETATM    1  C1  UNL     1      27.463   8.073  49.259  1.00  0.00     0.126 C 
HETATM    2  N2  UNL     1      27.763   9.184  48.620  1.00  0.00    -0.227 NA
HETATM    3  C2  UNL     1      27.929  10.401  49.295  1.00  0.00     0.228 C 
HETATM    4  N3  UNL     1      28.929  10.891  48.713  1.00  0.00    -0.283 NA
HETATM    5  C3  UNL     1      29.681  10.365  47.664  1.00  0.00     0.150 C 
HETATM    6  C4  UNL     1      29.779   8.920  47.400  1.00  0.00     0.030 C 
HETATM    7  C5  UNL     1      30.382   8.007  48.393  1.00  0.00     0.033 C 
HETATM    8  C10 UNL     1      30.091   6.573  48.022  1.00  0.00     0.130 C 
HETATM    9  N5  UNL     1      28.668   6.259  48.235  1.00  0.00    -0.373 N 
HETATM   10  C11 UNL     1      28.008   4.997  48.548  1.00  0.00     0.097 A 
HETATM   11  C12 UNL     1      26.892   5.675  48.692  1.00  0.00    -0.002 A 
HETATM   12  C26 UNL     1      27.419   7.000  48.282  1.00  0.00     0.188 A 
ENDROOT
BRANCH  11  13
HETATM   13  C13 UNL     1      25.465   5.457  49.031  1.00  0.00    -0.023 A 
HETATM   14  C14 UNL     1      24.341   5.883  48.356  1.00  0.00     0.012 A 
HETATM   15  C15 UNL     1      23.075   5.591  48.798  1.00  0.00     0.004 A 
HETATM   16  C16 UNL     1      22.853   4.857  49.941  1.00  0.00     0.037 A 
HETATM   17  C17 UNL     1      23.956   4.414  50.643  1.00  0.00     0.070 A 
HETATM   18  C25 UNL     1      25.221   4.712  50.191  1.00  0.00     0.049 A 
BRANCH  17  19
HETATM   19  O1  UNL     1      23.762   3.665  51.809  1.00  0.00    -0.347 OA
BRANCH  19  20
HETATM   20  C18 UNL     1      24.699   2.699  52.219  1.00  0.00     0.214 C 
BRANCH  20  21
HETATM   21  C19 UNL     1      24.081   1.505  52.828  1.00  0.00    -0.034 A 
HETATM   22  C20 UNL     1      22.698   1.438  52.801  1.00  0.00     0.009 A 
HETATM   23  C21 UNL     1      22.006   0.372  53.341  1.00  0.00     0.001 A 
HETATM   24  C22 UNL     1      22.774  -0.625  53.911  1.00  0.00     0.000 A 
HETATM   25  C23 UNL     1      24.146  -0.601  53.961  1.00  0.00     0.001 A 
HETATM   26  C24 UNL     1      24.805   0.492  53.405  1.00  0.00     0.009 A 
ENDBRANCH  20  21
ENDBRANCH  19  20
ENDBRANCH  17  19
ENDBRANCH  11  13
BRANCH   1  27
HETATM   27  N1  UNL     1      27.426   8.698  50.534  1.00  0.00    -0.385 N 
HETATM   28  H1  UNL     1      26.886   9.588  50.652  1.00  0.00     0.157 HD
HETATM   29  H2  UNL     1      27.939   8.271  51.363  1.00  0.00     0.157 HD
ENDBRANCH   1  27
BRANCH   7  30
HETATM   30  C6  UNL     1      31.871   8.246  48.490  1.00  0.00     0.278 C 
BRANCH  30  31
HETATM   31  N4  UNL     1      32.689   7.363  47.747  1.00  0.00     0.088 N 
HETATM   32  C7  UNL     1      33.490   7.998  46.724  1.00  0.00     0.274 C 
HETATM   33  C8  UNL     1      34.678   8.023  47.655  1.00  0.00     0.060 C 
HETATM   34  C9  UNL     1      33.903   7.042  48.471  1.00  0.00     0.274 C 
ENDBRANCH  30  31
ENDBRANCH   7  30
TORSDOF 7
ENDMDL
MODEL 6
REMARK VINA RESULT:      -8.4      2.761      4.690
REMARK  7 active torsions:
REMARK  status: ('A' for Active; 'I' for Inactive)
REMARK    1  A    between atoms: N1_1  and  C1_2 
REMARK    2  A    between atoms: C5_8  and  C6_9 
REMARK    3  A    between atoms: C6_9  and  N4_10 
REMARK    4  A    between atoms: C12_17  and  C13_18 
REMARK    5  A    between atoms: C17_22  and  O1_23 
REMARK    6  A    between atoms: O1_23  and  C18_24 
REMARK    7  A    between atoms: C18_24  and  C19_25 
ROOT
HETATM    1  C1  UNL     1      23.639   3.595  50.793  1.00  0.00     0.126 C 
HETATM    2  N2  UNL     1      24.687   4.391  50.835  1.00  0.00    -0.227 NA
HETATM    3  C2  UNL     1      25.649   4.396  49.816  1.00  0.00     0.228 C 
HETATM    4  N3  UNL     1      25.883   5.624  49.680  1.00  0.00    -0.283 NA
HETATM    5  C3  UNL     1      25.331   6.705  50.366  1.00  0.00     0.150 C 
HETATM    6  C4  UNL     1      24.000   6.655  50.992  1.00  0.00     0.030 C 
HETATM    7  C5  UNL     1      22.785   6.452  50.177  1.00  0.00     0.033 C 
HETATM    8  C10 UNL     1      21.608   6.142  51.068  1.00  0.00     0.130 C 
HETATM    9  N5  UNL     1      21.738   4.795  51.651  1.00  0.00    -0.373 N 
HETATM   10  C11 UNL     1      20.722   3.847  52.094  1.00  0.00     0.097 A 
HETATM   11  C12 UNL     1      21.689   2.976  52.280  1.00  0.00    -0.002 A 
HETATM   12  C26 UNL     1      22.823   3.878  51.959  1.00  0.00     0.188 A 
ENDROOT
BRANCH  11  13
HETATM   13  C13 UNL     1      21.888   1.578  52.729  1.00  0.00    -0.023 A 
HETATM   14  C14 UNL     1      20.943   0.652  53.120  1.00  0.00     0.012 A 
HETATM   15  C15 UNL     1      21.289  -0.619  53.506  1.00  0.00     0.004 A 
HETATM   16  C16 UNL     1      22.598  -1.043  53.526  1.00  0.00     0.037 A 
HETATM   17  C17 UNL     1      23.571  -0.144  53.141  1.00  0.00     0.070 A 
HETATM   18  C25 UNL     1      23.214   1.129  52.756  1.00  0.00     0.049 A 
BRANCH  17  19
HETATM   19  O1  UNL     1      24.911  -0.547  53.151  1.00  0.00    -0.347 OA
BRANCH  19  20
HETATM   20  C18 UNL     1      25.904   0.212  52.506  1.00  0.00     0.214 C 
BRANCH  20  21
HETATM   21  C19 UNL     1      27.276  -0.163  52.902  1.00  0.00    -0.034 A 
HETATM   22  C20 UNL     1      28.114   0.868  53.294  1.00  0.00     0.009 A 
HETATM   23  C21 UNL     1      29.420   0.642  53.684  1.00  0.00     0.001 A 
HETATM   24  C22 UNL     1      29.843  -0.673  53.660  1.00  0.00     0.000 A 
HETATM   25  C23 UNL     1      29.048  -1.727  53.279  1.00  0.00     0.001 A 
HETATM   26  C24 UNL     1      27.738  -1.455  52.893  1.00  0.00     0.009 A 
ENDBRANCH  20  21
ENDBRANCH  19  20
ENDBRANCH  17  19
ENDBRANCH  11  13
BRANCH   1  27
HETATM   27  N1  UNL     1      24.014   3.002  49.558  1.00  0.00    -0.385 N 
HETATM   28  H1  UNL     1      24.948   2.536  49.477  1.00  0.00     0.157 HD
HETATM   29  H2  UNL     1      23.356   3.027  48.721  1.00  0.00     0.157 HD
ENDBRANCH   1  27
BRANCH   7  30
HETATM   30  C6  UNL     1      22.511   7.674  49.330  1.00  0.00     0.278 C 
BRANCH  30  31
HETATM   31  N4  UNL     1      22.848   7.565  47.960  1.00  0.00     0.088 N 
HETATM   32  C7  UNL     1      22.856   6.214  47.446  1.00  0.00     0.274 C 
HETATM   33  C8  UNL     1      21.462   6.401  46.899  1.00  0.00     0.060 C 
HETATM   34  C9  UNL     1      21.706   7.858  47.116  1.00  0.00     0.274 C 
ENDBRANCH  30  31
ENDBRANCH   7  30
TORSDOF 7
ENDMDL
MODEL 7
REMARK VINA RESULT:      -8.3      2.906      5.289
REMARK  7 active torsions:
REMARK  status: ('A' for Active; 'I' for Inactive)
REMARK    1  A    between atoms: N1_1  and  C1_2 
REMARK    2  A    between atoms: C5_8  and  C6_9 
REMARK    3  A    between atoms: C6_9  and  N4_10 
REMARK    4  A    between atoms: C12_17  and  C13_18 
REMARK    5  A    between atoms: C17_22  and  O1_23 
REMARK    6  A    between atoms: O1_23  and  C18_24 
REMARK    7  A    between atoms: C18_24  and  C19_25 
ROOT
HETATM    1  C1  UNL     1      23.902   4.331  51.617  1.00  0.00     0.126 C 
HETATM    2  N2  UNL     1      23.081   5.005  50.839  1.00  0.00    -0.227 NA
HETATM    3  C2  UNL     1      22.373   6.121  51.305  1.00  0.00     0.228 C 
HETATM    4  N3  UNL     1      22.462   6.914  50.335  1.00  0.00    -0.283 NA
HETATM    5  C3  UNL     1      23.097   6.733  49.107  1.00  0.00     0.150 C 
HETATM    6  C4  UNL     1      24.224   5.806  48.922  1.00  0.00     0.030 C 
HETATM    7  C5  UNL     1      25.500   6.009  49.640  1.00  0.00     0.033 C 
HETATM    8  C10 UNL     1      26.366   4.780  49.516  1.00  0.00     0.130 C 
HETATM    9  N5  UNL     1      25.813   3.671  50.312  1.00  0.00    -0.373 N 
HETATM   10  C11 UNL     1      26.471   2.537  50.950  1.00  0.00     0.097 A 
HETATM   11  C12 UNL     1      25.312   2.235  51.492  1.00  0.00    -0.002 A 
HETATM   12  C26 UNL     1      24.507   3.282  50.816  1.00  0.00     0.188 A 
ENDROOT
BRANCH  11  13
HETATM   13  C13 UNL     1      24.708   1.229  52.398  1.00  0.00    -0.023 A 
HETATM   14  C14 UNL     1      25.324   0.206  53.087  1.00  0.00     0.012 A 
HETATM   15  C15 UNL     1      24.622  -0.647  53.901  1.00  0.00     0.004 A 
HETATM   16  C16 UNL     1      23.261  -0.532  54.075  1.00  0.00     0.037 A 
HETATM   17  C17 UNL     1      22.611   0.481  53.401  1.00  0.00     0.070 A 
HETATM   18  C25 UNL     1      23.325   1.331  52.587  1.00  0.00     0.049 A 
BRANCH  17  19
HETATM   19  O1  UNL     1      21.227   0.624  53.559  1.00  0.00    -0.347 OA
BRANCH  19  20
HETATM   20  C18 UNL     1      20.391  -0.498  53.695  1.00  0.00     0.214 C 
BRANCH  20  21
HETATM   21  C19 UNL     1      19.224  -0.471  52.791  1.00  0.00    -0.034 A 
HETATM   22  C20 UNL     1      18.088  -1.138  53.221  1.00  0.00     0.009 A 
HETATM   23  C21 UNL     1      16.935  -1.185  52.463  1.00  0.00     0.001 A 
HETATM   24  C22 UNL     1      16.979  -0.527  51.249  1.00  0.00     0.000 A 
HETATM   25  C23 UNL     1      18.081   0.147  50.782  1.00  0.00     0.001 A 
HETATM   26  C24 UNL     1      19.223   0.170  51.578  1.00  0.00     0.009 A 
ENDBRANCH  20  21
ENDBRANCH  19  20
ENDBRANCH  17  19
ENDBRANCH  11  13
BRANCH   1  27
HETATM   27  N1  UNL     1      23.660   5.150  52.751  1.00  0.00    -0.385 N 
HETATM   28  H1  UNL     1      24.324   5.931  52.969  1.00  0.00     0.157 HD
HETATM   29  H2  UNL     1      22.816   4.979  53.376  1.00  0.00     0.157 HD
ENDBRANCH   1  27
BRANCH   7  30
HETATM   30  C6  UNL     1      26.215   7.228  49.105  1.00  0.00     0.278 C 
BRANCH  30  31
HETATM   31  N4  UNL     1      26.077   8.412  49.868  1.00  0.00     0.088 N 
HETATM   32  C7  UNL     1      27.319   9.089  50.163  1.00  0.00     0.274 C 
HETATM   33  C8  UNL     1      27.095  10.029  49.003  1.00  0.00     0.060 C 
HETATM   34  C9  UNL     1      25.688   9.530  49.032  1.00  0.00     0.274 C 
ENDBRANCH  30  31
ENDBRANCH   7  30
TORSDOF 7
ENDMDL
MODEL 8
REMARK VINA RESULT:      -8.2      5.272      9.263
REMARK  7 active torsions:
REMARK  status: ('A' for Active; 'I' for Inactive)
REMARK    1  A    between atoms: N1_1  and  C1_2 
REMARK    2  A    between atoms: C5_8  and  C6_9 
REMARK    3  A    between atoms: C6_9  and  N4_10 
REMARK    4  A    between atoms: C12_17  and  C13_18 
REMARK    5  A    between atoms: C17_22  and  O1_23 
REMARK    6  A    between atoms: O1_23  and  C18_24 
REMARK    7  A    between atoms: C18_24  and  C19_25 
ROOT
HETATM    1  C1  UNL     1      22.648   2.648  51.535  1.00  0.00     0.126 C 
HETATM    2  N2  UNL     1      23.685   2.903  50.765  1.00  0.00    -0.227 NA
HETATM    3  C2  UNL     1      24.186   4.203  50.611  1.00  0.00     0.228 C 
HETATM    4  N3  UNL     1      25.428   4.011  50.640  1.00  0.00    -0.283 NA
HETATM    5  C3  UNL     1      26.130   2.816  50.785  1.00  0.00     0.150 C 
HETATM    6  C4  UNL     1      25.565   1.637  51.461  1.00  0.00     0.030 C 
HETATM    7  C5  UNL     1      25.200   1.686  52.891  1.00  0.00     0.033 C 
HETATM    8  C10 UNL     1      24.378   0.474  53.258  1.00  0.00     0.130 C 
HETATM    9  N5  UNL     1      23.034   0.556  52.660  1.00  0.00    -0.373 N 
HETATM   10  C11 UNL     1      21.762  -0.004  53.099  1.00  0.00     0.097 A 
HETATM   11  C12 UNL     1      21.189   0.668  52.126  1.00  0.00    -0.002 A 
HETATM   12  C26 UNL     1      22.427   1.213  51.515  1.00  0.00     0.188 A 
ENDROOT
BRANCH  11  13
HETATM   13  C13 UNL     1      19.845   0.908  51.547  1.00  0.00    -0.023 A 
HETATM   14  C14 UNL     1      19.138   0.133  50.653  1.00  0.00     0.012 A 
HETATM   15  C15 UNL     1      17.888   0.490  50.213  1.00  0.00     0.004 A 
HETATM   16  C16 UNL     1      17.268   1.643  50.638  1.00  0.00     0.037 A 
HETATM   17  C17 UNL     1      17.946   2.444  51.534  1.00  0.00     0.070 A 
HETATM   18  C25 UNL     1      19.199   2.076  51.969  1.00  0.00     0.049 A 
BRANCH  17  19
HETATM   19  O1  UNL     1      17.340   3.622  51.985  1.00  0.00    -0.347 OA
BRANCH  19  20
HETATM   20  C18 UNL     1      16.361   4.277  51.218  1.00  0.00     0.214 C 
BRANCH  20  21
HETATM   21  C19 UNL     1      15.023   4.266  51.843  1.00  0.00    -0.034 A 
HETATM   22  C20 UNL     1      14.983   4.350  53.225  1.00  0.00     0.009 A 
HETATM   23  C21 UNL     1      13.792   4.346  53.924  1.00  0.00     0.001 A 
HETATM   24  C22 UNL     1      12.641   4.255  53.164  1.00  0.00     0.000 A 
HETATM   25  C23 UNL     1      12.633   4.170  51.793  1.00  0.00     0.001 A 
HETATM   26  C24 UNL     1      13.856   4.177  51.128  1.00  0.00     0.009 A 
ENDBRANCH  20  21
ENDBRANCH  19  20
ENDBRANCH  17  19
ENDBRANCH  11  13
BRANCH   1  27
HETATM   27  N1  UNL     1      22.468   4.005  51.913  1.00  0.00    -0.385 N 
HETATM   28  H1  UNL     1      21.963   4.225  52.804  1.00  0.00     0.157 HD
HETATM   29  H2  UNL     1      22.839   4.793  51.302  1.00  0.00     0.157 HD
ENDBRANCH   1  27
BRANCH   7  30
HETATM   30  C6  UNL     1      26.441   1.773  53.749  1.00  0.00     0.278 C 
BRANCH  30  31
HETATM   31  N4  UNL     1      27.497   0.898  53.400  1.00  0.00     0.088 N 
HETATM   32  C7  UNL     1      28.805   1.512  53.370  1.00  0.00     0.274 C 
HETATM   33  C8  UNL     1      29.088   1.003  54.762  1.00  0.00     0.060 C 
HETATM   34  C9  UNL     1      27.916   0.105  54.539  1.00  0.00     0.274 C 
ENDBRANCH  30  31
ENDBRANCH   7  30
TORSDOF 7
ENDMDL
MODEL 9
REMARK VINA RESULT:      -8.1      4.802      8.255
REMARK  7 active torsions:
REMARK  status: ('A' for Active; 'I' for Inactive)
REMARK    1  A    between atoms: N1_1  and  C1_2 
REMARK    2  A    between atoms: C5_8  and  C6_9 
REMARK    3  A    between atoms: C6_9  and  N4_10 
REMARK    4  A    between atoms: C12_17  and  C13_18 
REMARK    5  A    between atoms: C17_22  and  O1_23 
REMARK    6  A    between atoms: O1_23  and  C18_24 
REMARK    7  A    between atoms: C18_24  and  C19_25 
ROOT
HETATM    1  C1  UNL     1      22.854   1.561  52.263  1.00  0.00     0.126 C 
HETATM    2  N2  UNL     1      23.779   1.840  51.368  1.00  0.00    -0.227 NA
HETATM    3  C2  UNL     1      24.145   3.159  51.072  1.00  0.00     0.228 C 
HETATM    4  N3  UNL     1      25.395   3.071  50.977  1.00  0.00    -0.283 NA
HETATM    5  C3  UNL     1      26.211   1.950  51.123  1.00  0.00     0.150 C 
HETATM    6  C4  UNL     1      25.826   0.786  51.935  1.00  0.00     0.030 C 
HETATM    7  C5  UNL     1      25.608   0.914  53.391  1.00  0.00     0.033 C 
HETATM    8  C10 UNL     1      24.940  -0.328  53.927  1.00  0.00     0.130 C 
HETATM    9  N5  UNL     1      23.539  -0.400  53.477  1.00  0.00    -0.373 N 
HETATM   10  C11 UNL     1      22.373  -1.026  54.090  1.00  0.00     0.097 A 
HETATM   11  C12 UNL     1      21.645  -0.478  53.144  1.00  0.00    -0.002 A 
HETATM   12  C26 UNL     1      22.760   0.116  52.365  1.00  0.00     0.188 A 
ENDROOT
BRANCH  11  13
HETATM   13  C13 UNL     1      20.232  -0.392  52.702  1.00  0.00    -0.023 A 
HETATM   14  C14 UNL     1      19.100  -0.867  53.329  1.00  0.00     0.012 A 
HETATM   15  C15 UNL     1      17.848  -0.700  52.792  1.00  0.00     0.004 A 
HETATM   16  C16 UNL     1      17.651  -0.051  51.594  1.00  0.00     0.037 A 
HETATM   17  C17 UNL     1      18.762   0.438  50.937  1.00  0.00     0.070 A 
HETATM   18  C25 UNL     1      20.012   0.266  51.486  1.00  0.00     0.049 A 
BRANCH  17  19
HETATM   19  O1  UNL     1      18.592   1.103  49.718  1.00  0.00    -0.347 OA
BRANCH  19  20
HETATM   20  C18 UNL     1      18.936   2.459  49.574  1.00  0.00     0.214 C 
BRANCH  20  21
HETATM   21  C19 UNL     1      19.987   2.692  48.564  1.00  0.00    -0.034 A 
HETATM   22  C20 UNL     1      21.188   2.027  48.751  1.00  0.00     0.009 A 
HETATM   23  C21 UNL     1      22.247   2.167  47.875  1.00  0.00     0.001 A 
HETATM   24  C22 UNL     1      22.039   3.009  46.800  1.00  0.00     0.000 A 
HETATM   25  C23 UNL     1      20.866   3.689  46.574  1.00  0.00     0.001 A 
HETATM   26  C24 UNL     1      19.824   3.520  47.482  1.00  0.00     0.009 A 
ENDBRANCH  20  21
ENDBRANCH  19  20
ENDBRANCH  17  19
ENDBRANCH  11  13
BRANCH   1  27
HETATM   27  N1  UNL     1      22.596   2.924  52.566  1.00  0.00    -0.385 N 
HETATM   28  H1  UNL     1      22.108   3.522  51.857  1.00  0.00     0.157 HD
HETATM   29  H2  UNL     1      22.891   3.339  53.501  1.00  0.00     0.157 HD
ENDBRANCH   1  27
BRANCH   7  30
HETATM   30  C6  UNL     1      26.920   1.166  54.098  1.00  0.00     0.278 C 
BRANCH  30  31
HETATM   31  N4  UNL     1      27.667   0.016  54.445  1.00  0.00     0.088 N 
HETATM   32  C7  UNL     1      28.335  -0.627  53.336  1.00  0.00     0.274 C 
HETATM   33  C8  UNL     1      29.620   0.086  53.682  1.00  0.00     0.060 C 
HETATM   34  C9  UNL     1      28.961   0.378  54.990  1.00  0.00     0.274 C 
ENDBRANCH  30  31
ENDBRANCH   7  30
TORSDOF 7
ENDMDL
