MODEL 1
REMARK VINA RESULT:      -7.9      0.000      0.000
REMARK  9 active torsions:
REMARK  status: ('A' for Active; 'I' for Inactive)
REMARK    1  A    between atoms: O1_2  and  C2_3 
REMARK    2  A    between atoms: C2_3  and  C3_4 
REMARK    3  A    between atoms: C3_4  and  O2_5 
REMARK    4  A    between atoms: O2_5  and  C4_6 
REMARK    5  A    between atoms: C9_11  and  O3_12 
REMARK    6  A    between atoms: O3_12  and  C10_13 
REMARK    7  A    between atoms: C10_13  and  C11_14 
REMARK    8  A    between atoms: C11_14  and  O4_15 
REMARK    9  A    between atoms: C14_20  and  C15_21 
ROOT
HETATM    1  C4  UNL     1      25.614   0.628  52.624  1.00  0.00     0.102 A 
HETATM    2  C5  UNL     1      26.166   1.361  51.563  1.00  0.00     0.049 A 
HETATM    3  C6  UNL     1      25.415   2.218  50.760  1.00  0.00    -0.021 A 
HETATM    4  C7  UNL     1      24.095   2.310  51.060  1.00  0.00     0.067 A 
HETATM    5  C8  UNL     1      23.546   1.597  52.096  1.00  0.00     0.071 A 
HETATM    6  C9  UNL     1      24.244   0.743  52.913  1.00  0.00     0.104 A 
HETATM    7  N1  UNL     1      23.119   3.104  50.403  1.00  0.00    -0.242 NA
HETATM    8  C13 UNL     1      23.334   4.150  49.642  1.00  0.00     0.234 C 
HETATM    9  N2  UNL     1      24.618   4.712  49.314  1.00  0.00    -0.245 NA
HETATM   10  C14 UNL     1      25.798   4.209  49.336  1.00  0.00     0.050 C 
HETATM   11  C22 UNL     1      26.241   2.868  49.711  1.00  0.00     0.101 C 
ENDROOT
BRANCH  10  12
HETATM   12  C15 UNL     1      26.759   5.203  48.909  1.00  0.00    -0.011 A 
HETATM   13  C16 UNL     1      26.440   6.535  48.767  1.00  0.00     0.013 A 
HETATM   14  C17 UNL     1      27.322   7.516  48.361  1.00  0.00     0.001 A 
HETATM   15  C18 UNL     1      28.620   7.181  48.068  1.00  0.00     0.007 A 
HETATM   16  C19 UNL     1      29.003   5.864  48.190  1.00  0.00    -0.061 A 
HETATM   17  C20 UNL     1      30.415   5.484  47.873  1.00  0.00     0.048 C 
HETATM   18  C21 UNL     1      28.065   4.941  48.601  1.00  0.00     0.020 A 
ENDBRANCH  10  12
BRANCH   1  19
HETATM   19  O2  UNL     1      26.487  -0.193  53.347  1.00  0.00    -0.346 OA
BRANCH  19  20
HETATM   20  C3  UNL     1      27.867  -0.031  53.119  1.00  0.00     0.201 C 
BRANCH  20  21
HETATM   21  C2  UNL     1      28.574   0.269  54.434  1.00  0.00     0.193 C 
BRANCH  21  22
HETATM   22  O1  UNL     1      28.274   1.614  54.722  1.00  0.00    -0.394 OA
HETATM   23  C1  UNL     1      28.840   2.422  53.738  1.00  0.00     0.201 C 
ENDBRANCH  21  22
ENDBRANCH  20  21
ENDBRANCH  19  20
ENDBRANCH   1  19
BRANCH   6  24
HETATM   24  O3  UNL     1      23.908  -0.030  53.961  1.00  0.00    -0.346 OA
BRANCH  24  25
HETATM   25  C10 UNL     1      22.886  -0.952  54.106  1.00  0.00     0.201 C 
BRANCH  25  26
HETATM   26  C11 UNL     1      21.707  -0.524  54.911  1.00  0.00     0.193 C 
BRANCH  26  27
HETATM   27  O4  UNL     1      20.881   0.407  54.288  1.00  0.00    -0.394 OA
HETATM   28  C12 UNL     1      20.287  -0.015  53.133  1.00  0.00     0.201 C 
ENDBRANCH  26  27
ENDBRANCH  25  26
ENDBRANCH  24  25
ENDBRANCH   6  24
TORSDOF 9
ENDMDL
MODEL 2
REMARK VINA RESULT:      -7.8      1.146      1.825
REMARK  9 active torsions:
REMARK  status: ('A' for Active; 'I' for Inactive)
REMARK    1  A    between atoms: O1_2  and  C2_3 
REMARK    2  A    between atoms: C2_3  and  C3_4 
REMARK    3  A    between atoms: C3_4  and  O2_5 
REMARK    4  A    between atoms: O2_5  and  C4_6 
REMARK    5  A    between atoms: C9_11  and  O3_12 
REMARK    6  A    between atoms: O3_12  and  C10_13 
REMARK    7  A    between atoms: C10_13  and  C11_14 
REMARK    8  A    between atoms: C11_14  and  O4_15 
REMARK    9  A    between atoms: C14_20  and  C15_21 
ROOT
HETATM    1  C4  UNL     1      25.904   1.230  52.357  1.00  0.00     0.102 A 
HETATM    2  C5  UNL     1      26.504   1.941  51.307  1.00  0.00     0.049 A 
HETATM    3  C6  UNL     1      25.790   2.781  50.453  1.00  0.00    -0.021 A 
HETATM    4  C7  UNL     1      24.458   2.880  50.693  1.00  0.00     0.067 A 
HETATM    5  C8  UNL     1      23.863   2.189  51.718  1.00  0.00     0.071 A 
HETATM    6  C9  UNL     1      24.523   1.352  52.583  1.00  0.00     0.104 A 
HETATM    7  N1  UNL     1      23.513   3.661  49.977  1.00  0.00    -0.242 NA
HETATM    8  C13 UNL     1      23.763   4.690  49.205  1.00  0.00     0.234 C 
HETATM    9  N2  UNL     1      25.062   5.245  48.922  1.00  0.00    -0.245 NA
HETATM   10  C14 UNL     1      26.238   4.742  49.007  1.00  0.00     0.050 C 
HETATM   11  C22 UNL     1      26.663   3.409  49.429  1.00  0.00     0.101 C 
ENDROOT
BRANCH  10  12
HETATM   12  C15 UNL     1      27.218   5.727  48.602  1.00  0.00    -0.011 A 
HETATM   13  C16 UNL     1      28.542   5.416  48.385  1.00  0.00     0.013 A 
HETATM   14  C17 UNL     1      29.510   6.322  48.001  1.00  0.00     0.001 A 
HETATM   15  C18 UNL     1      29.169   7.637  47.810  1.00  0.00     0.007 A 
HETATM   16  C19 UNL     1      27.860   8.014  48.011  1.00  0.00    -0.061 A 
HETATM   17  C20 UNL     1      27.473   9.444  47.807  1.00  0.00     0.048 C 
HETATM   18  C21 UNL     1      26.950   7.051  48.394  1.00  0.00     0.020 A 
ENDBRANCH  10  12
BRANCH   1  19
HETATM   19  O2  UNL     1      26.743   0.425  53.134  1.00  0.00    -0.346 OA
BRANCH  19  20
HETATM   20  C3  UNL     1      27.811   1.054  53.802  1.00  0.00     0.201 C 
BRANCH  20  21
HETATM   21  C2  UNL     1      28.393   0.112  54.847  1.00  0.00     0.193 C 
BRANCH  21  22
HETATM   22  O1  UNL     1      28.679  -1.081  54.157  1.00  0.00    -0.394 OA
HETATM   23  C1  UNL     1      29.939  -0.971  53.572  1.00  0.00     0.201 C 
ENDBRANCH  21  22
ENDBRANCH  20  21
ENDBRANCH  19  20
ENDBRANCH   1  19
BRANCH   6  24
HETATM   24  O3  UNL     1      24.140   0.600  53.631  1.00  0.00    -0.346 OA
BRANCH  24  25
HETATM   25  C10 UNL     1      23.312  -0.507  53.687  1.00  0.00     0.201 C 
BRANCH  25  26
HETATM   26  C11 UNL     1      23.190  -1.185  55.008  1.00  0.00     0.193 C 
BRANCH  26  27
HETATM   27  O4  UNL     1      21.934  -1.722  55.276  1.00  0.00    -0.394 OA
HETATM   28  C12 UNL     1      21.004  -1.560  54.289  1.00  0.00     0.201 C 
ENDBRANCH  26  27
ENDBRANCH  25  26
ENDBRANCH  24  25
ENDBRANCH   6  24
TORSDOF 9
ENDMDL
MODEL 3
REMARK VINA RESULT:      -7.6      1.199      1.346
REMARK  9 active torsions:
REMARK  status: ('A' for Active; 'I' for Inactive)
REMARK    1  A    between atoms: O1_2  and  C2_3 
REMARK    2  A    between atoms: C2_3  and  C3_4 
REMARK    3  A    between atoms: C3_4  and  O2_5 
REMARK    4  A    between atoms: O2_5  and  C4_6 
REMARK    5  A    between atoms: C9_11  and  O3_12 
REMARK    6  A    between atoms: O3_12  and  C10_13 
REMARK    7  A    between atoms: C10_13  and  C11_14 
REMARK    8  A    between atoms: C11_14  and  O4_15 
REMARK    9  A    between atoms: C14_20  and  C15_21 
ROOT
HETATM    1  C4  UNL     1      25.674   1.390  52.311  1.00  0.00     0.102 A 
HETATM    2  C5  UNL     1      26.357   2.029  51.266  1.00  0.00     0.049 A 
HETATM    3  C6  UNL     1      25.748   2.946  50.408  1.00  0.00    -0.021 A 
HETATM    4  C7  UNL     1      24.434   3.193  50.639  1.00  0.00     0.067 A 
HETATM    5  C8  UNL     1      23.758   2.572  51.660  1.00  0.00     0.071 A 
HETATM    6  C9  UNL     1      24.314   1.666  52.528  1.00  0.00     0.104 A 
HETATM    7  N1  UNL     1      23.588   4.076  49.919  1.00  0.00    -0.242 NA
HETATM    8  C13 UNL     1      23.957   5.071  49.150  1.00  0.00     0.234 C 
HETATM    9  N2  UNL     1      25.312   5.477  48.877  1.00  0.00    -0.245 NA
HETATM   10  C14 UNL     1      26.424   4.844  48.969  1.00  0.00     0.050 C 
HETATM   11  C22 UNL     1      26.692   3.472  49.391  1.00  0.00     0.101 C 
ENDROOT
BRANCH  10  12
HETATM   12  C15 UNL     1      27.511   5.713  48.572  1.00  0.00    -0.011 A 
HETATM   13  C16 UNL     1      27.353   7.069  48.390  1.00  0.00     0.013 A 
HETATM   14  C17 UNL     1      28.360   7.934  48.010  1.00  0.00     0.001 A 
HETATM   15  C18 UNL     1      29.624   7.447  47.788  1.00  0.00     0.007 A 
HETATM   16  C19 UNL     1      29.848   6.098  47.954  1.00  0.00    -0.061 A 
HETATM   17  C20 UNL     1      31.220   5.553  47.716  1.00  0.00     0.048 C 
HETATM   18  C21 UNL     1      28.792   5.298  48.335  1.00  0.00     0.020 A 
ENDBRANCH  10  12
BRANCH   1  19
HETATM   19  O2  UNL     1      26.412   0.494  53.092  1.00  0.00    -0.346 OA
BRANCH  19  20
HETATM   20  C3  UNL     1      27.758   0.815  53.351  1.00  0.00     0.201 C 
BRANCH  20  21
HETATM   21  C2  UNL     1      28.136   0.362  54.755  1.00  0.00     0.193 C 
BRANCH  21  22
HETATM   22  O1  UNL     1      28.919  -0.793  54.576  1.00  0.00    -0.394 OA
HETATM   23  C1  UNL     1      29.815  -0.573  53.531  1.00  0.00     0.201 C 
ENDBRANCH  21  22
ENDBRANCH  20  21
ENDBRANCH  19  20
ENDBRANCH   1  19
BRANCH   6  24
HETATM   24  O3  UNL     1      23.841   0.961  53.572  1.00  0.00    -0.346 OA
BRANCH  24  25
HETATM   25  C10 UNL     1      22.942  -0.089  53.613  1.00  0.00     0.201 C 
BRANCH  25  26
HETATM   26  C11 UNL     1      23.116  -1.076  54.715  1.00  0.00     0.193 C 
BRANCH  26  27
HETATM   27  O4  UNL     1      21.931  -1.596  55.228  1.00  0.00    -0.394 OA
HETATM   28  C12 UNL     1      20.880  -1.633  54.356  1.00  0.00     0.201 C 
ENDBRANCH  26  27
ENDBRANCH  25  26
ENDBRANCH  24  25
ENDBRANCH   6  24
TORSDOF 9
ENDMDL
MODEL 4
REMARK VINA RESULT:      -7.2      2.670      8.297
REMARK  9 active torsions:
REMARK  status: ('A' for Active; 'I' for Inactive)
REMARK    1  A    between atoms: O1_2  and  C2_3 
REMARK    2  A    between atoms: C2_3  and  C3_4 
REMARK    3  A    between atoms: C3_4  and  O2_5 
REMARK    4  A    between atoms: O2_5  and  C4_6 
REMARK    5  A    between atoms: C9_11  and  O3_12 
REMARK    6  A    between atoms: O3_12  and  C10_13 
REMARK    7  A    between atoms: C10_13  and  C11_14 
REMARK    8  A    between atoms: C11_14  and  O4_15 
REMARK    9  A    between atoms: C14_20  and  C15_21 
ROOT
HETATM    1  C4  UNL     1      24.675   0.528  52.431  1.00  0.00     0.102 A 
HETATM    2  C5  UNL     1      23.431   0.137  52.949  1.00  0.00     0.049 A 
HETATM    3  C6  UNL     1      22.270   0.893  52.791  1.00  0.00    -0.021 A 
HETATM    4  C7  UNL     1      22.404   2.051  52.097  1.00  0.00     0.067 A 
HETATM    5  C8  UNL     1      23.617   2.441  51.586  1.00  0.00     0.071 A 
HETATM    6  C9  UNL     1      24.785   1.732  51.716  1.00  0.00     0.104 A 
HETATM    7  N1  UNL     1      21.387   2.994  51.797  1.00  0.00    -0.242 NA
HETATM    8  C13 UNL     1      20.093   2.787  51.801  1.00  0.00     0.234 C 
HETATM    9  N2  UNL     1      19.432   1.547  52.113  1.00  0.00    -0.245 NA
HETATM   10  C14 UNL     1      19.822   0.517  52.771  1.00  0.00     0.050 C 
HETATM   11  C22 UNL     1      21.096   0.254  53.436  1.00  0.00     0.101 C 
ENDROOT
BRANCH  10  12
HETATM   12  C15 UNL     1      18.766  -0.472  52.796  1.00  0.00    -0.011 A 
HETATM   13  C16 UNL     1      18.811  -1.590  53.599  1.00  0.00     0.013 A 
HETATM   14  C17 UNL     1      17.829  -2.560  53.652  1.00  0.00     0.001 A 
HETATM   15  C18 UNL     1      16.712  -2.437  52.865  1.00  0.00     0.007 A 
HETATM   16  C19 UNL     1      16.606  -1.340  52.039  1.00  0.00    -0.061 A 
HETATM   17  C20 UNL     1      15.394  -1.193  51.175  1.00  0.00     0.048 C 
HETATM   18  C21 UNL     1      17.628  -0.414  52.040  1.00  0.00     0.020 A 
ENDBRANCH  10  12
BRANCH   1  19
HETATM   19  O2  UNL     1      25.755  -0.329  52.666  1.00  0.00    -0.346 OA
BRANCH  19  20
HETATM   20  C3  UNL     1      25.956  -0.772  53.986  1.00  0.00     0.201 C 
BRANCH  20  21
HETATM   21  C2  UNL     1      26.692   0.298  54.783  1.00  0.00     0.193 C 
BRANCH  21  22
HETATM   22  O1  UNL     1      27.949  -0.259  55.082  1.00  0.00    -0.394 OA
HETATM   23  C1  UNL     1      28.898   0.279  54.216  1.00  0.00     0.201 C 
ENDBRANCH  21  22
ENDBRANCH  20  21
ENDBRANCH  19  20
ENDBRANCH   1  19
BRANCH   6  24
HETATM   24  O3  UNL     1      26.049   1.930  51.299  1.00  0.00    -0.346 OA
BRANCH  24  25
HETATM   25  C10 UNL     1      26.684   3.082  50.873  1.00  0.00     0.201 C 
BRANCH  25  26
HETATM   26  C11 UNL     1      26.525   3.442  49.436  1.00  0.00     0.193 C 
BRANCH  26  27
HETATM   27  O4  UNL     1      27.548   4.229  48.914  1.00  0.00    -0.394 OA
HETATM   28  C12 UNL     1      27.215   5.527  48.653  1.00  0.00     0.201 C 
ENDBRANCH  26  27
ENDBRANCH  25  26
ENDBRANCH  24  25
ENDBRANCH   6  24
TORSDOF 9
ENDMDL
MODEL 5
REMARK VINA RESULT:      -7.2      1.226      1.400
REMARK  9 active torsions:
REMARK  status: ('A' for Active; 'I' for Inactive)
REMARK    1  A    between atoms: O1_2  and  C2_3 
REMARK    2  A    between atoms: C2_3  and  C3_4 
REMARK    3  A    between atoms: C3_4  and  O2_5 
REMARK    4  A    between atoms: O2_5  and  C4_6 
REMARK    5  A    between atoms: C9_11  and  O3_12 
REMARK    6  A    between atoms: O3_12  and  C10_13 
REMARK    7  A    between atoms: C10_13  and  C11_14 
REMARK    8  A    between atoms: C11_14  and  O4_15 
REMARK    9  A    between atoms: C14_20  and  C15_21 
ROOT
HETATM    1  C4  UNL     1      24.300   0.809  52.497  1.00  0.00     0.102 A 
HETATM    2  C5  UNL     1      24.770   1.537  51.395  1.00  0.00     0.049 A 
HETATM    3  C6  UNL     1      24.057   2.589  50.819  1.00  0.00    -0.021 A 
HETATM    4  C7  UNL     1      22.862   2.880  51.390  1.00  0.00     0.067 A 
HETATM    5  C8  UNL     1      22.394   2.173  52.470  1.00  0.00     0.071 A 
HETATM    6  C9  UNL     1      23.058   1.132  53.069  1.00  0.00     0.104 A 
HETATM    7  N1  UNL     1      21.949   3.895  51.001  1.00  0.00    -0.242 NA
HETATM    8  C13 UNL     1      22.212   4.958  50.280  1.00  0.00     0.234 C 
HETATM    9  N2  UNL     1      23.493   5.317  49.731  1.00  0.00    -0.245 NA
HETATM   10  C14 UNL     1      24.537   4.615  49.478  1.00  0.00     0.050 C 
HETATM   11  C22 UNL     1      24.778   3.187  49.667  1.00  0.00     0.101 C 
ENDROOT
BRANCH  10  12
HETATM   12  C15 UNL     1      25.571   5.464  48.926  1.00  0.00    -0.011 A 
HETATM   13  C16 UNL     1      25.315   6.721  48.426  1.00  0.00     0.013 A 
HETATM   14  C17 UNL     1      26.268   7.563  47.888  1.00  0.00     0.001 A 
HETATM   15  C18 UNL     1      27.577   7.155  47.831  1.00  0.00     0.007 A 
HETATM   16  C19 UNL     1      27.899   5.907  48.316  1.00  0.00    -0.061 A 
HETATM   17  C20 UNL     1      29.322   5.449  48.259  1.00  0.00     0.048 C 
HETATM   18  C21 UNL     1      26.892   5.123  48.837  1.00  0.00     0.020 A 
ENDBRANCH  10  12
BRANCH   1  19
HETATM   19  O2  UNL     1      25.121  -0.221  52.971  1.00  0.00    -0.346 OA
BRANCH  19  20
HETATM   20  C3  UNL     1      26.491   0.060  53.122  1.00  0.00     0.201 C 
BRANCH  20  21
HETATM   21  C2  UNL     1      26.758   0.587  54.526  1.00  0.00     0.193 C 
BRANCH  21  22
HETATM   22  O1  UNL     1      26.972   1.969  54.372  1.00  0.00    -0.394 OA
HETATM   23  C1  UNL     1      28.048   2.165  53.510  1.00  0.00     0.201 C 
ENDBRANCH  21  22
ENDBRANCH  20  21
ENDBRANCH  19  20
ENDBRANCH   1  19
BRANCH   6  24
HETATM   24  O3  UNL     1      22.786   0.328  54.113  1.00  0.00    -0.346 OA
BRANCH  24  25
HETATM   25  C10 UNL     1      21.592  -0.241  54.521  1.00  0.00     0.201 C 
BRANCH  25  26
HETATM   26  C11 UNL     1      20.738  -0.841  53.457  1.00  0.00     0.193 C 
BRANCH  26  27
HETATM   27  O4  UNL     1      19.692  -0.033  53.022  1.00  0.00    -0.394 OA
HETATM   28  C12 UNL     1      18.509  -0.675  52.794  1.00  0.00     0.201 C 
ENDBRANCH  26  27
ENDBRANCH  25  26
ENDBRANCH  24  25
ENDBRANCH   6  24
TORSDOF 9
ENDMDL
MODEL 6
REMARK VINA RESULT:      -7.1      3.005      5.899
REMARK  9 active torsions:
REMARK  status: ('A' for Active; 'I' for Inactive)
REMARK    1  A    between atoms: O1_2  and  C2_3 
REMARK    2  A    between atoms: C2_3  and  C3_4 
REMARK    3  A    between atoms: C3_4  and  O2_5 
REMARK    4  A    between atoms: O2_5  and  C4_6 
REMARK    5  A    between atoms: C9_11  and  O3_12 
REMARK    6  A    between atoms: O3_12  and  C10_13 
REMARK    7  A    between atoms: C10_13  and  C11_14 
REMARK    8  A    between atoms: C11_14  and  O4_15 
REMARK    9  A    between atoms: C14_20  and  C15_21 
ROOT
HETATM    1  C4  UNL     1      21.382   2.160  52.474  1.00  0.00     0.102 A 
HETATM    2  C5  UNL     1      22.628   1.517  52.457  1.00  0.00     0.049 A 
HETATM    3  C6  UNL     1      23.728   2.010  51.755  1.00  0.00    -0.021 A 
HETATM    4  C7  UNL     1      23.530   3.167  51.075  1.00  0.00     0.067 A 
HETATM    5  C8  UNL     1      22.314   3.803  51.087  1.00  0.00     0.071 A 
HETATM    6  C9  UNL     1      21.204   3.357  51.761  1.00  0.00     0.104 A 
HETATM    7  N1  UNL     1      24.477   3.873  50.289  1.00  0.00    -0.242 NA
HETATM    8  C13 UNL     1      25.783   3.770  50.345  1.00  0.00     0.234 C 
HETATM    9  N2  UNL     1      26.530   2.911  51.226  1.00  0.00    -0.245 NA
HETATM   10  C14 UNL     1      26.197   1.847  51.860  1.00  0.00     0.050 C 
HETATM   11  C22 UNL     1      24.921   1.138  51.902  1.00  0.00     0.101 C 
ENDROOT
BRANCH  10  12
HETATM   12  C15 UNL     1      27.330   1.358  52.617  1.00  0.00    -0.011 A 
HETATM   13  C16 UNL     1      28.119   2.179  53.392  1.00  0.00     0.013 A 
HETATM   14  C17 UNL     1      29.208   1.758  54.127  1.00  0.00     0.001 A 
HETATM   15  C18 UNL     1      29.564   0.433  54.113  1.00  0.00     0.007 A 
HETATM   16  C19 UNL     1      28.814  -0.441  53.357  1.00  0.00    -0.061 A 
HETATM   17  C20 UNL     1      29.190  -1.889  53.332  1.00  0.00     0.048 C 
HETATM   18  C21 UNL     1      27.740   0.055  52.649  1.00  0.00     0.020 A 
ENDBRANCH  10  12
BRANCH   1  19
HETATM   19  O2  UNL     1      20.367   1.551  53.221  1.00  0.00    -0.346 OA
BRANCH  19  20
HETATM   20  C3  UNL     1      20.747   0.555  54.139  1.00  0.00     0.201 C 
BRANCH  20  21
HETATM   21  C2  UNL     1      20.092  -0.769  53.766  1.00  0.00     0.193 C 
BRANCH  21  22
HETATM   22  O1  UNL     1      21.020  -1.761  54.131  1.00  0.00    -0.394 OA
HETATM   23  C1  UNL     1      22.007  -1.185  54.927  1.00  0.00     0.201 C 
ENDBRANCH  21  22
ENDBRANCH  20  21
ENDBRANCH  19  20
ENDBRANCH   1  19
BRANCH   6  24
HETATM   24  O3  UNL     1      19.949   3.819  51.903  1.00  0.00    -0.346 OA
BRANCH  24  25
HETATM   25  C10 UNL     1      18.904   3.871  50.999  1.00  0.00     0.201 C 
BRANCH  25  26
HETATM   26  C11 UNL     1      17.718   3.020  51.298  1.00  0.00     0.193 C 
BRANCH  26  27
HETATM   27  O4  UNL     1      17.772   1.734  50.767  1.00  0.00    -0.394 OA
HETATM   28  C12 UNL     1      17.329   0.739  51.591  1.00  0.00     0.201 C 
ENDBRANCH  26  27
ENDBRANCH  25  26
ENDBRANCH  24  25
ENDBRANCH   6  24
TORSDOF 9
ENDMDL
MODEL 7
REMARK VINA RESULT:      -7.0      3.501      8.285
REMARK  9 active torsions:
REMARK  status: ('A' for Active; 'I' for Inactive)
REMARK    1  A    between atoms: O1_2  and  C2_3 
REMARK    2  A    between atoms: C2_3  and  C3_4 
REMARK    3  A    between atoms: C3_4  and  O2_5 
REMARK    4  A    between atoms: O2_5  and  C4_6 
REMARK    5  A    between atoms: C9_11  and  O3_12 
REMARK    6  A    between atoms: O3_12  and  C10_13 
REMARK    7  A    between atoms: C10_13  and  C11_14 
REMARK    8  A    between atoms: C11_14  and  O4_15 
REMARK    9  A    between atoms: C14_20  and  C15_21 
ROOT
HETATM    1  C4  UNL     1      24.509   1.987  51.490  1.00  0.00     0.102 A 
HETATM    2  C5  UNL     1      23.258   1.405  51.238  1.00  0.00     0.049 A 
HETATM    3  C6  UNL     1      22.665   0.477  52.095  1.00  0.00    -0.021 A 
HETATM    4  C7  UNL     1      23.373   0.157  53.207  1.00  0.00     0.067 A 
HETATM    5  C8  UNL     1      24.598   0.722  53.460  1.00  0.00     0.071 A 
HETATM    6  C9  UNL     1      25.221   1.638  52.649  1.00  0.00     0.104 A 
HETATM    7  N1  UNL     1      22.999  -0.752  54.230  1.00  0.00    -0.242 NA
HETATM    8  C13 UNL     1      21.790  -1.178  54.504  1.00  0.00     0.234 C 
HETATM    9  N2  UNL     1      20.582  -0.807  53.814  1.00  0.00    -0.245 NA
HETATM   10  C14 UNL     1      20.387  -0.324  52.641  1.00  0.00     0.050 C 
HETATM   11  C22 UNL     1      21.345   0.019  51.594  1.00  0.00     0.101 C 
ENDROOT
BRANCH  10  12
HETATM   12  C15 UNL     1      18.968  -0.127  52.428  1.00  0.00    -0.011 A 
HETATM   13  C16 UNL     1      18.012  -0.970  52.948  1.00  0.00     0.013 A 
HETATM   14  C17 UNL     1      16.652  -0.822  52.768  1.00  0.00     0.001 A 
HETATM   15  C18 UNL     1      16.177   0.230  52.025  1.00  0.00     0.007 A 
HETATM   16  C19 UNL     1      17.083   1.110  51.478  1.00  0.00    -0.061 A 
HETATM   17  C20 UNL     1      16.580   2.262  50.665  1.00  0.00     0.048 C 
HETATM   18  C21 UNL     1      18.427   0.896  51.701  1.00  0.00     0.020 A 
ENDBRANCH  10  12
BRANCH   1  19
HETATM   19  O2  UNL     1      24.981   2.903  50.543  1.00  0.00    -0.346 OA
BRANCH  19  20
HETATM   20  C3  UNL     1      24.108   3.933  50.146  1.00  0.00     0.201 C 
BRANCH  20  21
HETATM   21  C2  UNL     1      24.101   5.037  51.195  1.00  0.00     0.193 C 
BRANCH  21  22
HETATM   22  O1  UNL     1      22.763   5.461  51.284  1.00  0.00    -0.394 OA
HETATM   23  C1  UNL     1      22.145   4.789  52.336  1.00  0.00     0.201 C 
ENDBRANCH  21  22
ENDBRANCH  20  21
ENDBRANCH  19  20
ENDBRANCH   1  19
BRANCH   6  24
HETATM   24  O3  UNL     1      26.389   2.300  52.713  1.00  0.00    -0.346 OA
BRANCH  24  25
HETATM   25  C10 UNL     1      27.690   1.828  52.715  1.00  0.00     0.201 C 
BRANCH  25  26
HETATM   26  C11 UNL     1      28.627   2.452  53.691  1.00  0.00     0.193 C 
BRANCH  26  27
HETATM   27  O4  UNL     1      28.897   1.681  54.818  1.00  0.00    -0.394 OA
HETATM   28  C12 UNL     1      28.535   0.367  54.732  1.00  0.00     0.201 C 
ENDBRANCH  26  27
ENDBRANCH  25  26
ENDBRANCH  24  25
ENDBRANCH   6  24
TORSDOF 9
ENDMDL
MODEL 8
REMARK VINA RESULT:      -7.0      2.486      7.752
REMARK  9 active torsions:
REMARK  status: ('A' for Active; 'I' for Inactive)
REMARK    1  A    between atoms: O1_2  and  C2_3 
REMARK    2  A    between atoms: C2_3  and  C3_4 
REMARK    3  A    between atoms: C3_4  and  O2_5 
REMARK    4  A    between atoms: O2_5  and  C4_6 
REMARK    5  A    between atoms: C9_11  and  O3_12 
REMARK    6  A    between atoms: O3_12  and  C10_13 
REMARK    7  A    between atoms: C10_13  and  C11_14 
REMARK    8  A    between atoms: C11_14  and  O4_15 
REMARK    9  A    between atoms: C14_20  and  C15_21 
ROOT
HETATM    1  C4  UNL     1      26.153   2.941  50.969  1.00  0.00     0.102 A 
HETATM    2  C5  UNL     1      25.008   2.596  51.702  1.00  0.00     0.049 A 
HETATM    3  C6  UNL     1      23.712   2.816  51.236  1.00  0.00    -0.021 A 
HETATM    4  C7  UNL     1      23.610   3.394  50.013  1.00  0.00     0.067 A 
HETATM    5  C8  UNL     1      24.725   3.735  49.289  1.00  0.00     0.071 A 
HETATM    6  C9  UNL     1      26.018   3.538  49.704  1.00  0.00     0.104 A 
HETATM    7  N1  UNL     1      22.418   3.723  49.316  1.00  0.00    -0.242 NA
HETATM    8  C13 UNL     1      21.221   3.230  49.523  1.00  0.00     0.234 C 
HETATM    9  N2  UNL     1      20.868   2.244  50.510  1.00  0.00    -0.245 NA
HETATM   10  C14 UNL     1      21.447   1.882  51.597  1.00  0.00     0.050 C 
HETATM   11  C22 UNL     1      22.685   2.361  52.207  1.00  0.00     0.101 C 
ENDROOT
BRANCH  10  12
HETATM   12  C15 UNL     1      20.674   0.838  52.234  1.00  0.00    -0.011 A 
HETATM   13  C16 UNL     1      21.170   0.064  53.260  1.00  0.00     0.013 A 
HETATM   14  C17 UNL     1      20.470  -0.942  53.895  1.00  0.00     0.001 A 
HETATM   15  C18 UNL     1      19.185  -1.224  53.506  1.00  0.00     0.007 A 
HETATM   16  C19 UNL     1      18.630  -0.486  52.484  1.00  0.00    -0.061 A 
HETATM   17  C20 UNL     1      17.230  -0.782  52.048  1.00  0.00     0.048 C 
HETATM   18  C21 UNL     1      19.391   0.504  51.898  1.00  0.00     0.020 A 
ENDBRANCH  10  12
BRANCH   1  19
HETATM   19  O2  UNL     1      27.389   2.662  51.560  1.00  0.00    -0.346 OA
BRANCH  19  20
HETATM   20  C3  UNL     1      27.396   1.800  52.673  1.00  0.00     0.201 C 
BRANCH  20  21
HETATM   21  C2  UNL     1      28.564   2.147  53.587  1.00  0.00     0.193 C 
BRANCH  21  22
HETATM   22  O1  UNL     1      28.350   1.407  54.765  1.00  0.00    -0.394 OA
HETATM   23  C1  UNL     1      28.918   0.144  54.612  1.00  0.00     0.201 C 
ENDBRANCH  21  22
ENDBRANCH  20  21
ENDBRANCH  19  20
ENDBRANCH   1  19
BRANCH   6  24
HETATM   24  O3  UNL     1      27.222   3.790  49.161  1.00  0.00    -0.346 OA
BRANCH  24  25
HETATM   25  C10 UNL     1      27.708   4.928  48.542  1.00  0.00     0.201 C 
BRANCH  25  26
HETATM   26  C11 UNL     1      26.943   6.187  48.760  1.00  0.00     0.193 C 
BRANCH  26  27
HETATM   27  O4  UNL     1      27.560   7.338  48.278  1.00  0.00    -0.394 OA
HETATM   28  C12 UNL     1      28.924   7.295  48.226  1.00  0.00     0.201 C 
ENDBRANCH  26  27
ENDBRANCH  25  26
ENDBRANCH  24  25
ENDBRANCH   6  24
TORSDOF 9
ENDMDL
MODEL 9
REMARK VINA RESULT:      -6.9      1.713      2.931
REMARK  9 active torsions:
REMARK  status: ('A' for Active; 'I' for Inactive)
REMARK    1  A    between atoms: O1_2  and  C2_3 
REMARK    2  A    between atoms: C2_3  and  C3_4 
REMARK    3  A    between atoms: C3_4  and  O2_5 
REMARK    4  A    between atoms: O2_5  and  C4_6 
REMARK    5  A    between atoms: C9_11  and  O3_12 
REMARK    6  A    between atoms: O3_12  and  C10_13 
REMARK    7  A    between atoms: C10_13  and  C11_14 
REMARK    8  A    between atoms: C11_14  and  O4_15 
REMARK    9  A    between atoms: C14_20  and  C15_21 
ROOT
HETATM    1  C4  UNL     1      25.782   2.581  51.069  1.00  0.00     0.102 A 
HETATM    2  C5  UNL     1      26.699   3.217  50.218  1.00  0.00     0.049 A 
HETATM    3  C6  UNL     1      26.373   4.331  49.445  1.00  0.00    -0.021 A 
HETATM    4  C7  UNL     1      25.098   4.779  49.557  1.00  0.00     0.067 A 
HETATM    5  C8  UNL     1      24.194   4.164  50.387  1.00  0.00     0.071 A 
HETATM    6  C9  UNL     1      24.468   3.068  51.166  1.00  0.00     0.104 A 
HETATM    7  N1  UNL     1      24.515   5.885  48.885  1.00  0.00    -0.242 NA
HETATM    8  C13 UNL     1      25.145   6.889  48.324  1.00  0.00     0.234 C 
HETATM    9  N2  UNL     1      26.571   7.075  48.274  1.00  0.00    -0.245 NA
HETATM   10  C14 UNL     1      27.542   6.246  48.397  1.00  0.00     0.050 C 
HETATM   11  C22 UNL     1      27.523   4.805  48.635  1.00  0.00     0.101 C 
ENDROOT
BRANCH  10  12
HETATM   12  C15 UNL     1      28.801   6.948  48.264  1.00  0.00    -0.011 A 
HETATM   13  C16 UNL     1      29.894   6.406  47.625  1.00  0.00     0.013 A 
HETATM   14  C17 UNL     1      31.112   7.037  47.478  1.00  0.00     0.001 A 
HETATM   15  C18 UNL     1      31.288   8.298  47.989  1.00  0.00     0.007 A 
HETATM   16  C19 UNL     1      30.232   8.897  48.640  1.00  0.00    -0.061 A 
HETATM   17  C20 UNL     1      30.409  10.272  49.204  1.00  0.00     0.048 C 
HETATM   18  C21 UNL     1      29.046   8.203  48.748  1.00  0.00     0.020 A 
ENDBRANCH  10  12
BRANCH   1  19
HETATM   19  O2  UNL     1      26.248   1.474  51.785  1.00  0.00    -0.346 OA
BRANCH  19  20
HETATM   20  C3  UNL     1      27.078   1.723  52.895  1.00  0.00     0.201 C 
BRANCH  20  21
HETATM   21  C2  UNL     1      26.479   1.081  54.140  1.00  0.00     0.193 C 
BRANCH  21  22
HETATM   22  O1  UNL     1      27.534   1.015  55.070  1.00  0.00    -0.394 OA
HETATM   23  C1  UNL     1      28.436   0.036  54.660  1.00  0.00     0.201 C 
ENDBRANCH  21  22
ENDBRANCH  20  21
ENDBRANCH  19  20
ENDBRANCH   1  19
BRANCH   6  24
HETATM   24  O3  UNL     1      23.746   2.332  52.030  1.00  0.00    -0.346 OA
BRANCH  24  25
HETATM   25  C10 UNL     1      22.829   1.322  51.801  1.00  0.00     0.201 C 
BRANCH  25  26
HETATM   26  C11 UNL     1      22.784   0.219  52.801  1.00  0.00     0.193 C 
BRANCH  26  27
HETATM   27  O4  UNL     1      21.504  -0.206  53.146  1.00  0.00    -0.394 OA
HETATM   28  C12 UNL     1      21.126   0.050  54.433  1.00  0.00     0.201 C 
ENDBRANCH  26  27
ENDBRANCH  25  26
ENDBRANCH  24  25
ENDBRANCH   6  24
TORSDOF 9
ENDMDL
