MODEL 1
REMARK VINA RESULT:      -9.2      0.000      0.000
REMARK  3 active torsions:
REMARK  status: ('A' for Active; 'I' for Inactive)
REMARK    1  A    between atoms: C7_8  and  N1_9 
REMARK    2  A    between atoms: N1_9  and  C8_10 
REMARK    3  A    between atoms: C9_11  and  N2_12 
ROOT
HETATM    1  C8  UNL     1      25.458   0.328  53.872  1.00  0.00     0.180 C 
HETATM    2  C9  UNL     1      25.770   1.817  53.678  1.00  0.00     0.081 C 
HETATM    3  C10 UNL     1      27.085   1.875  53.379  1.00  0.00     0.164 C 
HETATM    4  N3  UNL     1      28.249   2.720  53.658  1.00  0.00    -0.365 N 
HETATM    5  C11 UNL     1      29.385   1.884  54.197  1.00  0.00     0.157 C 
HETATM    6  C12 UNL     1      28.846   0.458  54.310  1.00  0.00    -0.043 C 
HETATM    7  C13 UNL     1      27.647   0.125  54.891  1.00  0.00     0.025 C 
HETATM    8  C14 UNL     1      26.773  -0.197  53.685  1.00  0.00     0.147 C 
HETATM    9  C15 UNL     1      27.233  -1.471  53.270  1.00  0.00     0.128 C 
HETATM   10  N4  UNL     1      28.506  -1.671  53.203  1.00  0.00    -0.298 NA
HETATM   11  C16 UNL     1      29.507  -0.766  53.750  1.00  0.00     0.183 C 
HETATM   12  O1  UNL     1      27.112   0.670  52.559  1.00  0.00    -0.311 OA
HETATM   13  H11 UNL     1      27.847   3.634  53.376  1.00  0.00     0.162 HD
ENDROOT
BRANCH   1  14
HETATM   14  N1  UNL     1      24.446  -0.127  52.980  1.00  0.00    -0.376 N 
HETATM   15  H7  UNL     1      24.808  -0.345  52.006  1.00  0.00     0.160 HD
BRANCH  14  16
HETATM   16  C7  UNL     1      23.057  -0.329  53.186  1.00  0.00     0.036 A 
HETATM   17  C2  UNL     1      22.098   0.267  52.366  1.00  0.00    -0.018 A 
HETATM   18  C1  UNL     1      22.579   1.141  51.255  1.00  0.00     0.052 C 
HETATM   19  C3  UNL     1      20.766   0.052  52.579  1.00  0.00     0.019 A 
HETATM   20 BR1  UNL     1      19.553   0.923  51.390  1.00  0.00    -0.051 Br
HETATM   21  C4  UNL     1      20.299  -0.746  53.593  1.00  0.00     0.020 A 
HETATM   22  C5  UNL     1      21.217  -1.352  54.425  1.00  0.00     0.004 A 
HETATM   23  C6  UNL     1      22.552  -1.120  54.189  1.00  0.00     0.030 A 
ENDBRANCH  14  16
ENDBRANCH   1  14
BRANCH   2  24
HETATM   24  N2  UNL     1      25.229   3.169  53.701  1.00  0.00    -0.397 N 
HETATM   25  H9  UNL     1      25.605   3.870  53.047  1.00  0.00     0.156 HD
HETATM   26  H10 UNL     1      24.485   3.598  54.292  1.00  0.00     0.156 HD
ENDBRANCH   2  24
TORSDOF 3
ENDMDL
MODEL 2
REMARK VINA RESULT:      -8.2      1.556      2.920
REMARK  3 active torsions:
REMARK  status: ('A' for Active; 'I' for Inactive)
REMARK    1  A    between atoms: C7_8  and  N1_9 
REMARK    2  A    between atoms: N1_9  and  C8_10 
REMARK    3  A    between atoms: C9_11  and  N2_12 
ROOT
HETATM    1  C8  UNL     1      24.811   0.013  53.290  1.00  0.00     0.180 C 
HETATM    2  C9  UNL     1      25.224  -0.543  54.658  1.00  0.00     0.081 C 
HETATM    3  C10 UNL     1      26.395   0.059  54.955  1.00  0.00     0.164 C 
HETATM    4  N3  UNL     1      27.680  -0.263  55.580  1.00  0.00    -0.365 N 
HETATM    5  C11 UNL     1      28.818   0.110  54.661  1.00  0.00     0.157 C 
HETATM    6  C12 UNL     1      28.172   0.627  53.375  1.00  0.00    -0.043 C 
HETATM    7  C13 UNL     1      27.162  -0.013  52.702  1.00  0.00     0.025 C 
HETATM    8  C14 UNL     1      25.946   0.843  53.039  1.00  0.00     0.147 C 
HETATM    9  C15 UNL     1      26.116   1.995  52.233  1.00  0.00     0.128 C 
HETATM   10  N4  UNL     1      27.283   2.542  52.185  1.00  0.00    -0.298 NA
HETATM   11  C16 UNL     1      28.498   1.929  52.704  1.00  0.00     0.183 C 
HETATM   12  O1  UNL     1      26.046   1.361  54.401  1.00  0.00    -0.311 OA
HETATM   13  H11 UNL     1      27.323  -0.657  56.472  1.00  0.00     0.162 HD
ENDROOT
BRANCH   1  14
HETATM   14  N1  UNL     1      23.539   0.652  53.335  1.00  0.00    -0.376 N 
HETATM   15  H7  UNL     1      23.361   1.175  54.241  1.00  0.00     0.160 HD
BRANCH  14  16
HETATM   16  C7  UNL     1      22.494   0.697  52.376  1.00  0.00     0.036 A 
HETATM   17  C2  UNL     1      21.206   0.250  52.671  1.00  0.00    -0.018 A 
HETATM   18  C1  UNL     1      20.955  -0.292  54.040  1.00  0.00     0.052 C 
HETATM   19  C3  UNL     1      20.214   0.310  51.734  1.00  0.00     0.019 A 
HETATM   20 BR1  UNL     1      18.495  -0.333  52.259  1.00  0.00    -0.051 Br
HETATM   21  C4  UNL     1      20.421   0.802  50.470  1.00  0.00     0.020 A 
HETATM   22  C5  UNL     1      21.682   1.255  50.141  1.00  0.00     0.004 A 
HETATM   23  C6  UNL     1      22.663   1.184  51.102  1.00  0.00     0.030 A 
ENDBRANCH  14  16
ENDBRANCH   1  14
BRANCH   2  24
HETATM   24  N2  UNL     1      24.874  -1.455  55.739  1.00  0.00    -0.397 N 
HETATM   25  H9  UNL     1      25.327  -1.342  56.657  1.00  0.00     0.156 HD
HETATM   26  H10 UNL     1      24.208  -2.257  55.767  1.00  0.00     0.156 HD
ENDBRANCH   2  24
TORSDOF 3
ENDMDL
MODEL 3
REMARK VINA RESULT:      -8.1      3.013      6.842
REMARK  3 active torsions:
REMARK  status: ('A' for Active; 'I' for Inactive)
REMARK    1  A    between atoms: C7_8  and  N1_9 
REMARK    2  A    between atoms: N1_9  and  C8_10 
REMARK    3  A    between atoms: C9_11  and  N2_12 
ROOT
HETATM    1  C8  UNL     1      23.547   0.478  53.337  1.00  0.00     0.180 C 
HETATM    2  C9  UNL     1      23.183  -0.652  54.307  1.00  0.00     0.081 C 
HETATM    3  C10 UNL     1      21.998  -1.133  53.875  1.00  0.00     0.164 C 
HETATM    4  N3  UNL     1      20.740  -1.638  54.428  1.00  0.00    -0.365 N 
HETATM    5  C11 UNL     1      19.570  -0.892  53.834  1.00  0.00     0.157 C 
HETATM    6  C12 UNL     1      20.169   0.175  52.917  1.00  0.00    -0.043 C 
HETATM    7  C13 UNL     1      21.187   1.023  53.274  1.00  0.00     0.025 C 
HETATM    8  C14 UNL     1      22.378   0.447  52.517  1.00  0.00     0.147 C 
HETATM    9  C15 UNL     1      22.150   0.852  51.179  1.00  0.00     0.128 C 
HETATM   10  N4  UNL     1      20.963   0.717  50.692  1.00  0.00    -0.298 NA
HETATM   11  C16 UNL     1      19.782   0.404  51.486  1.00  0.00     0.183 C 
HETATM   12  O1  UNL     1      22.289  -1.009  52.452  1.00  0.00    -0.311 OA
HETATM   13  H11 UNL     1      21.130  -2.359  55.065  1.00  0.00     0.162 HD
ENDROOT
BRANCH   1  14
HETATM   14  N1  UNL     1      24.796   0.247  52.692  1.00  0.00    -0.376 N 
HETATM   15  H7  UNL     1      24.711  -0.305  51.790  1.00  0.00     0.160 HD
BRANCH  14  16
HETATM   16  C7  UNL     1      26.111   0.633  53.062  1.00  0.00     0.036 A 
HETATM   17  C2  UNL     1      27.161  -0.284  53.106  1.00  0.00    -0.018 A 
HETATM   18  C1  UNL     1      26.858  -1.704  52.758  1.00  0.00     0.052 C 
HETATM   19  C3  UNL     1      28.420   0.111  53.458  1.00  0.00     0.019 A 
HETATM   20 BR1  UNL     1      29.770  -1.237  53.483  1.00  0.00    -0.051 Br
HETATM   21  C4  UNL     1      28.722   1.410  53.783  1.00  0.00     0.020 A 
HETATM   22  C5  UNL     1      27.709   2.347  53.750  1.00  0.00     0.004 A 
HETATM   23  C6  UNL     1      26.451   1.923  53.393  1.00  0.00     0.030 A 
ENDBRANCH  14  16
ENDBRANCH   1  14
BRANCH   2  24
HETATM   24  N2  UNL     1      23.590  -1.391  55.494  1.00  0.00    -0.397 N 
HETATM   25  H9  UNL     1      24.577  -1.664  55.602  1.00  0.00     0.156 HD
HETATM   26  H10 UNL     1      23.038  -1.724  56.315  1.00  0.00     0.156 HD
ENDBRANCH   2  24
TORSDOF 3
ENDMDL
MODEL 4
REMARK VINA RESULT:      -7.9      3.984      5.925
REMARK  3 active torsions:
REMARK  status: ('A' for Active; 'I' for Inactive)
REMARK    1  A    between atoms: C7_8  and  N1_9 
REMARK    2  A    between atoms: N1_9  and  C8_10 
REMARK    3  A    between atoms: C9_11  and  N2_12 
ROOT
HETATM    1  C8  UNL     1      25.264   2.151  51.315  1.00  0.00     0.180 C 
HETATM    2  C9  UNL     1      23.959   1.492  51.781  1.00  0.00     0.081 C 
HETATM    3  C10 UNL     1      24.234   0.956  52.988  1.00  0.00     0.164 C 
HETATM    4  N3  UNL     1      23.917  -0.243  53.767  1.00  0.00    -0.365 N 
HETATM    5  C11 UNL     1      25.185  -0.908  54.246  1.00  0.00     0.157 C 
HETATM    6  C12 UNL     1      26.338  -0.092  53.661  1.00  0.00    -0.043 C 
HETATM    7  C13 UNL     1      26.429   0.293  52.346  1.00  0.00     0.025 C 
HETATM    8  C14 UNL     1      26.099   1.780  52.413  1.00  0.00     0.147 C 
HETATM    9  C15 UNL     1      27.278   2.359  52.942  1.00  0.00     0.128 C 
HETATM   10  N4  UNL     1      27.840   1.787  53.954  1.00  0.00    -0.298 NA
HETATM   11  C16 UNL     1      27.493   0.460  54.442  1.00  0.00     0.183 C 
HETATM   12  O1  UNL     1      25.099   2.037  53.445  1.00  0.00    -0.311 OA
HETATM   13  H11 UNL     1      22.882  -0.202  53.697  1.00  0.00     0.162 HD
ENDROOT
BRANCH   1  14
HETATM   14  N1  UNL     1      25.100   3.544  51.068  1.00  0.00    -0.376 N 
HETATM   15  H7  UNL     1      24.313   3.983  51.629  1.00  0.00     0.160 HD
BRANCH  14  16
HETATM   16  C7  UNL     1      25.812   4.417  50.206  1.00  0.00     0.036 A 
HETATM   17  C2  UNL     1      25.475   5.766  50.084  1.00  0.00    -0.018 A 
HETATM   18  C1  UNL     1      24.322   6.269  50.889  1.00  0.00     0.052 C 
HETATM   19  C3  UNL     1      26.178   6.590  49.253  1.00  0.00     0.019 A 
HETATM   20 BR1  UNL     1      25.619   8.412  49.172  1.00  0.00    -0.051 Br
HETATM   21  C4  UNL     1      27.240   6.150  48.502  1.00  0.00     0.020 A 
HETATM   22  C5  UNL     1      27.605   4.823  48.597  1.00  0.00     0.004 A 
HETATM   23  C6  UNL     1      26.880   4.014  49.441  1.00  0.00     0.030 A 
ENDBRANCH  14  16
ENDBRANCH   1  14
BRANCH   2  24
HETATM   24  N2  UNL     1      22.571   1.207  51.441  1.00  0.00    -0.397 N 
HETATM   25  H9  UNL     1      21.843   1.889  51.696  1.00  0.00     0.156 HD
HETATM   26  H10 UNL     1      22.140   0.389  50.958  1.00  0.00     0.156 HD
ENDBRANCH   2  24
TORSDOF 3
ENDMDL
MODEL 5
REMARK VINA RESULT:      -7.9      2.257      3.460
REMARK  3 active torsions:
REMARK  status: ('A' for Active; 'I' for Inactive)
REMARK    1  A    between atoms: C7_8  and  N1_9 
REMARK    2  A    between atoms: N1_9  and  C8_10 
REMARK    3  A    between atoms: C9_11  and  N2_12 
ROOT
HETATM    1  C8  UNL     1      24.899   0.749  52.111  1.00  0.00     0.180 C 
HETATM    2  C9  UNL     1      24.554   0.059  53.437  1.00  0.00     0.081 C 
HETATM    3  C10 UNL     1      25.597   0.310  54.256  1.00  0.00     0.164 C 
HETATM    4  N3  UNL     1      26.384  -0.370  55.288  1.00  0.00    -0.365 N 
HETATM    5  C11 UNL     1      27.855  -0.294  54.960  1.00  0.00     0.157 C 
HETATM    6  C12 UNL     1      27.952   0.419  53.611  1.00  0.00    -0.043 C 
HETATM    7  C13 UNL     1      27.199   0.101  52.508  1.00  0.00     0.025 C 
HETATM    8  C14 UNL     1      26.194   1.245  52.452  1.00  0.00     0.147 C 
HETATM    9  C15 UNL     1      26.953   2.332  51.952  1.00  0.00     0.128 C 
HETATM   10  N4  UNL     1      28.125   2.540  52.451  1.00  0.00    -0.298 NA
HETATM   11  C16 UNL     1      28.826   1.602  53.317  1.00  0.00     0.183 C 
HETATM   12  O1  UNL     1      25.830   1.674  53.800  1.00  0.00    -0.311 OA
HETATM   13  H11 UNL     1      25.603  -0.679  55.898  1.00  0.00     0.162 HD
ENDROOT
BRANCH   1  14
HETATM   14  N1  UNL     1      23.916   1.710  51.738  1.00  0.00    -0.376 N 
HETATM   15  H7  UNL     1      24.012   2.634  52.250  1.00  0.00     0.160 HD
BRANCH  14  16
HETATM   16  C7  UNL     1      22.849   1.624  50.806  1.00  0.00     0.036 A 
HETATM   17  C2  UNL     1      22.864   2.333  49.604  1.00  0.00    -0.018 A 
HETATM   18  C1  UNL     1      24.045   3.203  49.325  1.00  0.00     0.052 C 
HETATM   19  C3  UNL     1      21.829   2.229  48.719  1.00  0.00     0.019 A 
HETATM   20 BR1  UNL     1      21.966   3.249  47.112  1.00  0.00    -0.051 Br
HETATM   21  C4  UNL     1      20.733   1.438  48.954  1.00  0.00     0.020 A 
HETATM   22  C5  UNL     1      20.682   0.720  50.131  1.00  0.00     0.004 A 
HETATM   23  C6  UNL     1      21.736   0.842  51.005  1.00  0.00     0.030 A 
ENDBRANCH  14  16
ENDBRANCH   1  14
BRANCH   2  24
HETATM   24  N2  UNL     1      23.578  -0.755  54.147  1.00  0.00    -0.397 N 
HETATM   25  H9  UNL     1      22.576  -0.630  53.941  1.00  0.00     0.156 HD
HETATM   26  H10 UNL     1      23.702  -1.490  54.877  1.00  0.00     0.156 HD
ENDBRANCH   2  24
TORSDOF 3
ENDMDL
MODEL 6
REMARK VINA RESULT:      -7.5      3.096      4.829
REMARK  3 active torsions:
REMARK  status: ('A' for Active; 'I' for Inactive)
REMARK    1  A    between atoms: C7_8  and  N1_9 
REMARK    2  A    between atoms: N1_9  and  C8_10 
REMARK    3  A    between atoms: C9_11  and  N2_12 
ROOT
HETATM    1  C8  UNL     1      23.510   1.933  51.491  1.00  0.00     0.180 C 
HETATM    2  C9  UNL     1      25.011   1.888  51.800  1.00  0.00     0.081 C 
HETATM    3  C10 UNL     1      25.508   3.061  51.351  1.00  0.00     0.164 C 
HETATM    4  N3  UNL     1      26.704   3.573  50.679  1.00  0.00    -0.365 N 
HETATM    5  C11 UNL     1      26.318   4.362  49.452  1.00  0.00     0.157 C 
HETATM    6  C12 UNL     1      24.796   4.261  49.344  1.00  0.00    -0.043 C 
HETATM    7  C13 UNL     1      24.087   3.090  49.441  1.00  0.00     0.025 C 
HETATM    8  C14 UNL     1      23.460   3.196  50.827  1.00  0.00     0.147 C 
HETATM    9  C15 UNL     1      22.410   4.130  50.647  1.00  0.00     0.128 C 
HETATM   10  N4  UNL     1      22.655   5.205  49.977  1.00  0.00    -0.298 NA
HETATM   11  C16 UNL     1      23.859   5.422  49.186  1.00  0.00     0.183 C 
HETATM   12  O1  UNL     1      24.367   3.876  51.749  1.00  0.00    -0.311 OA
HETATM   13  H11 UNL     1      27.421   3.181  51.320  1.00  0.00     0.162 HD
ENDROOT
BRANCH   1  14
HETATM   14  N1  UNL     1      22.718   1.787  52.666  1.00  0.00    -0.376 N 
HETATM   15  H7  UNL     1      22.603   2.690  53.212  1.00  0.00     0.160 HD
BRANCH  14  16
HETATM   16  C7  UNL     1      22.073   0.646  53.208  1.00  0.00     0.036 A 
HETATM   17  C2  UNL     1      20.723   0.383  52.974  1.00  0.00    -0.018 A 
HETATM   18  C1  UNL     1      19.963   1.353  52.131  1.00  0.00     0.052 C 
HETATM   19  C3  UNL     1      20.126  -0.726  53.501  1.00  0.00     0.019 A 
HETATM   20 BR1  UNL     1      18.275  -0.975  53.109  1.00  0.00    -0.051 Br
HETATM   21  C4  UNL     1      20.804  -1.632  54.278  1.00  0.00     0.020 A 
HETATM   22  C5  UNL     1      22.141  -1.406  54.532  1.00  0.00     0.004 A 
HETATM   23  C6  UNL     1      22.719  -0.283  53.990  1.00  0.00     0.030 A 
ENDBRANCH  14  16
ENDBRANCH   1  14
BRANCH   2  24
HETATM   24  N2  UNL     1      26.098   1.097  52.360  1.00  0.00    -0.397 N 
HETATM   25  H9  UNL     1      26.041   0.069  52.322  1.00  0.00     0.156 HD
HETATM   26  H10 UNL     1      26.985   1.387  52.826  1.00  0.00     0.156 HD
ENDBRANCH   2  24
TORSDOF 3
ENDMDL
MODEL 7
REMARK VINA RESULT:      -7.4      1.623      2.402
REMARK  3 active torsions:
REMARK  status: ('A' for Active; 'I' for Inactive)
REMARK    1  A    between atoms: C7_8  and  N1_9 
REMARK    2  A    between atoms: N1_9  and  C8_10 
REMARK    3  A    between atoms: C9_11  and  N2_12 
ROOT
HETATM    1  C8  UNL     1      24.377   1.472  52.629  1.00  0.00     0.180 C 
HETATM    2  C9  UNL     1      25.181   2.572  51.926  1.00  0.00     0.081 C 
HETATM    3  C10 UNL     1      26.476   2.219  52.064  1.00  0.00     0.164 C 
HETATM    4  N3  UNL     1      27.776   2.847  52.307  1.00  0.00    -0.365 N 
HETATM    5  C11 UNL     1      28.464   2.192  53.480  1.00  0.00     0.157 C 
HETATM    6  C12 UNL     1      27.483   1.147  54.016  1.00  0.00    -0.043 C 
HETATM    7  C13 UNL     1      26.156   1.387  54.271  1.00  0.00     0.025 C 
HETATM    8  C14 UNL     1      25.464   0.681  53.111  1.00  0.00     0.147 C 
HETATM    9  C15 UNL     1      25.558  -0.691  53.452  1.00  0.00     0.128 C 
HETATM   10  N4  UNL     1      26.689  -1.138  53.883  1.00  0.00    -0.298 NA
HETATM   11  C16 UNL     1      27.809  -0.294  54.276  1.00  0.00     0.183 C 
HETATM   12  O1  UNL     1      26.266   0.786  51.895  1.00  0.00    -0.311 OA
HETATM   13  H11 UNL     1      27.749   3.557  51.550  1.00  0.00     0.162 HD
ENDROOT
BRANCH   1  14
HETATM   14  N1  UNL     1      23.456   0.837  51.747  1.00  0.00    -0.376 N 
HETATM   15  H7  UNL     1      23.915   0.159  51.073  1.00  0.00     0.160 HD
BRANCH  14  16
HETATM   16  C7  UNL     1      22.047   0.968  51.633  1.00  0.00     0.036 A 
HETATM   17  C2  UNL     1      21.172   0.126  52.320  1.00  0.00    -0.018 A 
HETATM   18  C1  UNL     1      21.766  -0.938  53.183  1.00  0.00     0.052 C 
HETATM   19  C3  UNL     1      19.820   0.276  52.201  1.00  0.00     0.019 A 
HETATM   20 BR1  UNL     1      18.729  -0.939  53.189  1.00  0.00    -0.051 Br
HETATM   21  C4  UNL     1      19.251   1.245  51.414  1.00  0.00     0.020 A 
HETATM   22  C5  UNL     1      20.084   2.098  50.719  1.00  0.00     0.004 A 
HETATM   23  C6  UNL     1      21.441   1.926  50.857  1.00  0.00     0.030 A 
ENDBRANCH  14  16
ENDBRANCH   1  14
BRANCH   2  24
HETATM   24  N2  UNL     1      25.108   3.830  51.195  1.00  0.00    -0.397 N 
HETATM   25  H9  UNL     1      25.822   4.552  51.368  1.00  0.00     0.156 HD
HETATM   26  H10 UNL     1      24.427   4.168  50.481  1.00  0.00     0.156 HD
ENDBRANCH   2  24
TORSDOF 3
ENDMDL
MODEL 8
REMARK VINA RESULT:      -7.4      4.635      6.903
REMARK  3 active torsions:
REMARK  status: ('A' for Active; 'I' for Inactive)
REMARK    1  A    between atoms: C7_8  and  N1_9 
REMARK    2  A    between atoms: N1_9  and  C8_10 
REMARK    3  A    between atoms: C9_11  and  N2_12 
ROOT
HETATM    1  C8  UNL     1      25.033   4.093  50.093  1.00  0.00     0.180 C 
HETATM    2  C9  UNL     1      26.243   4.756  49.422  1.00  0.00     0.081 C 
HETATM    3  C10 UNL     1      25.861   6.024  49.159  1.00  0.00     0.164 C 
HETATM    4  N3  UNL     1      26.021   7.034  48.111  1.00  0.00    -0.365 N 
HETATM    5  C11 UNL     1      24.672   7.550  47.671  1.00  0.00     0.157 C 
HETATM    6  C12 UNL     1      23.634   6.750  48.460  1.00  0.00    -0.043 C 
HETATM    7  C13 UNL     1      23.641   5.383  48.587  1.00  0.00     0.025 C 
HETATM    8  C14 UNL     1      24.118   5.187  50.022  1.00  0.00     0.147 C 
HETATM    9  C15 UNL     1      22.982   5.522  50.799  1.00  0.00     0.128 C 
HETATM   10  N4  UNL     1      22.321   6.586  50.490  1.00  0.00    -0.298 NA
HETATM   11  C16 UNL     1      22.509   7.339  49.257  1.00  0.00     0.183 C 
HETATM   12  O1  UNL     1      25.093   6.212  50.383  1.00  0.00    -0.311 OA
HETATM   13  H11 UNL     1      27.056   7.023  48.042  1.00  0.00     0.162 HD
ENDROOT
BRANCH   1  14
HETATM   14  N1  UNL     1      25.349   3.597  51.390  1.00  0.00    -0.376 N 
HETATM   15  H7  UNL     1      25.484   4.361  52.114  1.00  0.00     0.160 HD
BRANCH  14  16
HETATM   16  C7  UNL     1      25.507   2.265  51.855  1.00  0.00     0.036 A 
HETATM   17  C2  UNL     1      24.465   1.574  52.474  1.00  0.00    -0.018 A 
HETATM   18  C1  UNL     1      23.163   2.286  52.644  1.00  0.00     0.052 C 
HETATM   19  C3  UNL     1      24.637   0.291  52.907  1.00  0.00     0.019 A 
HETATM   20 BR1  UNL     1      23.137  -0.546  53.739  1.00  0.00    -0.051 Br
HETATM   21  C4  UNL     1      25.824  -0.384  52.763  1.00  0.00     0.020 A 
HETATM   22  C5  UNL     1      26.878   0.266  52.155  1.00  0.00     0.004 A 
HETATM   23  C6  UNL     1      26.678   1.558  51.728  1.00  0.00     0.030 A 
ENDBRANCH  14  16
ENDBRANCH   1  14
BRANCH   2  24
HETATM   24  N2  UNL     1      27.607   4.564  48.949  1.00  0.00    -0.397 N 
HETATM   25  H9  UNL     1      28.305   5.302  49.120  1.00  0.00     0.156 HD
HETATM   26  H10 UNL     1      28.047   3.771  48.434  1.00  0.00     0.156 HD
ENDBRANCH   2  24
TORSDOF 3
ENDMDL
MODEL 9
REMARK VINA RESULT:      -7.4      4.320      6.508
REMARK  3 active torsions:
REMARK  status: ('A' for Active; 'I' for Inactive)
REMARK    1  A    between atoms: C7_8  and  N1_9 
REMARK    2  A    between atoms: N1_9  and  C8_10 
REMARK    3  A    between atoms: C9_11  and  N2_12 
ROOT
HETATM    1  C8  UNL     1      24.019   3.866  50.780  1.00  0.00     0.180 C 
HETATM    2  C9  UNL     1      23.713   4.921  51.850  1.00  0.00     0.081 C 
HETATM    3  C10 UNL     1      23.077   5.920  51.203  1.00  0.00     0.164 C 
HETATM    4  N3  UNL     1      23.019   7.383  51.206  1.00  0.00    -0.365 N 
HETATM    5  C11 UNL     1      23.259   7.920  49.816  1.00  0.00     0.157 C 
HETATM    6  C12 UNL     1      23.545   6.703  48.935  1.00  0.00    -0.043 C 
HETATM    7  C13 UNL     1      24.429   5.704  49.255  1.00  0.00     0.025 C 
HETATM    8  C14 UNL     1      23.504   4.555  49.641  1.00  0.00     0.147 C 
HETATM    9  C15 UNL     1      23.014   4.089  48.395  1.00  0.00     0.128 C 
HETATM   10  N4  UNL     1      22.618   4.960  47.529  1.00  0.00    -0.298 NA
HETATM   11  C16 UNL     1      22.859   6.392  47.637  1.00  0.00     0.183 C 
HETATM   12  O1  UNL     1      22.309   5.061  50.310  1.00  0.00    -0.311 OA
HETATM   13  H11 UNL     1      22.832   7.528  52.217  1.00  0.00     0.162 HD
ENDROOT
BRANCH   1  14
HETATM   14  N1  UNL     1      23.436   2.605  51.093  1.00  0.00    -0.376 N 
HETATM   15  H7  UNL     1      22.501   2.442  50.618  1.00  0.00     0.160 HD
BRANCH  14  16
HETATM   16  C7  UNL     1      23.902   1.553  51.924  1.00  0.00     0.036 A 
HETATM   17  C2  UNL     1      23.043   0.848  52.768  1.00  0.00    -0.018 A 
HETATM   18  C1  UNL     1      21.602   1.240  52.779  1.00  0.00     0.052 C 
HETATM   19  C3  UNL     1      23.513  -0.165  53.554  1.00  0.00     0.019 A 
HETATM   20 BR1  UNL     1      22.240  -1.053  54.665  1.00  0.00    -0.051 Br
HETATM   21  C4  UNL     1      24.832  -0.543  53.562  1.00  0.00     0.020 A 
HETATM   22  C5  UNL     1      25.712   0.130  52.740  1.00  0.00     0.004 A 
HETATM   23  C6  UNL     1      25.214   1.146  51.959  1.00  0.00     0.030 A 
ENDBRANCH  14  16
ENDBRANCH   1  14
BRANCH   2  24
HETATM   24  N2  UNL     1      23.846   5.278  53.257  1.00  0.00    -0.397 N 
HETATM   25  H9  UNL     1      23.488   6.188  53.579  1.00  0.00     0.156 HD
HETATM   26  H10 UNL     1      24.263   4.756  54.058  1.00  0.00     0.156 HD
ENDBRANCH   2  24
TORSDOF 3
ENDMDL
