MODEL 1
REMARK VINA RESULT:      -8.8      0.000      0.000
REMARK  6 active torsions:
REMARK  status: ('A' for Active; 'I' for Inactive)
REMARK    1  A    between atoms: O1_1  and  C1_2 
REMARK    2  A    between atoms: C1_2  and  C2_3 
REMARK    3  A    between atoms: C2_3  and  N1_4 
REMARK    4  A    between atoms: C2_3  and  C14_19 
REMARK    5  A    between atoms: C6_10  and  C7_11 
REMARK    6  A    between atoms: C7_11  and  C8_13 
ROOT
HETATM    1  N1  UNL     1      25.892   1.297  51.725  1.00  0.00    -0.367 N 
HETATM    2  C3  UNL     1      25.095   2.336  51.997  1.00  0.00     0.114 A 
HETATM    3  N2  UNL     1      24.426   2.659  53.471  1.00  0.00    -0.259 NA
HETATM    4  C4  UNL     1      23.981   3.586  52.835  1.00  0.00     0.094 A 
HETATM    5  P1  UNL     1      23.553   4.496  52.180  1.00  0.00    -0.111 P 
HETATM    6  C5  UNL     1      23.369   4.897  51.878  1.00  0.00     0.124 A 
HETATM    7  C6  UNL     1      24.444   3.669  51.114  1.00  0.00     0.086 A 
HETATM    8  H5  UNL     1      25.535   0.983  50.767  1.00  0.00     0.161 HD
HETATM    9  H6  UNL     1      22.684   6.310  50.934  1.00  0.00     0.048 HD
ENDROOT
BRANCH   1  10
HETATM   10  C2  UNL     1      26.773   1.206  52.885  1.00  0.00     0.139 C 
BRANCH  10  11
HETATM   11  C1  UNL     1      27.720   2.370  52.732  1.00  0.00     0.194 C 
BRANCH  11  12
HETATM   12  O1  UNL     1      28.025   2.900  54.010  1.00  0.00    -0.399 OA
HETATM   13  H1  UNL     1      28.775   2.396  54.394  1.00  0.00     0.209 HD
ENDBRANCH  11  12
ENDBRANCH  10  11
BRANCH  10  14
HETATM   14  C14 UNL     1      27.468  -0.083  52.950  1.00  0.00    -0.034 A 
HETATM   15  C15 UNL     1      26.678  -1.147  52.498  1.00  0.00     0.009 A 
HETATM   16  C16 UNL     1      27.160  -2.447  52.480  1.00  0.00     0.001 A 
HETATM   17  C17 UNL     1      28.441  -2.679  52.920  1.00  0.00     0.000 A 
HETATM   18  C18 UNL     1      29.243  -1.646  53.371  1.00  0.00     0.001 A 
HETATM   19  C19 UNL     1      28.769  -0.356  53.390  1.00  0.00     0.009 A 
ENDBRANCH  10  14
ENDBRANCH   1  10
BRANCH   7  20
HETATM   20  C7  UNL     1      25.248   3.192  49.715  1.00  0.00     0.224 C 
HETATM   21  F1  UNL     1      24.245   2.794  48.880  1.00  0.00    -0.243 F 
BRANCH  20  22
HETATM   22  C8  UNL     1      25.826   4.441  49.241  1.00  0.00    -0.023 A 
HETATM   23  C9  UNL     1      25.294   5.655  48.972  1.00  0.00     0.010 A 
HETATM   24  C10 UNL     1      26.000   6.737  48.504  1.00  0.00     0.001 A 
HETATM   25  C11 UNL     1      27.353   6.598  48.284  1.00  0.00     0.000 A 
HETATM   26  C12 UNL     1      27.957   5.385  48.541  1.00  0.00     0.001 A 
HETATM   27  C13 UNL     1      27.218   4.297  49.017  1.00  0.00     0.010 A 
ENDBRANCH  20  22
ENDBRANCH   7  20
TORSDOF 6
ENDMDL
MODEL 2
REMARK VINA RESULT:      -7.9      3.207      6.792
REMARK  6 active torsions:
REMARK  status: ('A' for Active; 'I' for Inactive)
REMARK    1  A    between atoms: O1_1  and  C1_2 
REMARK    2  A    between atoms: C1_2  and  C2_3 
REMARK    3  A    between atoms: C2_3  and  N1_4 
REMARK    4  A    between atoms: C2_3  and  C14_19 
REMARK    5  A    between atoms: C6_10  and  C7_11 
REMARK    6  A    between atoms: C7_11  and  C8_13 
ROOT
HETATM    1  N1  UNL     1      23.960   3.734  50.556  1.00  0.00    -0.367 N 
HETATM    2  C3  UNL     1      23.028   2.933  50.027  1.00  0.00     0.114 A 
HETATM    3  N2  UNL     1      22.905   2.550  48.426  1.00  0.00    -0.259 NA
HETATM    4  C4  UNL     1      21.969   1.920  48.862  1.00  0.00     0.094 A 
HETATM    5  P1  UNL     1      21.047   1.304  49.321  1.00  0.00    -0.111 P 
HETATM    6  C5  UNL     1      20.639   1.035  49.538  1.00  0.00     0.124 A 
HETATM    7  C6  UNL     1      21.686   2.025  50.620  1.00  0.00     0.086 A 
HETATM    8  H5  UNL     1      23.392   4.306  51.259  1.00  0.00     0.161 HD
HETATM    9  H6  UNL     1      19.218   0.071  50.176  1.00  0.00     0.048 HD
ENDROOT
BRANCH   1  10
HETATM   10  C2  UNL     1      25.191   3.358  49.869  1.00  0.00     0.139 C 
BRANCH  10  11
HETATM   11  C1  UNL     1      26.018   2.667  50.925  1.00  0.00     0.194 C 
BRANCH  11  12
HETATM   12  O1  UNL     1      25.700   3.203  52.197  1.00  0.00    -0.399 OA
HETATM   13  H1  UNL     1      24.725   3.216  52.303  1.00  0.00     0.209 HD
ENDBRANCH  11  12
ENDBRANCH  10  11
BRANCH  10  14
HETATM   14  C14 UNL     1      25.874   4.516  49.286  1.00  0.00    -0.034 A 
HETATM   15  C15 UNL     1      27.233   4.279  49.048  1.00  0.00     0.009 A 
HETATM   16  C16 UNL     1      28.050   5.256  48.496  1.00  0.00     0.001 A 
HETATM   17  C17 UNL     1      27.498   6.475  48.184  1.00  0.00     0.000 A 
HETATM   18  C18 UNL     1      26.158   6.735  48.409  1.00  0.00     0.001 A 
HETATM   19  C19 UNL     1      25.345   5.770  48.954  1.00  0.00     0.009 A 
ENDBRANCH  10  14
ENDBRANCH   1  10
BRANCH   7  20
HETATM   20  C7  UNL     1      22.007   2.500  52.202  1.00  0.00     0.224 C 
HETATM   21  F1  UNL     1      20.942   3.288  52.529  1.00  0.00    -0.243 F 
BRANCH  20  22
HETATM   22  C8  UNL     1      21.939   1.242  52.931  1.00  0.00    -0.023 A 
HETATM   23  C9  UNL     1      20.936   0.613  53.585  1.00  0.00     0.010 A 
HETATM   24  C10 UNL     1      21.059  -0.586  54.247  1.00  0.00     0.001 A 
HETATM   25  C11 UNL     1      22.286  -1.212  54.257  1.00  0.00     0.000 A 
HETATM   26  C12 UNL     1      23.350  -0.623  53.606  1.00  0.00     0.001 A 
HETATM   27  C13 UNL     1      23.202   0.598  52.939  1.00  0.00     0.010 A 
ENDBRANCH  20  22
ENDBRANCH   7  20
TORSDOF 6
ENDMDL
MODEL 3
REMARK VINA RESULT:      -7.8      2.962      6.919
REMARK  6 active torsions:
REMARK  status: ('A' for Active; 'I' for Inactive)
REMARK    1  A    between atoms: O1_1  and  C1_2 
REMARK    2  A    between atoms: C1_2  and  C2_3 
REMARK    3  A    between atoms: C2_3  and  N1_4 
REMARK    4  A    between atoms: C2_3  and  C14_19 
REMARK    5  A    between atoms: C6_10  and  C7_11 
REMARK    6  A    between atoms: C7_11  and  C8_13 
ROOT
HETATM    1  N1  UNL     1      26.169   1.671  51.397  1.00  0.00    -0.367 N 
HETATM    2  C3  UNL     1      27.031   1.378  52.377  1.00  0.00     0.114 A 
HETATM    3  N2  UNL     1      28.135   2.427  53.015  1.00  0.00    -0.259 NA
HETATM    4  C4  UNL     1      28.375   1.445  53.679  1.00  0.00     0.094 A 
HETATM    5  P1  UNL     1      28.593   0.456  54.323  1.00  0.00    -0.111 P 
HETATM    6  C5  UNL     1      28.680   0.009  54.603  1.00  0.00     0.124 A 
HETATM    7  C6  UNL     1      27.397  -0.008  53.338  1.00  0.00     0.086 A 
HETATM    8  H5  UNL     1      26.202   0.787  50.796  1.00  0.00     0.161 HD
HETATM    9  H6  UNL     1      29.061  -1.465  55.621  1.00  0.00     0.048 HD
ENDROOT
BRANCH   1  10
HETATM   10  C2  UNL     1      25.695   3.013  51.724  1.00  0.00     0.139 C 
BRANCH  10  11
HETATM   11  C1  UNL     1      24.786   2.814  52.911  1.00  0.00     0.194 C 
BRANCH  11  12
HETATM   12  O1  UNL     1      24.389   4.076  53.417  1.00  0.00    -0.399 OA
HETATM   13  H1  UNL     1      24.831   4.227  54.280  1.00  0.00     0.209 HD
ENDBRANCH  11  12
ENDBRANCH  10  11
BRANCH  10  14
HETATM   14  C14 UNL     1      25.015   3.648  50.592  1.00  0.00    -0.034 A 
HETATM   15  C15 UNL     1      23.951   2.883  50.101  1.00  0.00     0.009 A 
HETATM   16  C16 UNL     1      23.182   3.318  49.031  1.00  0.00     0.001 A 
HETATM   17  C17 UNL     1      23.485   4.526  48.452  1.00  0.00     0.000 A 
HETATM   18  C18 UNL     1      24.531   5.303  48.918  1.00  0.00     0.001 A 
HETATM   19  C19 UNL     1      25.295   4.876  49.978  1.00  0.00     0.009 A 
ENDBRANCH  10  14
ENDBRANCH   1  10
BRANCH   7  20
HETATM   20  C7  UNL     1      26.185  -0.902  52.589  1.00  0.00     0.224 C 
HETATM   21  F1  UNL     1      26.737  -2.142  52.442  1.00  0.00    -0.243 F 
BRANCH  20  22
HETATM   22  C8  UNL     1      25.143  -0.937  53.604  1.00  0.00    -0.023 A 
HETATM   23  C9  UNL     1      25.170  -1.137  54.942  1.00  0.00     0.010 A 
HETATM   24  C10 UNL     1      24.064  -1.156  55.757  1.00  0.00     0.001 A 
HETATM   25  C11 UNL     1      22.823  -0.957  55.192  1.00  0.00     0.000 A 
HETATM   26  C12 UNL     1      22.728  -0.745  53.832  1.00  0.00     0.001 A 
HETATM   27  C13 UNL     1      23.867  -0.730  53.021  1.00  0.00     0.010 A 
ENDBRANCH  20  22
ENDBRANCH   7  20
TORSDOF 6
ENDMDL
MODEL 4
REMARK VINA RESULT:      -7.8      3.104      3.971
REMARK  6 active torsions:
REMARK  status: ('A' for Active; 'I' for Inactive)
REMARK    1  A    between atoms: O1_1  and  C1_2 
REMARK    2  A    between atoms: C1_2  and  C2_3 
REMARK    3  A    between atoms: C2_3  and  N1_4 
REMARK    4  A    between atoms: C2_3  and  C14_19 
REMARK    5  A    between atoms: C6_10  and  C7_11 
REMARK    6  A    between atoms: C7_11  and  C8_13 
ROOT
HETATM    1  N1  UNL     1      25.141  -0.001  52.326  1.00  0.00    -0.367 N 
HETATM    2  C3  UNL     1      23.999  -0.081  53.018  1.00  0.00     0.114 A 
HETATM    3  N2  UNL     1      23.834  -0.793  54.498  1.00  0.00    -0.259 NA
HETATM    4  C4  UNL     1      22.695  -0.429  54.317  1.00  0.00     0.094 A 
HETATM    5  P1  UNL     1      21.573  -0.057  54.110  1.00  0.00    -0.111 P 
HETATM    6  C5  UNL     1      21.077   0.113  54.006  1.00  0.00     0.124 A 
HETATM    7  C6  UNL     1      22.365   0.425  52.785  1.00  0.00     0.086 A 
HETATM    8  H5  UNL     1      24.815  -0.209  51.329  1.00  0.00     0.161 HD
HETATM    9  H6  UNL     1      19.346   0.655  53.753  1.00  0.00     0.048 HD
ENDROOT
BRANCH   1  10
HETATM   10  C2  UNL     1      26.149   0.321  53.331  1.00  0.00     0.139 C 
BRANCH  10  11
HETATM   11  C1  UNL     1      26.552   1.742  53.021  1.00  0.00     0.194 C 
BRANCH  11  12
HETATM   12  O1  UNL     1      26.198   2.579  54.107  1.00  0.00    -0.399 OA
HETATM   13  H1  UNL     1      27.016   2.945  54.507  1.00  0.00     0.209 HD
ENDBRANCH  11  12
ENDBRANCH  10  11
BRANCH  10  14
HETATM   14  C14 UNL     1      27.282  -0.608  53.293  1.00  0.00    -0.034 A 
HETATM   15  C15 UNL     1      28.465  -0.038  53.779  1.00  0.00     0.009 A 
HETATM   16  C16 UNL     1      29.648  -0.762  53.827  1.00  0.00     0.001 A 
HETATM   17  C17 UNL     1      29.642  -2.062  53.382  1.00  0.00     0.000 A 
HETATM   18  C18 UNL     1      28.487  -2.649  52.897  1.00  0.00     0.001 A 
HETATM   19  C19 UNL     1      27.313  -1.936  52.850  1.00  0.00     0.009 A 
ENDBRANCH  10  14
ENDBRANCH   1  10
BRANCH   7  20
HETATM   20  C7  UNL     1      22.748   1.132  51.307  1.00  0.00     0.224 C 
HETATM   21  F1  UNL     1      21.930   0.497  50.419  1.00  0.00    -0.243 F 
BRANCH  20  22
HETATM   22  C8  UNL     1      22.312   2.508  51.492  1.00  0.00    -0.023 A 
HETATM   23  C9  UNL     1      21.145   3.143  51.239  1.00  0.00     0.010 A 
HETATM   24  C10 UNL     1      20.912   4.479  51.463  1.00  0.00     0.001 A 
HETATM   25  C11 UNL     1      21.928   5.249  51.985  1.00  0.00     0.000 A 
HETATM   26  C12 UNL     1      23.143   4.660  52.268  1.00  0.00     0.001 A 
HETATM   27  C13 UNL     1      23.358   3.298  52.031  1.00  0.00     0.010 A 
ENDBRANCH  20  22
ENDBRANCH   7  20
TORSDOF 6
ENDMDL
MODEL 5
REMARK VINA RESULT:      -7.7      2.349      6.733
REMARK  6 active torsions:
REMARK  status: ('A' for Active; 'I' for Inactive)
REMARK    1  A    between atoms: O1_1  and  C1_2 
REMARK    2  A    between atoms: C1_2  and  C2_3 
REMARK    3  A    between atoms: C2_3  and  N1_4 
REMARK    4  A    between atoms: C2_3  and  C14_19 
REMARK    5  A    between atoms: C6_10  and  C7_11 
REMARK    6  A    between atoms: C7_11  and  C8_13 
ROOT
HETATM    1  N1  UNL     1      25.076   4.901  50.644  1.00  0.00    -0.367 N 
HETATM    2  C3  UNL     1      24.159   3.966  50.369  1.00  0.00     0.114 A 
HETATM    3  N2  UNL     1      23.219   3.929  49.013  1.00  0.00    -0.259 NA
HETATM    4  C4  UNL     1      22.815   2.936  49.571  1.00  0.00     0.094 A 
HETATM    5  P1  UNL     1      22.432   1.955  50.148  1.00  0.00    -0.111 P 
HETATM    6  C5  UNL     1      22.270   1.521  50.415  1.00  0.00     0.124 A 
HETATM    7  C6  UNL     1      23.561   2.545  51.144  1.00  0.00     0.086 A 
HETATM    8  H5  UNL     1      24.919   5.072  51.688  1.00  0.00     0.161 HD
HETATM    9  H6  UNL     1      21.643   0.012  51.242  1.00  0.00     0.048 HD
ENDROOT
BRANCH   1  10
HETATM   10  C2  UNL     1      25.746   5.133  49.368  1.00  0.00     0.139 C 
BRANCH  10  11
HETATM   11  C1  UNL     1      26.745   4.008  49.256  1.00  0.00     0.194 C 
BRANCH  11  12
HETATM   12  O1  UNL     1      27.367   3.803  50.512  1.00  0.00    -0.399 OA
HETATM   13  H1  UNL     1      27.369   2.842  50.714  1.00  0.00     0.209 HD
ENDBRANCH  11  12
ENDBRANCH  10  11
BRANCH  10  14
HETATM   14  C14 UNL     1      26.376   6.455  49.309  1.00  0.00    -0.034 A 
HETATM   15  C15 UNL     1      27.371   6.536  48.327  1.00  0.00     0.009 A 
HETATM   16  C16 UNL     1      28.081   7.709  48.114  1.00  0.00     0.001 A 
HETATM   17  C17 UNL     1      27.791   8.803  48.893  1.00  0.00     0.000 A 
HETATM   18  C18 UNL     1      26.813   8.750  49.869  1.00  0.00     0.001 A 
HETATM   19  C19 UNL     1      26.106   7.590  50.082  1.00  0.00     0.009 A 
ENDBRANCH  10  14
ENDBRANCH   1  10
BRANCH   7  20
HETATM   20  C7  UNL     1      24.635   2.738  52.426  1.00  0.00     0.224 C 
HETATM   21  F1  UNL     1      23.847   3.186  53.447  1.00  0.00    -0.243 F 
BRANCH  20  22
HETATM   22  C8  UNL     1      25.064   1.373  52.688  1.00  0.00    -0.023 A 
HETATM   23  C9  UNL     1      24.607   0.411  53.522  1.00  0.00     0.010 A 
HETATM   24  C10 UNL     1      25.159  -0.841  53.656  1.00  0.00     0.001 A 
HETATM   25  C11 UNL     1      26.260  -1.163  52.893  1.00  0.00     0.000 A 
HETATM   26  C12 UNL     1      26.774  -0.225  52.021  1.00  0.00     0.001 A 
HETATM   27  C13 UNL     1      26.196   1.043  51.901  1.00  0.00     0.010 A 
ENDBRANCH  20  22
ENDBRANCH   7  20
TORSDOF 6
ENDMDL
MODEL 6
REMARK VINA RESULT:      -7.6      2.390      6.920
REMARK  6 active torsions:
REMARK  status: ('A' for Active; 'I' for Inactive)
REMARK    1  A    between atoms: O1_1  and  C1_2 
REMARK    2  A    between atoms: C1_2  and  C2_3 
REMARK    3  A    between atoms: C2_3  and  N1_4 
REMARK    4  A    between atoms: C2_3  and  C14_19 
REMARK    5  A    between atoms: C6_10  and  C7_11 
REMARK    6  A    between atoms: C7_11  and  C8_13 
ROOT
HETATM    1  N1  UNL     1      25.196   3.231  52.328  1.00  0.00    -0.367 N 
HETATM    2  C3  UNL     1      24.537   2.114  52.657  1.00  0.00     0.114 A 
HETATM    3  N2  UNL     1      22.947   1.818  52.329  1.00  0.00    -0.259 NA
HETATM    4  C4  UNL     1      23.236   0.789  52.893  1.00  0.00     0.094 A 
HETATM    5  P1  UNL     1      23.551  -0.223  53.457  1.00  0.00    -0.111 P 
HETATM    6  C5  UNL     1      23.703  -0.669  53.710  1.00  0.00     0.124 A 
HETATM    7  C6  UNL     1      24.921   0.635  53.460  1.00  0.00     0.086 A 
HETATM    8  H5  UNL     1      25.783   3.413  53.204  1.00  0.00     0.161 HD
HETATM    9  H6  UNL     1      24.119  -2.237  54.560  1.00  0.00     0.048 HD
ENDROOT
BRANCH   1  10
HETATM   10  C2  UNL     1      24.729   3.541  50.980  1.00  0.00     0.139 C 
BRANCH  10  11
HETATM   11  C1  UNL     1      25.984   3.573  50.144  1.00  0.00     0.194 C 
BRANCH  11  12
HETATM   12  O1  UNL     1      27.107   3.324  50.970  1.00  0.00    -0.399 OA
HETATM   13  H1  UNL     1      26.865   3.512  51.903  1.00  0.00     0.209 HD
ENDBRANCH  11  12
ENDBRANCH  10  11
BRANCH  10  14
HETATM   14  C14 UNL     1      23.984   4.802  50.931  1.00  0.00    -0.034 A 
HETATM   15  C15 UNL     1      24.820   5.920  50.822  1.00  0.00     0.009 A 
HETATM   16  C16 UNL     1      24.302   7.205  50.758  1.00  0.00     0.001 A 
HETATM   17  C17 UNL     1      22.939   7.368  50.805  1.00  0.00     0.000 A 
HETATM   18  C18 UNL     1      22.090   6.280  50.912  1.00  0.00     0.001 A 
HETATM   19  C19 UNL     1      22.599   5.005  50.974  1.00  0.00     0.009 A 
ENDBRANCH  10  14
ENDBRANCH   1  10
BRANCH   7  20
HETATM   20  C7  UNL     1      26.524   1.108  53.659  1.00  0.00     0.224 C 
HETATM   21  F1  UNL     1      26.609   1.420  54.985  1.00  0.00    -0.243 F 
BRANCH  20  22
HETATM   22  C8  UNL     1      27.253  -0.122  53.388  1.00  0.00    -0.023 A 
HETATM   23  C9  UNL     1      26.884  -1.311  52.858  1.00  0.00     0.010 A 
HETATM   24  C10 UNL     1      27.718  -2.390  52.691  1.00  0.00     0.001 A 
HETATM   25  C11 UNL     1      29.033  -2.276  53.085  1.00  0.00     0.000 A 
HETATM   26  C12 UNL     1      29.473  -1.088  53.632  1.00  0.00     0.001 A 
HETATM   27  C13 UNL     1      28.606  -0.002  53.793  1.00  0.00     0.010 A 
ENDBRANCH  20  22
ENDBRANCH   7  20
TORSDOF 6
ENDMDL
MODEL 7
REMARK VINA RESULT:      -7.6      2.709      3.761
REMARK  6 active torsions:
REMARK  status: ('A' for Active; 'I' for Inactive)
REMARK    1  A    between atoms: O1_1  and  C1_2 
REMARK    2  A    between atoms: C1_2  and  C2_3 
REMARK    3  A    between atoms: C2_3  and  N1_4 
REMARK    4  A    between atoms: C2_3  and  C14_19 
REMARK    5  A    between atoms: C6_10  and  C7_11 
REMARK    6  A    between atoms: C7_11  and  C8_13 
ROOT
HETATM    1  N1  UNL     1      24.863   1.306  52.079  1.00  0.00    -0.367 N 
HETATM    2  C3  UNL     1      24.059   2.369  52.195  1.00  0.00     0.114 A 
HETATM    3  N2  UNL     1      24.291   3.625  53.240  1.00  0.00    -0.259 NA
HETATM    4  C4  UNL     1      23.270   3.988  52.705  1.00  0.00     0.094 A 
HETATM    5  P1  UNL     1      22.255   4.323  52.158  1.00  0.00    -0.111 P 
HETATM    6  C5  UNL     1      21.804   4.461  51.907  1.00  0.00     0.124 A 
HETATM    7  C6  UNL     1      22.600   2.910  51.450  1.00  0.00     0.086 A 
HETATM    8  H5  UNL     1      24.164   0.503  51.981  1.00  0.00     0.161 HD
HETATM    9  H6  UNL     1      20.256   5.031  51.110  1.00  0.00     0.048 HD
ENDROOT
BRANCH   1  10
HETATM   10  C2  UNL     1      26.210   1.864  52.154  1.00  0.00     0.139 C 
BRANCH  10  11
HETATM   11  C1  UNL     1      26.509   2.320  50.748  1.00  0.00     0.194 C 
BRANCH  11  12
HETATM   12  O1  UNL     1      27.108   3.603  50.786  1.00  0.00    -0.399 OA
HETATM   13  H1  UNL     1      26.452   4.271  50.492  1.00  0.00     0.209 HD
ENDBRANCH  11  12
ENDBRANCH  10  11
BRANCH  10  14
HETATM   14  C14 UNL     1      27.185   0.888  52.650  1.00  0.00    -0.034 A 
HETATM   15  C15 UNL     1      28.287   1.491  53.268  1.00  0.00     0.009 A 
HETATM   16  C16 UNL     1      29.318   0.732  53.805  1.00  0.00     0.001 A 
HETATM   17  C17 UNL     1      29.241  -0.637  53.718  1.00  0.00     0.000 A 
HETATM   18  C18 UNL     1      28.162  -1.258  53.113  1.00  0.00     0.001 A 
HETATM   19  C19 UNL     1      27.139  -0.510  52.581  1.00  0.00     0.009 A 
ENDBRANCH  10  14
ENDBRANCH   1  10
BRANCH   7  20
HETATM   20  C7  UNL     1      22.566   1.567  50.437  1.00  0.00     0.224 C 
HETATM   21  F1  UNL     1      21.621   0.758  50.999  1.00  0.00    -0.243 F 
BRANCH  20  22
HETATM   22  C8  UNL     1      22.066   2.125  49.189  1.00  0.00    -0.023 A 
HETATM   23  C9  UNL     1      22.684   2.612  48.088  1.00  0.00     0.010 A 
HETATM   24  C10 UNL     1      22.041   3.126  46.988  1.00  0.00     0.001 A 
HETATM   25  C11 UNL     1      20.663   3.157  46.983  1.00  0.00     0.000 A 
HETATM   26  C12 UNL     1      19.973   2.673  48.075  1.00  0.00     0.001 A 
HETATM   27  C13 UNL     1      20.649   2.155  49.185  1.00  0.00     0.010 A 
ENDBRANCH  20  22
ENDBRANCH   7  20
TORSDOF 6
ENDMDL
MODEL 8
REMARK VINA RESULT:      -7.5      2.326      4.319
REMARK  6 active torsions:
REMARK  status: ('A' for Active; 'I' for Inactive)
REMARK    1  A    between atoms: O1_1  and  C1_2 
REMARK    2  A    between atoms: C1_2  and  C2_3 
REMARK    3  A    between atoms: C2_3  and  N1_4 
REMARK    4  A    between atoms: C2_3  and  C14_19 
REMARK    5  A    between atoms: C6_10  and  C7_11 
REMARK    6  A    between atoms: C7_11  and  C8_13 
ROOT
HETATM    1  N1  UNL     1      25.908   1.669  53.019  1.00  0.00    -0.367 N 
HETATM    2  C3  UNL     1      25.768   2.411  51.914  1.00  0.00     0.114 A 
HETATM    3  N2  UNL     1      26.766   2.356  50.602  1.00  0.00    -0.259 NA
HETATM    4  C4  UNL     1      25.981   3.197  50.229  1.00  0.00     0.094 A 
HETATM    5  P1  UNL     1      25.188   4.029  49.885  1.00  0.00    -0.111 P 
HETATM    6  C5  UNL     1      24.828   4.399  49.743  1.00  0.00     0.124 A 
HETATM    7  C6  UNL     1      24.664   3.615  51.357  1.00  0.00     0.086 A 
HETATM    8  H5  UNL     1      25.689   2.374  53.793  1.00  0.00     0.161 HD
HETATM    9  H6  UNL     1      23.651   5.674  49.158  1.00  0.00     0.048 HD
ENDROOT
BRANCH   1  10
HETATM   10  C2  UNL     1      26.275   0.347  52.521  1.00  0.00     0.139 C 
BRANCH  10  11
HETATM   11  C1  UNL     1      25.191  -0.566  53.039  1.00  0.00     0.194 C 
BRANCH  11  12
HETATM   12  O1  UNL     1      25.025  -0.357  54.430  1.00  0.00    -0.399 OA
HETATM   13  H1  UNL     1      25.852   0.023  54.797  1.00  0.00     0.209 HD
ENDBRANCH  11  12
ENDBRANCH  10  11
BRANCH  10  14
HETATM   14  C14 UNL     1      27.613  -0.057  52.962  1.00  0.00    -0.034 A 
HETATM   15  C15 UNL     1      27.824  -1.437  52.854  1.00  0.00     0.009 A 
HETATM   16  C16 UNL     1      29.032  -2.013  53.221  1.00  0.00     0.001 A 
HETATM   17  C17 UNL     1      30.030  -1.200  53.700  1.00  0.00     0.000 A 
HETATM   18  C18 UNL     1      29.847   0.167  53.817  1.00  0.00     0.001 A 
HETATM   19  C19 UNL     1      28.653   0.742  53.454  1.00  0.00     0.009 A 
ENDBRANCH  10  14
ENDBRANCH   1  10
BRANCH   7  20
HETATM   20  C7  UNL     1      23.748   3.490  52.764  1.00  0.00     0.224 C 
HETATM   21  F1  UNL     1      23.584   4.784  53.163  1.00  0.00    -0.243 F 
BRANCH  20  22
HETATM   22  C8  UNL     1      22.487   2.955  52.274  1.00  0.00    -0.023 A 
HETATM   23  C9  UNL     1      22.104   1.718  51.881  1.00  0.00     0.010 A 
HETATM   24  C10 UNL     1      20.851   1.392  51.420  1.00  0.00     0.001 A 
HETATM   25  C11 UNL     1      19.897   2.382  51.344  1.00  0.00     0.000 A 
HETATM   26  C12 UNL     1      20.223   3.665  51.732  1.00  0.00     0.001 A 
HETATM   27  C13 UNL     1      21.505   3.974  52.199  1.00  0.00     0.010 A 
ENDBRANCH  20  22
ENDBRANCH   7  20
TORSDOF 6
ENDMDL
MODEL 9
REMARK VINA RESULT:      -7.3      2.307      6.622
REMARK  6 active torsions:
REMARK  status: ('A' for Active; 'I' for Inactive)
REMARK    1  A    between atoms: O1_1  and  C1_2 
REMARK    2  A    between atoms: C1_2  and  C2_3 
REMARK    3  A    between atoms: C2_3  and  N1_4 
REMARK    4  A    between atoms: C2_3  and  C14_19 
REMARK    5  A    between atoms: C6_10  and  C7_11 
REMARK    6  A    between atoms: C7_11  and  C8_13 
ROOT
HETATM    1  N1  UNL     1      25.349   3.977  51.371  1.00  0.00    -0.367 N 
HETATM    2  C3  UNL     1      24.544   3.039  51.883  1.00  0.00     0.114 A 
HETATM    3  N2  UNL     1      22.898   3.032  51.762  1.00  0.00    -0.259 NA
HETATM    4  C4  UNL     1      23.062   2.016  52.396  1.00  0.00     0.094 A 
HETATM    5  P1  UNL     1      23.254   1.012  53.025  1.00  0.00    -0.111 P 
HETATM    6  C5  UNL     1      23.353   0.567  53.305  1.00  0.00     0.124 A 
HETATM    7  C6  UNL     1      24.748   1.585  52.790  1.00  0.00     0.086 A 
HETATM    8  H5  UNL     1      26.065   4.112  52.154  1.00  0.00     0.161 HD
HETATM    9  H6  UNL     1      23.578  -0.977  54.265  1.00  0.00     0.048 HD
ENDROOT
BRANCH   1  10
HETATM   10  C2  UNL     1      24.781   4.259  50.056  1.00  0.00     0.139 C 
BRANCH  10  11
HETATM   11  C1  UNL     1      24.681   2.910  49.389  1.00  0.00     0.194 C 
BRANCH  11  12
HETATM   12  O1  UNL     1      23.474   2.836  48.653  1.00  0.00    -0.399 OA
HETATM   13  H1  UNL     1      23.104   3.740  48.556  1.00  0.00     0.209 HD
ENDBRANCH  11  12
ENDBRANCH  10  11
BRANCH  10  14
HETATM   14  C14 UNL     1      25.599   5.207  49.294  1.00  0.00    -0.034 A 
HETATM   15  C15 UNL     1      26.919   4.770  49.129  1.00  0.00     0.009 A 
HETATM   16  C16 UNL     1      27.848   5.530  48.432  1.00  0.00     0.001 A 
HETATM   17  C17 UNL     1      27.449   6.732  47.901  1.00  0.00     0.000 A 
HETATM   18  C18 UNL     1      26.150   7.187  48.049  1.00  0.00     0.001 A 
HETATM   19  C19 UNL     1      25.227   6.437  48.738  1.00  0.00     0.009 A 
ENDBRANCH  10  14
ENDBRANCH   1  10
BRANCH   7  20
HETATM   20  C7  UNL     1      26.422   1.752  52.765  1.00  0.00     0.224 C 
HETATM   21  F1  UNL     1      26.712   2.314  53.974  1.00  0.00    -0.243 F 
BRANCH  20  22
HETATM   22  C8  UNL     1      26.878   0.370  52.735  1.00  0.00    -0.023 A 
HETATM   23  C9  UNL     1      26.318  -0.771  52.273  1.00  0.00     0.010 A 
HETATM   24  C10 UNL     1      26.897  -2.016  52.346  1.00  0.00     0.001 A 
HETATM   25  C11 UNL     1      28.140  -2.134  52.928  1.00  0.00     0.000 A 
HETATM   26  C12 UNL     1      28.765  -1.006  53.418  1.00  0.00     0.001 A 
HETATM   27  C13 UNL     1      28.158   0.251  53.333  1.00  0.00     0.010 A 
ENDBRANCH  20  22
ENDBRANCH   7  20
TORSDOF 6
ENDMDL
