MODEL 1
REMARK VINA RESULT:      -8.3      0.000      0.000
REMARK  5 active torsions:
REMARK  status: ('A' for Active; 'I' for Inactive)
REMARK    1  A    between atoms: C4_5  and  N1_6 
REMARK    2  A    between atoms: N1_6  and  C5_7 
REMARK    3  A    between atoms: C8_12  and  N4_13 
REMARK    4  A    between atoms: N4_13  and  C9_14 
REMARK    5  A    between atoms: C9_14  and  C10_15 
ROOT
HETATM    1  C5  UNL     1      25.870   2.579  51.282  1.00  0.00     0.157 A 
HETATM    2  N2  UNL     1      26.891   3.035  50.547  1.00  0.00    -0.222 NA
HETATM    3  C6  UNL     1      26.780   3.903  49.542  1.00  0.00     0.235 A 
HETATM    4  N3  UNL     1      25.559   4.362  49.233  1.00  0.00    -0.252 NA
HETATM    5  C7  UNL     1      24.483   3.950  49.925  1.00  0.00     0.151 A 
HETATM    6  C8  UNL     1      24.593   3.039  50.982  1.00  0.00     0.092 A 
ENDROOT
BRANCH   6   7
HETATM    7  N4  UNL     1      23.373   2.681  51.668  1.00  0.00    -0.380 N 
HETATM    8  H6  UNL     1      23.002   3.191  52.494  1.00  0.00     0.160 HD
BRANCH   7   9
HETATM    9  C9  UNL     1      22.586   1.573  51.231  1.00  0.00     0.185 C 
BRANCH   9  10
HETATM   10  C10 UNL     1      22.183   0.619  52.272  1.00  0.00     0.071 A 
HETATM   11  C11 UNL     1      20.980   0.138  52.541  1.00  0.00     0.058 A 
HETATM   12  C12 UNL     1      20.427  -0.787  53.510  1.00  0.00     0.036 A 
HETATM   13 CL1  UNL     1      18.719  -1.019  53.357  1.00  0.00    -0.084 Cl
HETATM   14  C13 UNL     1      21.120  -1.417  54.439  1.00  0.00     0.026 A 
HETATM   15  C14 UNL     1      22.554  -1.333  54.702  1.00  0.00     0.026 A 
HETATM   16  C15 UNL     1      23.494  -0.613  54.080  1.00  0.00     0.142 A 
HETATM   17  O1  UNL     1      23.338   0.266  52.990  1.00  0.00    -0.325 OA
ENDBRANCH   9  10
ENDBRANCH   7   9
ENDBRANCH   6   7
BRANCH   1  18
HETATM   18  N1  UNL     1      25.995   1.660  52.344  1.00  0.00    -0.339 N 
HETATM   19  H3  UNL     1      25.177   1.454  52.951  1.00  0.00     0.167 HD
BRANCH  18  20
HETATM   20  C4  UNL     1      27.118   0.904  52.773  1.00  0.00     0.033 A 
HETATM   21  C3  UNL     1      28.267   1.458  53.337  1.00  0.00     0.032 A 
HETATM   22  C2  UNL     1      29.344   0.717  53.746  1.00  0.00     0.044 A 
HETATM   23  C1  UNL     1      29.338  -0.653  53.614  1.00  0.00     0.116 A 
HETATM   24  F1  UNL     1      30.430  -1.315  54.037  1.00  0.00    -0.206 F 
HETATM   25  C17 UNL     1      28.232  -1.246  53.065  1.00  0.00     0.044 A 
HETATM   26  C16 UNL     1      27.183  -0.458  52.673  1.00  0.00     0.032 A 
ENDBRANCH  18  20
ENDBRANCH   1  18
TORSDOF 5
ENDMDL
MODEL 2
REMARK VINA RESULT:      -8.2      3.565      6.838
REMARK  5 active torsions:
REMARK  status: ('A' for Active; 'I' for Inactive)
REMARK    1  A    between atoms: C4_5  and  N1_6 
REMARK    2  A    between atoms: N1_6  and  C5_7 
REMARK    3  A    between atoms: C8_12  and  N4_13 
REMARK    4  A    between atoms: N4_13  and  C9_14 
REMARK    5  A    between atoms: C9_14  and  C10_15 
ROOT
HETATM    1  C5  UNL     1      26.748   0.366  53.482  1.00  0.00     0.157 A 
HETATM    2  N2  UNL     1      27.559  -0.283  54.326  1.00  0.00    -0.222 NA
HETATM    3  C6  UNL     1      28.667   0.226  54.862  1.00  0.00     0.235 A 
HETATM    4  N3  UNL     1      29.008   1.482  54.541  1.00  0.00    -0.252 NA
HETATM    5  C7  UNL     1      28.243   2.199  53.699  1.00  0.00     0.151 A 
HETATM    6  C8  UNL     1      27.078   1.670  53.132  1.00  0.00     0.092 A 
ENDROOT
BRANCH   6   7
HETATM    7  N4  UNL     1      26.325   2.536  52.255  1.00  0.00    -0.380 N 
HETATM    8  H6  UNL     1      25.612   3.217  52.586  1.00  0.00     0.160 HD
BRANCH   7   9
HETATM    9  C9  UNL     1      26.527   2.502  50.843  1.00  0.00     0.185 C 
BRANCH   9  10
HETATM   10  C10 UNL     1      26.343   3.774  50.135  1.00  0.00     0.071 A 
HETATM   11  C11 UNL     1      25.294   4.583  50.131  1.00  0.00     0.058 A 
HETATM   12  C12 UNL     1      24.961   5.844  49.500  1.00  0.00     0.036 A 
HETATM   13 CL1  UNL     1      23.379   6.424  49.892  1.00  0.00    -0.084 Cl
HETATM   14  C13 UNL     1      25.756   6.524  48.695  1.00  0.00     0.026 A 
HETATM   15  C14 UNL     1      27.108   6.178  48.266  1.00  0.00     0.026 A 
HETATM   16  C15 UNL     1      27.854   5.112  48.575  1.00  0.00     0.142 A 
HETATM   17  O1  UNL     1      27.520   4.029  49.411  1.00  0.00    -0.325 OA
ENDBRANCH   9  10
ENDBRANCH   7   9
ENDBRANCH   6   7
BRANCH   1  18
HETATM   18  N1  UNL     1      25.576  -0.181  52.918  1.00  0.00    -0.339 N 
HETATM   19  H3  UNL     1      25.636  -0.751  52.052  1.00  0.00     0.167 HD
BRANCH  18  20
HETATM   20  C4  UNL     1      24.226  -0.091  53.347  1.00  0.00     0.033 A 
HETATM   21  C3  UNL     1      23.278   0.761  52.781  1.00  0.00     0.032 A 
HETATM   22  C2  UNL     1      21.978   0.838  53.204  1.00  0.00     0.044 A 
HETATM   23  C1  UNL     1      21.536   0.051  54.242  1.00  0.00     0.116 A 
HETATM   24  F1  UNL     1      20.246   0.180  54.605  1.00  0.00    -0.206 F 
HETATM   25  C17 UNL     1      22.428  -0.803  54.834  1.00  0.00     0.044 A 
HETATM   26  C16 UNL     1      23.716  -0.841  54.370  1.00  0.00     0.032 A 
ENDBRANCH  18  20
ENDBRANCH   1  18
TORSDOF 5
ENDMDL
MODEL 3
REMARK VINA RESULT:      -8.2      2.906      5.031
REMARK  5 active torsions:
REMARK  status: ('A' for Active; 'I' for Inactive)
REMARK    1  A    between atoms: C4_5  and  N1_6 
REMARK    2  A    between atoms: N1_6  and  C5_7 
REMARK    3  A    between atoms: C8_12  and  N4_13 
REMARK    4  A    between atoms: N4_13  and  C9_14 
REMARK    5  A    between atoms: C9_14  and  C10_15 
ROOT
HETATM    1  C5  UNL     1      27.289   1.550  52.683  1.00  0.00     0.157 A 
HETATM    2  N2  UNL     1      28.324   2.343  52.989  1.00  0.00    -0.222 NA
HETATM    3  C6  UNL     1      29.127   2.178  54.038  1.00  0.00     0.235 A 
HETATM    4  N3  UNL     1      28.893   1.145  54.860  1.00  0.00    -0.252 NA
HETATM    5  C7  UNL     1      27.873   0.305  54.620  1.00  0.00     0.151 A 
HETATM    6  C8  UNL     1      27.025   0.471  53.519  1.00  0.00     0.092 A 
ENDROOT
BRANCH   6   7
HETATM    7  N4  UNL     1      25.972  -0.503  53.349  1.00  0.00    -0.380 N 
HETATM    8  H6  UNL     1      25.914  -1.159  52.544  1.00  0.00     0.160 HD
BRANCH   7   9
HETATM    9  C9  UNL     1      24.922  -0.620  54.309  1.00  0.00     0.185 C 
BRANCH   9  10
HETATM   10  C10 UNL     1      23.556  -0.482  53.790  1.00  0.00     0.071 A 
HETATM   11  C11 UNL     1      23.145   0.073  52.661  1.00  0.00     0.058 A 
HETATM   12  C12 UNL     1      21.864   0.286  52.018  1.00  0.00     0.036 A 
HETATM   13 CL1  UNL     1      21.974   1.103  50.497  1.00  0.00    -0.084 Cl
HETATM   14  C13 UNL     1      20.697  -0.090  52.506  1.00  0.00     0.026 A 
HETATM   15  C14 UNL     1      20.432  -0.783  53.764  1.00  0.00     0.026 A 
HETATM   16  C15 UNL     1      21.285  -1.195  54.707  1.00  0.00     0.142 A 
HETATM   17  O1  UNL     1      22.687  -1.064  54.729  1.00  0.00    -0.325 OA
ENDBRANCH   9  10
ENDBRANCH   7   9
ENDBRANCH   6   7
BRANCH   1  18
HETATM   18  N1  UNL     1      26.443   1.731  51.569  1.00  0.00    -0.339 N 
HETATM   19  H3  UNL     1      26.556   1.129  50.730  1.00  0.00     0.167 HD
BRANCH  18  20
HETATM   20  C4  UNL     1      25.384   2.653  51.365  1.00  0.00     0.033 A 
HETATM   21  C3  UNL     1      24.570   3.152  52.383  1.00  0.00     0.032 A 
HETATM   22  C2  UNL     1      23.550   4.041  52.172  1.00  0.00     0.044 A 
HETATM   23  C1  UNL     1      23.276   4.498  50.903  1.00  0.00     0.116 A 
HETATM   24  F1  UNL     1      22.260   5.370  50.771  1.00  0.00    -0.206 F 
HETATM   25  C17 UNL     1      24.046   4.038  49.868  1.00  0.00     0.044 A 
HETATM   26  C16 UNL     1      25.053   3.150  50.135  1.00  0.00     0.032 A 
ENDBRANCH  18  20
ENDBRANCH   1  18
TORSDOF 5
ENDMDL
MODEL 4
REMARK VINA RESULT:      -8.2      2.917      5.545
REMARK  5 active torsions:
REMARK  status: ('A' for Active; 'I' for Inactive)
REMARK    1  A    between atoms: C4_5  and  N1_6 
REMARK    2  A    between atoms: N1_6  and  C5_7 
REMARK    3  A    between atoms: C8_12  and  N4_13 
REMARK    4  A    between atoms: N4_13  and  C9_14 
REMARK    5  A    between atoms: C9_14  and  C10_15 
ROOT
HETATM    1  C5  UNL     1      22.730   2.888  51.080  1.00  0.00     0.157 A 
HETATM    2  N2  UNL     1      21.732   2.845  50.188  1.00  0.00    -0.222 NA
HETATM    3  C6  UNL     1      21.850   3.151  48.897  1.00  0.00     0.235 A 
HETATM    4  N3  UNL     1      23.052   3.534  48.443  1.00  0.00    -0.252 NA
HETATM    5  C7  UNL     1      24.103   3.602  49.278  1.00  0.00     0.151 A 
HETATM    6  C8  UNL     1      23.987   3.282  50.635  1.00  0.00     0.092 A 
ENDROOT
BRANCH   6   7
HETATM    7  N4  UNL     1      25.186   3.373  51.435  1.00  0.00    -0.380 N 
HETATM    8  H6  UNL     1      25.228   3.840  52.364  1.00  0.00     0.160 HD
BRANCH   7   9
HETATM    9  C9  UNL     1      26.415   2.810  50.978  1.00  0.00     0.185 C 
BRANCH   9  10
HETATM   10  C10 UNL     1      27.047   1.832  51.872  1.00  0.00     0.071 A 
HETATM   11  C11 UNL     1      26.847   0.526  51.954  1.00  0.00     0.058 A 
HETATM   12  C12 UNL     1      27.375  -0.554  52.762  1.00  0.00     0.036 A 
HETATM   13 CL1  UNL     1      26.696  -2.101  52.392  1.00  0.00    -0.084 Cl
HETATM   14  C13 UNL     1      28.290  -0.420  53.704  1.00  0.00     0.026 A 
HETATM   15  C14 UNL     1      28.960   0.803  54.138  1.00  0.00     0.026 A 
HETATM   16  C15 UNL     1      28.813   2.057  53.699  1.00  0.00     0.142 A 
HETATM   17  O1  UNL     1      27.957   2.529  52.685  1.00  0.00    -0.325 OA
ENDBRANCH   9  10
ENDBRANCH   7   9
ENDBRANCH   6   7
BRANCH   1  18
HETATM   18  N1  UNL     1      22.597   2.562  52.446  1.00  0.00    -0.339 N 
HETATM   19  H3  UNL     1      22.588   3.317  53.160  1.00  0.00     0.167 HD
BRANCH  18  20
HETATM   20  C4  UNL     1      22.463   1.298  53.076  1.00  0.00     0.033 A 
HETATM   21  C3  UNL     1      23.515   0.403  53.271  1.00  0.00     0.032 A 
HETATM   22  C2  UNL     1      23.372  -0.815  53.881  1.00  0.00     0.044 A 
HETATM   23  C1  UNL     1      22.142  -1.222  54.344  1.00  0.00     0.116 A 
HETATM   24  F1  UNL     1      22.077  -2.430  54.933  1.00  0.00    -0.206 F 
HETATM   25  C17 UNL     1      21.076  -0.379  54.177  1.00  0.00     0.044 A 
HETATM   26  C16 UNL     1      21.274   0.828  53.560  1.00  0.00     0.032 A 
ENDBRANCH  18  20
ENDBRANCH   1  18
TORSDOF 5
ENDMDL
MODEL 5
REMARK VINA RESULT:      -8.1      1.442      2.030
REMARK  5 active torsions:
REMARK  status: ('A' for Active; 'I' for Inactive)
REMARK    1  A    between atoms: C4_5  and  N1_6 
REMARK    2  A    between atoms: N1_6  and  C5_7 
REMARK    3  A    between atoms: C8_12  and  N4_13 
REMARK    4  A    between atoms: N4_13  and  C9_14 
REMARK    5  A    between atoms: C9_14  and  C10_15 
ROOT
HETATM    1  C5  UNL     1      25.976   2.908  51.464  1.00  0.00     0.157 A 
HETATM    2  N2  UNL     1      26.906   3.236  50.559  1.00  0.00    -0.222 NA
HETATM    3  C6  UNL     1      26.667   3.881  49.419  1.00  0.00     0.235 A 
HETATM    4  N3  UNL     1      25.404   4.235  49.143  1.00  0.00    -0.252 NA
HETATM    5  C7  UNL     1      24.413   3.941  50.002  1.00  0.00     0.151 A 
HETATM    6  C8  UNL     1      24.657   3.263  51.202  1.00  0.00     0.092 A 
ENDROOT
BRANCH   6   7
HETATM    7  N4  UNL     1      23.520   3.016  52.058  1.00  0.00    -0.380 N 
HETATM    8  H6  UNL     1      23.356   3.509  52.959  1.00  0.00     0.160 HD
BRANCH   7   9
HETATM    9  C9  UNL     1      22.530   2.053  51.699  1.00  0.00     0.185 C 
BRANCH   9  10
HETATM   10  C10 UNL     1      22.343   0.941  52.639  1.00  0.00     0.071 A 
HETATM   11  C11 UNL     1      23.235   0.348  53.419  1.00  0.00     0.058 A 
HETATM   12  C12 UNL     1      23.213  -0.737  54.379  1.00  0.00     0.036 A 
HETATM   13 CL1  UNL     1      24.752  -1.063  55.098  1.00  0.00    -0.084 Cl
HETATM   14  C13 UNL     1      22.145  -1.439  54.707  1.00  0.00     0.026 A 
HETATM   15  C14 UNL     1      20.784  -1.294  54.198  1.00  0.00     0.026 A 
HETATM   16  C15 UNL     1      20.298  -0.436  53.295  1.00  0.00     0.142 A 
HETATM   17  O1  UNL     1      20.989   0.569  52.589  1.00  0.00    -0.325 OA
ENDBRANCH   9  10
ENDBRANCH   7   9
ENDBRANCH   6   7
BRANCH   1  18
HETATM   18  N1  UNL     1      26.237   2.225  52.670  1.00  0.00    -0.339 N 
HETATM   19  H3  UNL     1      25.648   2.406  53.506  1.00  0.00     0.167 HD
BRANCH  18  20
HETATM   20  C4  UNL     1      27.231   1.260  52.978  1.00  0.00     0.033 A 
HETATM   21  C3  UNL     1      27.097  -0.108  52.740  1.00  0.00     0.032 A 
HETATM   22  C2  UNL     1      28.065  -1.029  53.043  1.00  0.00     0.044 A 
HETATM   23  C1  UNL     1      29.251  -0.630  53.614  1.00  0.00     0.116 A 
HETATM   24  F1  UNL     1      30.156  -1.590  53.884  1.00  0.00    -0.206 F 
HETATM   25  C17 UNL     1      29.432   0.703  53.868  1.00  0.00     0.044 A 
HETATM   26  C16 UNL     1      28.433   1.582  53.545  1.00  0.00     0.032 A 
ENDBRANCH  18  20
ENDBRANCH   1  18
TORSDOF 5
ENDMDL
MODEL 6
REMARK VINA RESULT:      -7.7      3.846      6.841
REMARK  5 active torsions:
REMARK  status: ('A' for Active; 'I' for Inactive)
REMARK    1  A    between atoms: C4_5  and  N1_6 
REMARK    2  A    between atoms: N1_6  and  C5_7 
REMARK    3  A    between atoms: C8_12  and  N4_13 
REMARK    4  A    between atoms: N4_13  and  C9_14 
REMARK    5  A    between atoms: C9_14  and  C10_15 
ROOT
HETATM    1  C5  UNL     1      24.962   2.452  52.579  1.00  0.00     0.157 A 
HETATM    2  N2  UNL     1      24.031   1.641  53.099  1.00  0.00    -0.222 NA
HETATM    3  C6  UNL     1      22.761   1.587  52.703  1.00  0.00     0.235 A 
HETATM    4  N3  UNL     1      22.370   2.399  51.711  1.00  0.00    -0.252 NA
HETATM    5  C7  UNL     1      23.246   3.242  51.139  1.00  0.00     0.151 A 
HETATM    6  C8  UNL     1      24.583   3.304  51.549  1.00  0.00     0.092 A 
ENDROOT
BRANCH   6   7
HETATM    7  N4  UNL     1      25.440   4.234  50.851  1.00  0.00    -0.380 N 
HETATM    8  H6  UNL     1      25.681   5.180  51.209  1.00  0.00     0.160 HD
BRANCH   7   9
HETATM    9  C9  UNL     1      26.020   3.891  49.593  1.00  0.00     0.185 C 
BRANCH   9  10
HETATM   10  C10 UNL     1      26.779   4.954  48.922  1.00  0.00     0.071 A 
HETATM   11  C11 UNL     1      28.065   4.990  48.610  1.00  0.00     0.058 A 
HETATM   12  C12 UNL     1      28.948   5.941  47.965  1.00  0.00     0.036 A 
HETATM   13 CL1  UNL     1      30.587   5.401  47.845  1.00  0.00    -0.084 Cl
HETATM   14  C13 UNL     1      28.583   7.119  47.497  1.00  0.00     0.026 A 
HETATM   15  C14 UNL     1      27.252   7.721  47.518  1.00  0.00     0.026 A 
HETATM   16  C15 UNL     1      26.106   7.238  48.007  1.00  0.00     0.142 A 
HETATM   17  O1  UNL     1      25.883   5.999  48.640  1.00  0.00    -0.325 OA
ENDBRANCH   9  10
ENDBRANCH   7   9
ENDBRANCH   6   7
BRANCH   1  18
HETATM   18  N1  UNL     1      26.306   2.504  53.004  1.00  0.00    -0.339 N 
HETATM   19  H3  UNL     1      26.740   3.418  53.239  1.00  0.00     0.167 HD
BRANCH  18  20
HETATM   20  C4  UNL     1      27.249   1.459  53.185  1.00  0.00     0.033 A 
HETATM   21  C3  UNL     1      27.026   0.129  52.830  1.00  0.00     0.032 A 
HETATM   22  C2  UNL     1      27.945  -0.870  53.010  1.00  0.00     0.044 A 
HETATM   23  C1  UNL     1      29.172  -0.594  53.569  1.00  0.00     0.116 A 
HETATM   24  F1  UNL     1      30.026  -1.624  53.716  1.00  0.00    -0.206 F 
HETATM   25  C17 UNL     1      29.442   0.698  53.936  1.00  0.00     0.044 A 
HETATM   26  C16 UNL     1      28.487   1.658  53.733  1.00  0.00     0.032 A 
ENDBRANCH  18  20
ENDBRANCH   1  18
TORSDOF 5
ENDMDL
MODEL 7
REMARK VINA RESULT:      -7.4      3.432      5.924
REMARK  5 active torsions:
REMARK  status: ('A' for Active; 'I' for Inactive)
REMARK    1  A    between atoms: C4_5  and  N1_6 
REMARK    2  A    between atoms: N1_6  and  C5_7 
REMARK    3  A    between atoms: C8_12  and  N4_13 
REMARK    4  A    between atoms: N4_13  and  C9_14 
REMARK    5  A    between atoms: C9_14  and  C10_15 
ROOT
HETATM    1  C5  UNL     1      22.960   3.110  50.611  1.00  0.00     0.157 A 
HETATM    2  N2  UNL     1      21.969   3.696  49.928  1.00  0.00    -0.222 NA
HETATM    3  C6  UNL     1      21.852   5.008  49.729  1.00  0.00     0.235 A 
HETATM    4  N3  UNL     1      22.790   5.814  50.246  1.00  0.00    -0.252 NA
HETATM    5  C7  UNL     1      23.817   5.300  50.945  1.00  0.00     0.151 A 
HETATM    6  C8  UNL     1      23.946   3.923  51.158  1.00  0.00     0.092 A 
ENDROOT
BRANCH   6   7
HETATM    7  N4  UNL     1      25.099   3.482  51.908  1.00  0.00    -0.380 N 
HETATM    8  H6  UNL     1      25.198   3.594  52.937  1.00  0.00     0.160 HD
BRANCH   7   9
HETATM    9  C9  UNL     1      26.197   2.846  51.255  1.00  0.00     0.185 C 
BRANCH   9  10
HETATM   10  C10 UNL     1      26.951   1.876  52.058  1.00  0.00     0.071 A 
HETATM   11  C11 UNL     1      27.898   2.094  52.957  1.00  0.00     0.058 A 
HETATM   12  C12 UNL     1      28.723   1.267  53.815  1.00  0.00     0.036 A 
HETATM   13 CL1  UNL     1      29.821   2.165  54.804  1.00  0.00    -0.084 Cl
HETATM   14  C13 UNL     1      28.675  -0.050  53.872  1.00  0.00     0.026 A 
HETATM   15  C14 UNL     1      27.814  -0.952  53.112  1.00  0.00     0.026 A 
HETATM   16  C15 UNL     1      26.885  -0.671  52.192  1.00  0.00     0.142 A 
HETATM   17  O1  UNL     1      26.492   0.594  51.712  1.00  0.00    -0.325 OA
ENDBRANCH   9  10
ENDBRANCH   7   9
ENDBRANCH   6   7
BRANCH   1  18
HETATM   18  N1  UNL     1      23.077   1.720  50.818  1.00  0.00    -0.339 N 
HETATM   19  H3  UNL     1      23.613   1.139  50.143  1.00  0.00     0.167 HD
BRANCH  18  20
HETATM   20  C4  UNL     1      22.560   0.902  51.856  1.00  0.00     0.033 A 
HETATM   21  C3  UNL     1      23.319   0.406  52.916  1.00  0.00     0.032 A 
HETATM   22  C2  UNL     1      22.807  -0.383  53.912  1.00  0.00     0.044 A 
HETATM   23  C1  UNL     1      21.476  -0.731  53.910  1.00  0.00     0.116 A 
HETATM   24  F1  UNL     1      21.043  -1.508  54.920  1.00  0.00    -0.206 F 
HETATM   25  C17 UNL     1      20.687  -0.270  52.890  1.00  0.00     0.044 A 
HETATM   26  C16 UNL     1      21.250   0.516  51.920  1.00  0.00     0.032 A 
ENDBRANCH  18  20
ENDBRANCH   1  18
TORSDOF 5
ENDMDL
MODEL 8
REMARK VINA RESULT:      -7.4      3.070      5.715
REMARK  5 active torsions:
REMARK  status: ('A' for Active; 'I' for Inactive)
REMARK    1  A    between atoms: C4_5  and  N1_6 
REMARK    2  A    between atoms: N1_6  and  C5_7 
REMARK    3  A    between atoms: C8_12  and  N4_13 
REMARK    4  A    between atoms: N4_13  and  C9_14 
REMARK    5  A    between atoms: C9_14  and  C10_15 
ROOT
HETATM    1  C5  UNL     1      23.054   1.012  52.528  1.00  0.00     0.157 A 
HETATM    2  N2  UNL     1      22.473   0.434  53.587  1.00  0.00    -0.222 NA
HETATM    3  C6  UNL     1      21.219  -0.015  53.617  1.00  0.00     0.235 A 
HETATM    4  N3  UNL     1      20.472   0.115  52.512  1.00  0.00    -0.252 NA
HETATM    5  C7  UNL     1      20.985   0.685  51.409  1.00  0.00     0.151 A 
HETATM    6  C8  UNL     1      22.301   1.159  51.369  1.00  0.00     0.092 A 
ENDROOT
BRANCH   6   7
HETATM    7  N4  UNL     1      22.752   1.737  50.125  1.00  0.00    -0.380 N 
HETATM    8  H6  UNL     1      23.170   1.186  49.348  1.00  0.00     0.160 HD
BRANCH   7   9
HETATM    9  C9  UNL     1      22.644   3.141  49.888  1.00  0.00     0.185 C 
BRANCH   9  10
HETATM   10  C10 UNL     1      23.893   3.836  49.555  1.00  0.00     0.071 A 
HETATM   11  C11 UNL     1      24.062   5.040  49.029  1.00  0.00     0.058 A 
HETATM   12  C12 UNL     1      25.199   5.852  48.647  1.00  0.00     0.036 A 
HETATM   13 CL1  UNL     1      24.767   7.392  47.988  1.00  0.00    -0.084 Cl
HETATM   14  C13 UNL     1      26.464   5.495  48.771  1.00  0.00     0.026 A 
HETATM   15  C14 UNL     1      26.995   4.243  49.303  1.00  0.00     0.026 A 
HETATM   16  C15 UNL     1      26.346   3.176  49.781  1.00  0.00     0.142 A 
HETATM   17  O1  UNL     1      24.956   2.984  49.897  1.00  0.00    -0.325 OA
ENDBRANCH   9  10
ENDBRANCH   7   9
ENDBRANCH   6   7
BRANCH   1  18
HETATM   18  N1  UNL     1      24.382   1.485  52.504  1.00  0.00    -0.339 N 
HETATM   19  H3  UNL     1      24.590   2.428  52.118  1.00  0.00     0.167 HD
BRANCH  18  20
HETATM   20  C4  UNL     1      25.582   0.867  52.943  1.00  0.00     0.033 A 
HETATM   21  C3  UNL     1      26.352   0.005  52.162  1.00  0.00     0.032 A 
HETATM   22  C2  UNL     1      27.509  -0.585  52.598  1.00  0.00     0.044 A 
HETATM   23  C1  UNL     1      27.978  -0.344  53.868  1.00  0.00     0.116 A 
HETATM   24  F1  UNL     1      29.120  -0.958  54.228  1.00  0.00    -0.206 F 
HETATM   25  C17 UNL     1      27.258   0.496  54.676  1.00  0.00     0.044 A 
HETATM   26  C16 UNL     1      26.109   1.060  54.190  1.00  0.00     0.032 A 
ENDBRANCH  18  20
ENDBRANCH   1  18
TORSDOF 5
ENDMDL
MODEL 9
REMARK VINA RESULT:      -7.4      3.513      5.932
REMARK  5 active torsions:
REMARK  status: ('A' for Active; 'I' for Inactive)
REMARK    1  A    between atoms: C4_5  and  N1_6 
REMARK    2  A    between atoms: N1_6  and  C5_7 
REMARK    3  A    between atoms: C8_12  and  N4_13 
REMARK    4  A    between atoms: N4_13  and  C9_14 
REMARK    5  A    between atoms: C9_14  and  C10_15 
ROOT
HETATM    1  C5  UNL     1      22.925   4.376  51.339  1.00  0.00     0.157 A 
HETATM    2  N2  UNL     1      21.811   4.838  50.757  1.00  0.00    -0.222 NA
HETATM    3  C6  UNL     1      20.656   4.178  50.690  1.00  0.00     0.235 A 
HETATM    4  N3  UNL     1      20.590   2.958  51.242  1.00  0.00    -0.252 NA
HETATM    5  C7  UNL     1      21.666   2.426  51.844  1.00  0.00     0.151 A 
HETATM    6  C8  UNL     1      22.883   3.114  51.919  1.00  0.00     0.092 A 
ENDROOT
BRANCH   6   7
HETATM    7  N4  UNL     1      23.968   2.453  52.606  1.00  0.00    -0.380 N 
HETATM    8  H6  UNL     1      24.482   2.866  53.410  1.00  0.00     0.160 HD
BRANCH   7   9
HETATM    9  C9  UNL     1      24.405   1.155  52.205  1.00  0.00     0.185 C 
BRANCH   9  10
HETATM   10  C10 UNL     1      25.774   0.788  52.590  1.00  0.00     0.071 A 
HETATM   11  C11 UNL     1      26.345  -0.406  52.603  1.00  0.00     0.058 A 
HETATM   12  C12 UNL     1      27.652  -0.926  52.949  1.00  0.00     0.036 A 
HETATM   13 CL1  UNL     1      27.796  -2.639  52.757  1.00  0.00    -0.084 Cl
HETATM   14  C13 UNL     1      28.669  -0.200  53.375  1.00  0.00     0.026 A 
HETATM   15  C14 UNL     1      28.714   1.244  53.590  1.00  0.00     0.026 A 
HETATM   16  C15 UNL     1      27.758   2.162  53.415  1.00  0.00     0.142 A 
HETATM   17  O1  UNL     1      26.436   1.968  52.969  1.00  0.00    -0.325 OA
ENDBRANCH   9  10
ENDBRANCH   7   9
ENDBRANCH   6   7
BRANCH   1  18
HETATM   18  N1  UNL     1      24.145   5.081  51.407  1.00  0.00    -0.339 N 
HETATM   19  H3  UNL     1      24.354   5.677  52.232  1.00  0.00     0.167 HD
BRANCH  18  20
HETATM   20  C4  UNL     1      25.224   5.133  50.487  1.00  0.00     0.033 A 
HETATM   21  C3  UNL     1      25.989   4.029  50.111  1.00  0.00     0.032 A 
HETATM   22  C2  UNL     1      27.029   4.092  49.222  1.00  0.00     0.044 A 
HETATM   23  C1  UNL     1      27.375   5.290  48.640  1.00  0.00     0.116 A 
HETATM   24  F1  UNL     1      28.407   5.277  47.776  1.00  0.00    -0.206 F 
HETATM   25  C17 UNL     1      26.655   6.405  48.976  1.00  0.00     0.044 A 
HETATM   26  C16 UNL     1      25.625   6.286  49.870  1.00  0.00     0.032 A 
ENDBRANCH  18  20
ENDBRANCH   1  18
TORSDOF 5
ENDMDL
