MODEL 1
REMARK VINA RESULT:      -8.8      0.000      0.000
REMARK  5 active torsions:
REMARK  status: ('A' for Active; 'I' for Inactive)
REMARK    1  A    between atoms: O1_2  and  C2_3 
REMARK    2  A    between atoms: C10_13  and  C11_14 
REMARK    3  A    between atoms: C14_17  and  C15_18 
REMARK    4  A    between atoms: C15_18  and  C16_19 
REMARK    5  A    between atoms: C16_19  and  O4_21 
ROOT
HETATM    1  C2  UNL     1      18.933   0.107  51.560  1.00  0.00     0.070 A 
HETATM    2  C3  UNL     1      19.999   0.661  50.896  1.00  0.00     0.038 A 
HETATM    3  C4  UNL     1      21.224   0.519  51.503  1.00  0.00     0.017 A 
HETATM    4  C5  UNL     1      21.435  -0.142  52.726  1.00  0.00     0.007 A 
HETATM    5  C6  UNL     1      20.376  -0.694  53.390  1.00  0.00     0.049 A 
HETATM    6  C7  UNL     1      19.163  -0.533  52.752  1.00  0.00     0.067 A 
HETATM    7  N1  UNL     1      20.787  -1.314  54.598  1.00  0.00    -0.322 N 
HETATM    8  C8  UNL     1      22.190  -1.112  54.652  1.00  0.00     0.257 A 
HETATM    9  O2  UNL     1      22.618  -1.640  55.703  1.00  0.00    -0.267 OA
HETATM   10  C9  UNL     1      22.682  -0.374  53.497  1.00  0.00     0.046 A 
HETATM   11  C10 UNL     1      23.886  -0.042  53.249  1.00  0.00     0.047 C 
HETATM   12  H7  UNL     1      20.045  -1.780  55.203  1.00  0.00     0.169 HD
ENDROOT
BRANCH  11  13
HETATM   13  C11 UNL     1      25.271   0.035  53.510  1.00  0.00     0.031 C 
HETATM   14  C12 UNL     1      26.254   0.635  52.859  1.00  0.00    -0.051 C 
HETATM   15  C13 UNL     1      26.287   1.428  51.644  1.00  0.00     0.046 C 
HETATM   16  C14 UNL     1      27.555   0.464  53.501  1.00  0.00     0.044 C 
HETATM   17  C17 UNL     1      27.101   0.278  54.958  1.00  0.00     0.129 C 
HETATM   18  N2  UNL     1      25.927  -0.578  54.660  1.00  0.00    -0.389 N 
HETATM   19  H18 UNL     1      25.709  -1.428  55.221  1.00  0.00     0.159 HD
BRANCH  16  20
HETATM   20  C15 UNL     1      28.079  -0.897  53.079  1.00  0.00     0.120 C 
BRANCH  20  21
HETATM   21  C16 UNL     1      29.506  -0.945  53.474  1.00  0.00     0.140 C 
HETATM   22  O3  UNL     1      30.091  -1.989  53.834  1.00  0.00    -0.650 OA
BRANCH  21  23
HETATM   23  O4  UNL     1      30.275   0.231  53.457  1.00  0.00    -0.776 OA
HETATM   24  H15 UNL     1      31.219   0.166  53.841  1.00  0.00     0.167 HD
ENDBRANCH  21  23
ENDBRANCH  20  21
ENDBRANCH  16  20
ENDBRANCH  11  13
BRANCH   1  25
HETATM   25  O1  UNL     1      17.650   0.190  51.040  1.00  0.00    -0.356 OA
HETATM   26  C1  UNL     1      16.493   0.197  51.818  1.00  0.00     0.210 C 
ENDBRANCH   1  25
TORSDOF 5
ENDMDL
MODEL 2
REMARK VINA RESULT:      -8.6      1.504      1.910
REMARK  5 active torsions:
REMARK  status: ('A' for Active; 'I' for Inactive)
REMARK    1  A    between atoms: O1_2  and  C2_3 
REMARK    2  A    between atoms: C10_13  and  C11_14 
REMARK    3  A    between atoms: C14_17  and  C15_18 
REMARK    4  A    between atoms: C15_18  and  C16_19 
REMARK    5  A    between atoms: C16_19  and  O4_21 
ROOT
HETATM    1  C2  UNL     1      18.536  -0.501  52.420  1.00  0.00     0.070 A 
HETATM    2  C3  UNL     1      19.213   0.279  51.516  1.00  0.00     0.038 A 
HETATM    3  C4  UNL     1      20.558   0.440  51.752  1.00  0.00     0.017 A 
HETATM    4  C5  UNL     1      21.252  -0.132  52.832  1.00  0.00     0.007 A 
HETATM    5  C6  UNL     1      20.581  -0.909  53.734  1.00  0.00     0.049 A 
HETATM    6  C7  UNL     1      19.235  -1.049  53.467  1.00  0.00     0.067 A 
HETATM    7  N1  UNL     1      21.448  -1.394  54.746  1.00  0.00    -0.322 N 
HETATM    8  C8  UNL     1      22.723  -0.865  54.419  1.00  0.00     0.257 A 
HETATM    9  O2  UNL     1      23.540  -1.260  55.281  1.00  0.00    -0.267 OA
HETATM   10  C9  UNL     1      22.684  -0.050  53.213  1.00  0.00     0.046 A 
HETATM   11  C10 UNL     1      23.658   0.554  52.658  1.00  0.00     0.047 C 
HETATM   12  H7  UNL     1      21.036  -2.013  55.508  1.00  0.00     0.169 HD
ENDROOT
BRANCH  11  13
HETATM   13  C11 UNL     1      25.004   0.960  52.528  1.00  0.00     0.031 C 
HETATM   14  C12 UNL     1      26.136   0.279  52.600  1.00  0.00    -0.051 C 
HETATM   15  C13 UNL     1      26.425  -1.123  52.838  1.00  0.00     0.046 C 
HETATM   16  C14 UNL     1      27.319   1.110  52.390  1.00  0.00     0.044 C 
HETATM   17  C17 UNL     1      26.707   2.213  51.511  1.00  0.00     0.129 C 
HETATM   18  N2  UNL     1      25.428   2.328  52.254  1.00  0.00    -0.389 N 
HETATM   19  H18 UNL     1      25.008   3.253  52.483  1.00  0.00     0.159 HD
BRANCH  16  20
HETATM   20  C15 UNL     1      27.620   1.789  53.714  1.00  0.00     0.120 C 
BRANCH  20  21
HETATM   21  C16 UNL     1      29.042   1.504  54.024  1.00  0.00     0.140 C 
HETATM   22  O3  UNL     1      29.614   0.434  53.726  1.00  0.00    -0.650 OA
BRANCH  21  23
HETATM   23  O4  UNL     1      29.818   2.467  54.689  1.00  0.00    -0.776 OA
HETATM   24  H15 UNL     1      30.792   2.553  54.395  1.00  0.00     0.167 HD
ENDBRANCH  21  23
ENDBRANCH  20  21
ENDBRANCH  16  20
ENDBRANCH  11  13
BRANCH   1  25
HETATM   25  O1  UNL     1      17.176  -0.732  52.282  1.00  0.00    -0.356 OA
HETATM   26  C1  UNL     1      16.537  -1.899  52.700  1.00  0.00     0.210 C 
ENDBRANCH   1  25
TORSDOF 5
ENDMDL
MODEL 3
REMARK VINA RESULT:      -7.9      2.314      2.680
REMARK  5 active torsions:
REMARK  status: ('A' for Active; 'I' for Inactive)
REMARK    1  A    between atoms: O1_2  and  C2_3 
REMARK    2  A    between atoms: C10_13  and  C11_14 
REMARK    3  A    between atoms: C14_17  and  C15_18 
REMARK    4  A    between atoms: C15_18  and  C16_19 
REMARK    5  A    between atoms: C16_19  and  O4_21 
ROOT
HETATM    1  C2  UNL     1      18.612   1.509  51.589  1.00  0.00     0.070 A 
HETATM    2  C3  UNL     1      19.189   0.278  51.781  1.00  0.00     0.038 A 
HETATM    3  C4  UNL     1      20.528   0.286  52.092  1.00  0.00     0.017 A 
HETATM    4  C5  UNL     1      21.310   1.447  52.220  1.00  0.00     0.007 A 
HETATM    5  C6  UNL     1      20.739   2.673  52.030  1.00  0.00     0.049 A 
HETATM    6  C7  UNL     1      19.395   2.629  51.720  1.00  0.00     0.067 A 
HETATM    7  N1  UNL     1      21.682   3.718  52.202  1.00  0.00    -0.322 N 
HETATM    8  C8  UNL     1      22.900   3.060  52.515  1.00  0.00     0.257 A 
HETATM    9  O2  UNL     1      23.781   3.934  52.681  1.00  0.00    -0.267 OA
HETATM   10  C9  UNL     1      22.748   1.613  52.547  1.00  0.00     0.046 A 
HETATM   11  C10 UNL     1      23.647   0.748  52.804  1.00  0.00     0.047 C 
HETATM   12  H7  UNL     1      21.352   4.722  52.077  1.00  0.00     0.169 HD
ENDROOT
BRANCH  11  13
HETATM   13  C11 UNL     1      24.951   0.317  53.130  1.00  0.00     0.031 C 
HETATM   14  C12 UNL     1      26.123   0.569  52.570  1.00  0.00    -0.051 C 
HETATM   15  C13 UNL     1      26.512   1.367  51.423  1.00  0.00     0.046 C 
HETATM   16  C14 UNL     1      27.236  -0.086  53.253  1.00  0.00     0.044 C 
HETATM   17  C17 UNL     1      26.649  -0.182  54.670  1.00  0.00     0.129 C 
HETATM   18  N2  UNL     1      25.273  -0.552  54.257  1.00  0.00    -0.389 N 
HETATM   19  H18 UNL     1      24.736  -1.301  54.741  1.00  0.00     0.159 HD
BRANCH  16  20
HETATM   20  C15 UNL     1      27.281  -1.517  52.751  1.00  0.00     0.120 C 
BRANCH  20  21
HETATM   21  C16 UNL     1      28.595  -2.070  53.157  1.00  0.00     0.140 C 
HETATM   22  O3  UNL     1      29.634  -1.383  53.255  1.00  0.00    -0.650 OA
BRANCH  21  23
HETATM   23  O4  UNL     1      28.716  -3.437  53.454  1.00  0.00    -0.776 OA
HETATM   24  H15 UNL     1      28.968  -3.676  54.415  1.00  0.00     0.167 HD
ENDBRANCH  21  23
ENDBRANCH  20  21
ENDBRANCH  16  20
ENDBRANCH  11  13
BRANCH   1  25
HETATM   25  O1  UNL     1      17.267   1.622  51.271  1.00  0.00    -0.356 OA
HETATM   26  C1  UNL     1      16.578   2.833  51.213  1.00  0.00     0.210 C 
ENDBRANCH   1  25
TORSDOF 5
ENDMDL
MODEL 4
REMARK VINA RESULT:      -7.7      1.417      8.076
REMARK  5 active torsions:
REMARK  status: ('A' for Active; 'I' for Inactive)
REMARK    1  A    between atoms: O1_2  and  C2_3 
REMARK    2  A    between atoms: C10_13  and  C11_14 
REMARK    3  A    between atoms: C14_17  and  C15_18 
REMARK    4  A    between atoms: C15_18  and  C16_19 
REMARK    5  A    between atoms: C16_19  and  O4_21 
ROOT
HETATM    1  C2  UNL     1      27.753   0.445  53.383  1.00  0.00     0.070 A 
HETATM    2  C3  UNL     1      27.089   1.010  52.322  1.00  0.00     0.038 A 
HETATM    3  C4  UNL     1      25.726   0.838  52.308  1.00  0.00     0.017 A 
HETATM    4  C5  UNL     1      25.000   0.139  53.288  1.00  0.00     0.007 A 
HETATM    5  C6  UNL     1      25.658  -0.425  54.345  1.00  0.00     0.049 A 
HETATM    6  C7  UNL     1      27.024  -0.233  54.328  1.00  0.00     0.067 A 
HETATM    7  N1  UNL     1      24.760  -1.084  55.223  1.00  0.00    -0.322 N 
HETATM    8  C8  UNL     1      23.478  -0.896  54.643  1.00  0.00     0.257 A 
HETATM    9  O2  UNL     1      22.634  -1.458  55.376  1.00  0.00    -0.267 OA
HETATM   10  C9  UNL     1      23.545  -0.127  53.408  1.00  0.00     0.046 A 
HETATM   11  C10 UNL     1      22.574   0.214  52.658  1.00  0.00     0.047 C 
HETATM   12  H7  UNL     1      25.159  -1.563  56.086  1.00  0.00     0.169 HD
ENDROOT
BRANCH  11  13
HETATM   13  C11 UNL     1      21.217   0.276  52.272  1.00  0.00     0.031 C 
HETATM   14  C12 UNL     1      20.650   0.434  51.087  1.00  0.00    -0.051 C 
HETATM   15  C13 UNL     1      21.193   0.604  49.752  1.00  0.00     0.046 C 
HETATM   16  C14 UNL     1      19.190   0.428  51.145  1.00  0.00     0.044 C 
HETATM   17  C17 UNL     1      18.986  -0.437  52.400  1.00  0.00     0.129 C 
HETATM   18  N2  UNL     1      20.092   0.153  53.192  1.00  0.00    -0.389 N 
HETATM   19  H18 UNL     1      19.979   0.397  54.198  1.00  0.00     0.159 HD
BRANCH  16  20
HETATM   20  C15 UNL     1      18.760   1.823  51.560  1.00  0.00     0.120 C 
BRANCH  20  21
HETATM   21  C16 UNL     1      17.978   2.380  50.430  1.00  0.00     0.140 C 
HETATM   22  O3  UNL     1      17.415   3.495  50.461  1.00  0.00    -0.650 OA
BRANCH  21  23
HETATM   23  O4  UNL     1      17.840   1.640  49.244  1.00  0.00    -0.776 OA
HETATM   24  H15 UNL     1      18.503   1.847  48.495  1.00  0.00     0.167 HD
ENDBRANCH  21  23
ENDBRANCH  20  21
ENDBRANCH  16  20
ENDBRANCH  11  13
BRANCH   1  25
HETATM   25  O1  UNL     1      29.131   0.555  53.500  1.00  0.00    -0.356 OA
HETATM   26  C1  UNL     1      29.991  -0.534  53.634  1.00  0.00     0.210 C 
ENDBRANCH   1  25
TORSDOF 5
ENDMDL
MODEL 5
REMARK VINA RESULT:      -7.7      4.385      7.849
REMARK  5 active torsions:
REMARK  status: ('A' for Active; 'I' for Inactive)
REMARK    1  A    between atoms: O1_2  and  C2_3 
REMARK    2  A    between atoms: C10_13  and  C11_14 
REMARK    3  A    between atoms: C14_17  and  C15_18 
REMARK    4  A    between atoms: C15_18  and  C16_19 
REMARK    5  A    between atoms: C16_19  and  O4_21 
ROOT
HETATM    1  C2  UNL     1      27.215   6.134  48.602  1.00  0.00     0.070 A 
HETATM    2  C3  UNL     1      27.540   4.802  48.653  1.00  0.00     0.038 A 
HETATM    3  C4  UNL     1      26.726   4.015  49.433  1.00  0.00     0.017 A 
HETATM    4  C5  UNL     1      25.616   4.487  50.155  1.00  0.00     0.007 A 
HETATM    5  C6  UNL     1      25.290   5.813  50.106  1.00  0.00     0.049 A 
HETATM    6  C7  UNL     1      26.127   6.573  49.315  1.00  0.00     0.067 A 
HETATM    7  N1  UNL     1      24.145   6.095  50.895  1.00  0.00    -0.322 N 
HETATM    8  C8  UNL     1      23.768   4.845  51.450  1.00  0.00     0.257 A 
HETATM    9  O2  UNL     1      22.756   5.027  52.163  1.00  0.00    -0.267 OA
HETATM   10  C9  UNL     1      24.655   3.770  51.028  1.00  0.00     0.046 A 
HETATM   11  C10 UNL     1      24.580   2.538  51.346  1.00  0.00     0.047 C 
HETATM   12  H7  UNL     1      23.795   7.100  50.934  1.00  0.00     0.169 HD
ENDROOT
BRANCH  11  13
HETATM   13  C11 UNL     1      24.025   1.419  52.002  1.00  0.00     0.031 C 
HETATM   14  C12 UNL     1      22.903   0.748  51.793  1.00  0.00    -0.051 C 
HETATM   15  C13 UNL     1      21.830   0.904  50.829  1.00  0.00     0.046 C 
HETATM   16  C14 UNL     1      22.724  -0.370  52.716  1.00  0.00     0.044 C 
HETATM   17  C17 UNL     1      24.196  -0.682  53.031  1.00  0.00     0.129 C 
HETATM   18  N2  UNL     1      24.650   0.727  53.123  1.00  0.00    -0.389 N 
HETATM   19  H18 UNL     1      25.287   1.051  53.881  1.00  0.00     0.159 HD
BRANCH  16  20
HETATM   20  C15 UNL     1      22.163   0.206  54.003  1.00  0.00     0.120 C 
BRANCH  20  21
HETATM   21  C16 UNL     1      21.827  -0.945  54.873  1.00  0.00     0.140 C 
HETATM   22  O3  UNL     1      22.614  -1.431  55.714  1.00  0.00    -0.650 OA
BRANCH  21  23
HETATM   23  O4  UNL     1      20.563  -1.550  54.774  1.00  0.00    -0.776 OA
HETATM   24  H15 UNL     1      20.520  -2.440  54.276  1.00  0.00     0.167 HD
ENDBRANCH  21  23
ENDBRANCH  20  21
ENDBRANCH  16  20
ENDBRANCH  11  13
BRANCH   1  25
HETATM   25  O1  UNL     1      27.968   7.022  47.847  1.00  0.00    -0.356 OA
HETATM   26  C1  UNL     1      28.322   8.302  48.272  1.00  0.00     0.210 C 
ENDBRANCH   1  25
TORSDOF 5
ENDMDL
MODEL 6
REMARK VINA RESULT:      -7.6      2.540      3.240
REMARK  5 active torsions:
REMARK  status: ('A' for Active; 'I' for Inactive)
REMARK    1  A    between atoms: O1_2  and  C2_3 
REMARK    2  A    between atoms: C10_13  and  C11_14 
REMARK    3  A    between atoms: C14_17  and  C15_18 
REMARK    4  A    between atoms: C15_18  and  C16_19 
REMARK    5  A    between atoms: C16_19  and  O4_21 
ROOT
HETATM    1  C2  UNL     1      18.436  -0.384  52.230  1.00  0.00     0.070 A 
HETATM    2  C3  UNL     1      19.367  -0.578  53.219  1.00  0.00     0.038 A 
HETATM    3  C4  UNL     1      20.635  -0.120  52.949  1.00  0.00     0.017 A 
HETATM    4  C5  UNL     1      21.015   0.515  51.754  1.00  0.00     0.007 A 
HETATM    5  C6  UNL     1      20.091   0.710  50.766  1.00  0.00     0.049 A 
HETATM    6  C7  UNL     1      18.830   0.239  51.071  1.00  0.00     0.067 A 
HETATM    7  N1  UNL     1      20.660   1.364  49.644  1.00  0.00    -0.322 N 
HETATM    8  C8  UNL     1      22.020   1.569  49.994  1.00  0.00     0.257 A 
HETATM    9  O2  UNL     1      22.583   2.148  49.037  1.00  0.00    -0.267 OA
HETATM   10  C9  UNL     1      22.327   1.058  51.322  1.00  0.00     0.046 A 
HETATM   11  C10 UNL     1      23.449   1.095  51.924  1.00  0.00     0.047 C 
HETATM   12  H7  UNL     1      20.034   1.569  48.809  1.00  0.00     0.169 HD
ENDROOT
BRANCH  11  13
HETATM   13  C11 UNL     1      24.819   1.406  52.055  1.00  0.00     0.031 C 
HETATM   14  C12 UNL     1      25.868   0.646  52.326  1.00  0.00    -0.051 C 
HETATM   15  C13 UNL     1      26.010  -0.773  52.592  1.00  0.00     0.046 C 
HETATM   16  C14 UNL     1      27.124   1.391  52.354  1.00  0.00     0.044 C 
HETATM   17  C17 UNL     1      26.766   2.537  51.394  1.00  0.00     0.129 C 
HETATM   18  N2  UNL     1      25.381   2.741  51.886  1.00  0.00    -0.389 N 
HETATM   19  H18 UNL     1      24.990   3.693  52.047  1.00  0.00     0.159 HD
BRANCH  16  20
HETATM   20  C15 UNL     1      27.218   2.044  53.721  1.00  0.00     0.120 C 
BRANCH  20  21
HETATM   21  C16 UNL     1      28.508   1.612  54.310  1.00  0.00     0.140 C 
HETATM   22  O3  UNL     1      28.706   0.473  54.783  1.00  0.00    -0.650 OA
BRANCH  21  23
HETATM   23  O4  UNL     1      29.589   2.508  54.358  1.00  0.00    -0.776 OA
HETATM   24  H15 UNL     1      30.498   2.145  54.070  1.00  0.00     0.167 HD
ENDBRANCH  21  23
ENDBRANCH  20  21
ENDBRANCH  16  20
ENDBRANCH  11  13
BRANCH   1  25
HETATM   25  O1  UNL     1      17.125  -0.806  52.393  1.00  0.00    -0.356 OA
HETATM   26  C1  UNL     1      16.023   0.047  52.367  1.00  0.00     0.210 C 
ENDBRANCH   1  25
TORSDOF 5
ENDMDL
MODEL 7
REMARK VINA RESULT:      -7.5      2.526      3.350
REMARK  5 active torsions:
REMARK  status: ('A' for Active; 'I' for Inactive)
REMARK    1  A    between atoms: O1_2  and  C2_3 
REMARK    2  A    between atoms: C10_13  and  C11_14 
REMARK    3  A    between atoms: C14_17  and  C15_18 
REMARK    4  A    between atoms: C15_18  and  C16_19 
REMARK    5  A    between atoms: C16_19  and  O4_21 
ROOT
HETATM    1  C2  UNL     1      17.228  -0.552  51.787  1.00  0.00     0.070 A 
HETATM    2  C3  UNL     1      17.924  -0.892  52.920  1.00  0.00     0.038 A 
HETATM    3  C4  UNL     1      19.257  -0.557  52.928  1.00  0.00     0.017 A 
HETATM    4  C5  UNL     1      19.921   0.093  51.873  1.00  0.00     0.007 A 
HETATM    5  C6  UNL     1      19.231   0.433  50.744  1.00  0.00     0.049 A 
HETATM    6  C7  UNL     1      17.897   0.082  50.771  1.00  0.00     0.067 A 
HETATM    7  N1  UNL     1      20.068   1.079  49.799  1.00  0.00    -0.322 N 
HETATM    8  C8  UNL     1      21.346   1.123  50.414  1.00  0.00     0.257 A 
HETATM    9  O2  UNL     1      22.137   1.685  49.624  1.00  0.00    -0.267 OA
HETATM   10  C9  UNL     1      21.337   0.516  51.737  1.00  0.00     0.046 A 
HETATM   11  C10 UNL     1      22.318   0.406  52.542  1.00  0.00     0.047 C 
HETATM   12  H7  UNL     1      19.639   1.390  48.876  1.00  0.00     0.169 HD
ENDROOT
BRANCH  11  13
HETATM   13  C11 UNL     1      23.660   0.564  52.952  1.00  0.00     0.031 C 
HETATM   14  C12 UNL     1      24.383   1.647  53.187  1.00  0.00    -0.051 C 
HETATM   15  C13 UNL     1      24.082   3.064  53.112  1.00  0.00     0.046 C 
HETATM   16  C14 UNL     1      25.748   1.344  53.610  1.00  0.00     0.044 C 
HETATM   17  C17 UNL     1      25.519  -0.034  54.252  1.00  0.00     0.129 C 
HETATM   18  N2  UNL     1      24.572  -0.541  53.230  1.00  0.00    -0.389 N 
HETATM   19  H18 UNL     1      24.637  -1.509  52.851  1.00  0.00     0.159 HD
BRANCH  16  20
HETATM   20  C15 UNL     1      26.546   1.059  52.351  1.00  0.00     0.120 C 
BRANCH  20  21
HETATM   21  C16 UNL     1      27.464   2.207  52.161  1.00  0.00     0.140 C 
HETATM   22  O3  UNL     1      28.513   2.371  52.820  1.00  0.00    -0.650 OA
BRANCH  21  23
HETATM   23  O4  UNL     1      27.170   3.185  51.196  1.00  0.00    -0.776 OA
HETATM   24  H15 UNL     1      26.744   2.858  50.328  1.00  0.00     0.167 HD
ENDBRANCH  21  23
ENDBRANCH  20  21
ENDBRANCH  16  20
ENDBRANCH  11  13
BRANCH   1  25
HETATM   25  O1  UNL     1      15.876  -0.842  51.669  1.00  0.00    -0.356 OA
HETATM   26  C1  UNL     1      15.313  -2.076  51.992  1.00  0.00     0.210 C 
ENDBRANCH   1  25
TORSDOF 5
ENDMDL
MODEL 8
REMARK VINA RESULT:      -7.5      2.236      8.380
REMARK  5 active torsions:
REMARK  status: ('A' for Active; 'I' for Inactive)
REMARK    1  A    between atoms: O1_2  and  C2_3 
REMARK    2  A    between atoms: C10_13  and  C11_14 
REMARK    3  A    between atoms: C14_17  and  C15_18 
REMARK    4  A    between atoms: C15_18  and  C16_19 
REMARK    5  A    between atoms: C16_19  and  O4_21 
ROOT
HETATM    1  C2  UNL     1      27.628  -0.620  53.486  1.00  0.00     0.070 A 
HETATM    2  C3  UNL     1      26.597  -1.428  53.077  1.00  0.00     0.038 A 
HETATM    3  C4  UNL     1      25.394  -0.801  52.856  1.00  0.00     0.017 A 
HETATM    4  C5  UNL     1      25.172   0.577  53.022  1.00  0.00     0.007 A 
HETATM    5  C6  UNL     1      26.196   1.385  53.430  1.00  0.00     0.049 A 
HETATM    6  C7  UNL     1      27.388   0.723  53.641  1.00  0.00     0.067 A 
HETATM    7  N1  UNL     1      25.779   2.736  53.538  1.00  0.00    -0.322 N 
HETATM    8  C8  UNL     1      24.409   2.726  53.168  1.00  0.00     0.257 A 
HETATM    9  O2  UNL     1      23.979   3.899  53.244  1.00  0.00    -0.267 OA
HETATM   10  C9  UNL     1      23.946   1.389  52.825  1.00  0.00     0.046 A 
HETATM   11  C10 UNL     1      22.777   1.051  52.448  1.00  0.00     0.047 C 
HETATM   12  H7  UNL     1      26.494   3.461  53.850  1.00  0.00     0.169 HD
ENDROOT
BRANCH  11  13
HETATM   13  C11 UNL     1      21.424   1.280  52.118  1.00  0.00     0.031 C 
HETATM   14  C12 UNL     1      20.314   0.661  52.489  1.00  0.00    -0.051 C 
HETATM   15  C13 UNL     1      20.066  -0.472  53.360  1.00  0.00     0.046 C 
HETATM   16  C14 UNL     1      19.109   1.247  51.907  1.00  0.00     0.044 C 
HETATM   17  C17 UNL     1      19.595   2.692  51.708  1.00  0.00     0.129 C 
HETATM   18  N2  UNL     1      20.959   2.347  51.238  1.00  0.00    -0.389 N 
HETATM   19  H18 UNL     1      21.401   2.831  50.428  1.00  0.00     0.159 HD
BRANCH  16  20
HETATM   20  C15 UNL     1      18.979   0.683  50.504  1.00  0.00     0.120 C 
BRANCH  20  21
HETATM   21  C16 UNL     1      17.667  -0.004  50.442  1.00  0.00     0.140 C 
HETATM   22  O3  UNL     1      17.098  -0.501  51.438  1.00  0.00    -0.650 OA
BRANCH  21  23
HETATM   23  O4  UNL     1      16.997  -0.121  49.213  1.00  0.00    -0.776 OA
HETATM   24  H15 UNL     1      16.202  -0.762  49.184  1.00  0.00     0.167 HD
ENDBRANCH  21  23
ENDBRANCH  20  21
ENDBRANCH  16  20
ENDBRANCH  11  13
BRANCH   1  25
HETATM   25  O1  UNL     1      28.887  -1.145  53.739  1.00  0.00    -0.356 OA
HETATM   26  C1  UNL     1      30.073  -0.423  53.609  1.00  0.00     0.210 C 
ENDBRANCH   1  25
TORSDOF 5
ENDMDL
MODEL 9
REMARK VINA RESULT:      -7.4      2.086      2.321
REMARK  5 active torsions:
REMARK  status: ('A' for Active; 'I' for Inactive)
REMARK    1  A    between atoms: O1_2  and  C2_3 
REMARK    2  A    between atoms: C10_13  and  C11_14 
REMARK    3  A    between atoms: C14_17  and  C15_18 
REMARK    4  A    between atoms: C15_18  and  C16_19 
REMARK    5  A    between atoms: C16_19  and  O4_21 
ROOT
HETATM    1  C2  UNL     1      19.485   2.932  52.123  1.00  0.00     0.070 A 
HETATM    2  C3  UNL     1      20.532   3.808  51.973  1.00  0.00     0.038 A 
HETATM    3  C4  UNL     1      21.781   3.301  52.244  1.00  0.00     0.017 A 
HETATM    4  C5  UNL     1      22.034   1.980  52.653  1.00  0.00     0.007 A 
HETATM    5  C6  UNL     1      20.994   1.106  52.803  1.00  0.00     0.049 A 
HETATM    6  C7  UNL     1      19.756   1.647  52.523  1.00  0.00     0.067 A 
HETATM    7  N1  UNL     1      21.447  -0.172  53.219  1.00  0.00    -0.322 N 
HETATM    8  C8  UNL     1      22.856  -0.044  53.321  1.00  0.00     0.257 A 
HETATM    9  O2  UNL     1      23.320  -1.148  53.687  1.00  0.00    -0.267 OA
HETATM   10  C9  UNL     1      23.310   1.296  52.977  1.00  0.00     0.046 A 
HETATM   11  C10 UNL     1      24.509   1.725  52.964  1.00  0.00     0.047 C 
HETATM   12  H7  UNL     1      20.723  -0.938  53.370  1.00  0.00     0.169 HD
ENDROOT
BRANCH  11  13
HETATM   13  C11 UNL     1      25.907   1.619  53.131  1.00  0.00     0.031 C 
HETATM   14  C12 UNL     1      26.809   0.873  52.513  1.00  0.00    -0.051 C 
HETATM   15  C13 UNL     1      26.710  -0.108  51.448  1.00  0.00     0.046 C 
HETATM   16  C14 UNL     1      28.167   1.093  53.003  1.00  0.00     0.044 C 
HETATM   17  C17 UNL     1      28.032   2.544  53.494  1.00  0.00     0.129 C 
HETATM   18  N2  UNL     1      26.684   2.393  54.092  1.00  0.00    -0.389 N 
HETATM   19  H18 UNL     1      26.446   2.797  55.023  1.00  0.00     0.159 HD
BRANCH  16  20
HETATM   20  C15 UNL     1      28.319   0.266  54.267  1.00  0.00     0.120 C 
BRANCH  20  21
HETATM   21  C16 UNL     1      29.146  -0.910  53.908  1.00  0.00     0.140 C 
HETATM   22  O3  UNL     1      30.395  -0.890  53.860  1.00  0.00    -0.650 OA
BRANCH  21  23
HETATM   23  O4  UNL     1      28.525  -2.131  53.596  1.00  0.00    -0.776 OA
HETATM   24  H15 UNL     1      29.058  -2.980  53.793  1.00  0.00     0.167 HD
ENDBRANCH  21  23
ENDBRANCH  20  21
ENDBRANCH  16  20
ENDBRANCH  11  13
BRANCH   1  25
HETATM   25  O1  UNL     1      18.181   3.335  51.878  1.00  0.00    -0.356 OA
HETATM   26  C1  UNL     1      17.635   3.473  50.602  1.00  0.00     0.210 C 
ENDBRANCH   1  25
TORSDOF 5
ENDMDL
