MODEL 1
REMARK VINA RESULT:      -9.2      0.000      0.000
REMARK  5 active torsions:
REMARK  status: ('A' for Active; 'I' for Inactive)
REMARK    1  A    between atoms: C7_9  and  C8_10 
REMARK    2  A    between atoms: C13_15  and  C14_16 
REMARK    3  A    between atoms: C14_16  and  C15_18 
REMARK    4  A    between atoms: C16_19  and  C17_20 
REMARK    5  A    between atoms: C17_20  and  N1_21 
ROOT
HETATM    1  C8  UNL     1      25.401   0.623  52.672  1.00  0.00    -0.017 A 
HETATM    2  C9  UNL     1      24.250   0.282  53.212  1.00  0.00    -0.015 A 
HETATM    3  C10 UNL     1      24.260  -0.656  54.317  1.00  0.00     0.009 A 
HETATM    4  C11 UNL     1      23.121  -0.985  54.889  1.00  0.00    -0.021 A 
HETATM    5  C12 UNL     1      21.816  -0.450  54.467  1.00  0.00     0.071 A 
HETATM    6  C13 UNL     1      21.916   0.485  53.343  1.00  0.00     0.008 A 
HETATM    7  C20 UNL     1      23.002   0.857  52.730  1.00  0.00     0.002 A 
HETATM    8  C21 UNL     1      23.077   1.796  51.624  1.00  0.00     0.123 A 
HETATM    9  N2  UNL     1      24.201   2.088  51.114  1.00  0.00    -0.296 NA
HETATM   10  C22 UNL     1      25.474   1.556  51.544  1.00  0.00     0.188 A 
ENDROOT
BRANCH   1  11
HETATM   11  C7  UNL     1      26.720   0.196  53.029  1.00  0.00    -0.020 A 
HETATM   12  C2  UNL     1      27.270  -1.029  52.752  1.00  0.00    -0.048 A 
HETATM   13  C1  UNL     1      26.492  -2.116  52.106  1.00  0.00     0.049 C 
HETATM   14  C3  UNL     1      28.593  -1.303  53.117  1.00  0.00     0.051 A 
HETATM   15  C4  UNL     1      29.396  -0.373  53.767  1.00  0.00     0.138 A 
HETATM   16  F1  UNL     1      30.674  -0.654  54.113  1.00  0.00    -0.204 F 
HETATM   17  C5  UNL     1      28.838   0.857  54.044  1.00  0.00     0.073 A 
HETATM   18 CL1  UNL     1      29.800   2.067  54.859  1.00  0.00    -0.081 Cl
HETATM   19  C6  UNL     1      27.530   1.120  53.678  1.00  0.00     0.039 A 
ENDBRANCH   1  11
BRANCH   6  20
HETATM   20  C14 UNL     1      20.637   1.007  52.924  1.00  0.00     0.179 C 
HETATM   21  O1  UNL     1      19.881   1.994  52.987  1.00  0.00    -0.288 OA
BRANCH  20  22
HETATM   22  C15 UNL     1      19.641   0.352  52.114  1.00  0.00     0.053 C 
HETATM   23  C16 UNL     1      18.668  -0.487  52.391  1.00  0.00    -0.004 C 
BRANCH  23  24
HETATM   24  C17 UNL     1      17.979  -1.244  53.460  1.00  0.00     0.143 C 
BRANCH  24  25
HETATM   25  N1  UNL     1      17.166  -2.260  52.861  1.00  0.00    -0.418 N 
HETATM   26  C18 UNL     1      17.249  -3.489  53.565  1.00  0.00     0.142 C 
HETATM   27  C19 UNL     1      15.882  -1.853  52.409  1.00  0.00     0.142 C 
ENDBRANCH  24  25
ENDBRANCH  23  24
ENDBRANCH  20  22
ENDBRANCH   6  20
TORSDOF 5
ENDMDL
MODEL 2
REMARK VINA RESULT:      -9.0      1.772      2.551
REMARK  5 active torsions:
REMARK  status: ('A' for Active; 'I' for Inactive)
REMARK    1  A    between atoms: C7_9  and  C8_10 
REMARK    2  A    between atoms: C13_15  and  C14_16 
REMARK    3  A    between atoms: C14_16  and  C15_18 
REMARK    4  A    between atoms: C16_19  and  C17_20 
REMARK    5  A    between atoms: C17_20  and  N1_21 
ROOT
HETATM    1  C8  UNL     1      25.465   0.558  52.760  1.00  0.00    -0.017 A 
HETATM    2  C9  UNL     1      24.325   0.206  53.317  1.00  0.00    -0.015 A 
HETATM    3  C10 UNL     1      24.362  -0.727  54.426  1.00  0.00     0.009 A 
HETATM    4  C11 UNL     1      23.235  -1.068  55.014  1.00  0.00    -0.021 A 
HETATM    5  C12 UNL     1      21.918  -0.551  54.607  1.00  0.00     0.071 A 
HETATM    6  C13 UNL     1      21.992   0.380  53.477  1.00  0.00     0.008 A 
HETATM    7  C20 UNL     1      23.064   0.763  52.849  1.00  0.00     0.002 A 
HETATM    8  C21 UNL     1      23.113   1.698  51.738  1.00  0.00     0.123 A 
HETATM    9  N2  UNL     1      24.226   2.002  51.212  1.00  0.00    -0.296 NA
HETATM   10  C22 UNL     1      25.511   1.487  51.627  1.00  0.00     0.188 A 
ENDROOT
BRANCH   1  11
HETATM   11  C7  UNL     1      26.793   0.150  53.101  1.00  0.00    -0.020 A 
HETATM   12  C2  UNL     1      27.361  -1.063  52.806  1.00  0.00    -0.048 A 
HETATM   13  C1  UNL     1      26.596  -2.156  52.155  1.00  0.00     0.049 C 
HETATM   14  C3  UNL     1      28.692  -1.320  53.157  1.00  0.00     0.051 A 
HETATM   15  C4  UNL     1      29.485  -0.383  53.810  1.00  0.00     0.138 A 
HETATM   16  F1  UNL     1      30.770  -0.647  54.143  1.00  0.00    -0.204 F 
HETATM   17  C5  UNL     1      28.909   0.834  54.106  1.00  0.00     0.073 A 
HETATM   18 CL1  UNL     1      29.858   2.051  54.926  1.00  0.00    -0.081 Cl
HETATM   19  C6  UNL     1      27.595   1.080  53.753  1.00  0.00     0.039 A 
ENDBRANCH   1  11
BRANCH   6  20
HETATM   20  C14 UNL     1      20.700   0.885  53.073  1.00  0.00     0.179 C 
HETATM   21  O1  UNL     1      19.938   1.867  53.132  1.00  0.00    -0.288 OA
BRANCH  20  22
HETATM   22  C15 UNL     1      19.694   0.207  52.295  1.00  0.00     0.053 C 
HETATM   23  C16 UNL     1      19.131   0.464  51.136  1.00  0.00    -0.004 C 
BRANCH  23  24
HETATM   24  C17 UNL     1      19.075   1.398  49.989  1.00  0.00     0.143 C 
BRANCH  24  25
HETATM   25  N1  UNL     1      20.384   1.932  49.760  1.00  0.00    -0.418 N 
HETATM   26  C18 UNL     1      21.123   1.148  48.838  1.00  0.00     0.142 C 
HETATM   27  C19 UNL     1      20.473   3.345  49.632  1.00  0.00     0.142 C 
ENDBRANCH  24  25
ENDBRANCH  23  24
ENDBRANCH  20  22
ENDBRANCH   6  20
TORSDOF 5
ENDMDL
MODEL 3
REMARK VINA RESULT:      -8.6      2.290      3.496
REMARK  5 active torsions:
REMARK  status: ('A' for Active; 'I' for Inactive)
REMARK    1  A    between atoms: C7_9  and  C8_10 
REMARK    2  A    between atoms: C13_15  and  C14_16 
REMARK    3  A    between atoms: C14_16  and  C15_18 
REMARK    4  A    between atoms: C16_19  and  C17_20 
REMARK    5  A    between atoms: C17_20  and  N1_21 
ROOT
HETATM    1  C8  UNL     1      25.322  -0.126  53.621  1.00  0.00    -0.017 A 
HETATM    2  C9  UNL     1      24.545   0.598  52.842  1.00  0.00    -0.015 A 
HETATM    3  C10 UNL     1      25.168   1.416  51.821  1.00  0.00     0.009 A 
HETATM    4  C11 UNL     1      24.405   2.123  51.014  1.00  0.00    -0.021 A 
HETATM    5  C12 UNL     1      22.935   2.134  51.087  1.00  0.00     0.071 A 
HETATM    6  C13 UNL     1      22.408   1.277  52.154  1.00  0.00     0.008 A 
HETATM    7  C20 UNL     1      23.097   0.552  52.986  1.00  0.00     0.002 A 
HETATM    8  C21 UNL     1      22.551  -0.300  54.029  1.00  0.00     0.123 A 
HETATM    9  N2  UNL     1      23.328  -0.969  54.774  1.00  0.00    -0.296 NA
HETATM   10  C22 UNL     1      24.770  -0.970  54.685  1.00  0.00     0.188 A 
ENDROOT
BRANCH   1  11
HETATM   11  C7  UNL     1      26.748  -0.239  53.609  1.00  0.00    -0.020 A 
HETATM   12  C2  UNL     1      27.470  -1.236  53.005  1.00  0.00    -0.048 A 
HETATM   13  C1  UNL     1      26.816  -2.399  52.352  1.00  0.00     0.049 C 
HETATM   14  C3  UNL     1      28.869  -1.204  53.027  1.00  0.00     0.051 A 
HETATM   15  C4  UNL     1      29.582  -0.185  53.650  1.00  0.00     0.138 A 
HETATM   16  F1  UNL     1      30.935  -0.168  53.662  1.00  0.00    -0.204 F 
HETATM   17  C5  UNL     1      28.852   0.815  54.256  1.00  0.00     0.073 A 
HETATM   18 CL1  UNL     1      29.694   2.121  55.055  1.00  0.00    -0.081 Cl
HETATM   19  C6  UNL     1      27.470   0.775  54.228  1.00  0.00     0.039 A 
ENDBRANCH   1  11
BRANCH   6  20
HETATM   20  C14 UNL     1      20.966   1.289  52.231  1.00  0.00     0.179 C 
HETATM   21  O1  UNL     1      19.992   1.792  52.820  1.00  0.00    -0.288 OA
BRANCH  20  22
HETATM   22  C15 UNL     1      20.036   0.522  51.441  1.00  0.00     0.053 C 
HETATM   23  C16 UNL     1      19.241   0.828  50.440  1.00  0.00    -0.004 C 
BRANCH  23  24
HETATM   24  C17 UNL     1      18.771   1.909  49.545  1.00  0.00     0.143 C 
BRANCH  24  25
HETATM   25  N1  UNL     1      19.874   2.770  49.236  1.00  0.00    -0.418 N 
HETATM   26  C18 UNL     1      20.228   2.707  47.865  1.00  0.00     0.142 C 
HETATM   27  C19 UNL     1      19.859   4.054  49.848  1.00  0.00     0.142 C 
ENDBRANCH  24  25
ENDBRANCH  23  24
ENDBRANCH  20  22
ENDBRANCH   6  20
TORSDOF 5
ENDMDL
MODEL 4
REMARK VINA RESULT:      -8.5      3.722      6.260
REMARK  5 active torsions:
REMARK  status: ('A' for Active; 'I' for Inactive)
REMARK    1  A    between atoms: C7_9  and  C8_10 
REMARK    2  A    between atoms: C13_15  and  C14_16 
REMARK    3  A    between atoms: C14_16  and  C15_18 
REMARK    4  A    between atoms: C16_19  and  C17_20 
REMARK    5  A    between atoms: C17_20  and  N1_21 
ROOT
HETATM    1  C8  UNL     1      25.931   1.135  52.563  1.00  0.00    -0.017 A 
HETATM    2  C9  UNL     1      25.659   1.949  51.564  1.00  0.00    -0.015 A 
HETATM    3  C10 UNL     1      26.743   2.350  50.690  1.00  0.00     0.009 A 
HETATM    4  C11 UNL     1      26.483   3.140  49.669  1.00  0.00    -0.021 A 
HETATM    5  C12 UNL     1      25.138   3.648  49.356  1.00  0.00     0.071 A 
HETATM    6  C13 UNL     1      24.117   3.186  50.301  1.00  0.00     0.008 A 
HETATM    7  C20 UNL     1      24.297   2.408  51.328  1.00  0.00     0.002 A 
HETATM    8  C21 UNL     1      23.265   1.953  52.245  1.00  0.00     0.123 A 
HETATM    9  N2  UNL     1      23.565   1.185  53.207  1.00  0.00    -0.296 NA
HETATM   10  C22 UNL     1      24.892   0.692  53.497  1.00  0.00     0.188 A 
ENDROOT
BRANCH   1  11
HETATM   11  C7  UNL     1      27.187   0.555  52.929  1.00  0.00    -0.020 A 
HETATM   12  C2  UNL     1      28.262   1.229  53.448  1.00  0.00    -0.048 A 
HETATM   13  C1  UNL     1      28.266   2.705  53.607  1.00  0.00     0.049 C 
HETATM   14  C3  UNL     1      29.421   0.531  53.810  1.00  0.00     0.051 A 
HETATM   15  C4  UNL     1      29.540  -0.846  53.661  1.00  0.00     0.138 A 
HETATM   16  F1  UNL     1      30.667  -1.506  54.016  1.00  0.00    -0.204 F 
HETATM   17  C5  UNL     1      28.456  -1.519  53.138  1.00  0.00     0.073 A 
HETATM   18 CL1  UNL     1      28.548  -3.251  52.928  1.00  0.00    -0.081 Cl
HETATM   19  C6  UNL     1      27.315  -0.822  52.785  1.00  0.00     0.039 A 
ENDBRANCH   1  11
BRANCH   6  20
HETATM   20  C14 UNL     1      22.797   3.687  49.999  1.00  0.00     0.179 C 
HETATM   21  O1  UNL     1      21.727   3.425  49.420  1.00  0.00    -0.288 OA
BRANCH  20  22
HETATM   22  C15 UNL     1      22.224   4.951  50.391  1.00  0.00     0.053 C 
HETATM   23  C16 UNL     1      22.741   6.066  50.855  1.00  0.00    -0.004 C 
BRANCH  23  24
HETATM   24  C17 UNL     1      23.988   6.759  51.250  1.00  0.00     0.143 C 
BRANCH  24  25
HETATM   25  N1  UNL     1      24.554   7.392  50.096  1.00  0.00    -0.418 N 
HETATM   26  C18 UNL     1      23.695   8.386  49.561  1.00  0.00     0.142 C 
HETATM   27  C19 UNL     1      25.941   7.697  50.163  1.00  0.00     0.142 C 
ENDBRANCH  24  25
ENDBRANCH  23  24
ENDBRANCH  20  22
ENDBRANCH   6  20
TORSDOF 5
ENDMDL
MODEL 5
REMARK VINA RESULT:      -8.5      1.359      2.403
REMARK  5 active torsions:
REMARK  status: ('A' for Active; 'I' for Inactive)
REMARK    1  A    between atoms: C7_9  and  C8_10 
REMARK    2  A    between atoms: C13_15  and  C14_16 
REMARK    3  A    between atoms: C14_16  and  C15_18 
REMARK    4  A    between atoms: C16_19  and  C17_20 
REMARK    5  A    between atoms: C17_20  and  N1_21 
ROOT
HETATM    1  C8  UNL     1      25.334   0.093  53.404  1.00  0.00    -0.017 A 
HETATM    2  C9  UNL     1      24.656   0.889  52.604  1.00  0.00    -0.015 A 
HETATM    3  C10 UNL     1      25.394   1.699  51.654  1.00  0.00     0.009 A 
HETATM    4  C11 UNL     1      24.730   2.478  50.826  1.00  0.00    -0.021 A 
HETATM    5  C12 UNL     1      23.262   2.580  50.806  1.00  0.00     0.071 A 
HETATM    6  C13 UNL     1      22.615   1.726  51.806  1.00  0.00     0.008 A 
HETATM    7  C20 UNL     1      23.201   0.932  52.653  1.00  0.00     0.002 A 
HETATM    8  C21 UNL     1      22.536   0.084  53.628  1.00  0.00     0.123 A 
HETATM    9  N2  UNL     1      23.220  -0.657  54.397  1.00  0.00    -0.296 NA
HETATM   10  C22 UNL     1      24.662  -0.748  54.400  1.00  0.00     0.188 A 
ENDROOT
BRANCH   1  11
HETATM   11  C7  UNL     1      26.748  -0.110  53.478  1.00  0.00    -0.020 A 
HETATM   12  C2  UNL     1      27.434  -1.178  52.961  1.00  0.00    -0.048 A 
HETATM   13  C1  UNL     1      26.742  -2.326  52.322  1.00  0.00     0.049 C 
HETATM   14  C3  UNL     1      28.829  -1.233  53.061  1.00  0.00     0.051 A 
HETATM   15  C4  UNL     1      29.573  -0.234  53.679  1.00  0.00     0.138 A 
HETATM   16  F1  UNL     1      30.921  -0.301  53.769  1.00  0.00    -0.204 F 
HETATM   17  C5  UNL     1      28.878   0.838  54.199  1.00  0.00     0.073 A 
HETATM   18 CL1  UNL     1      29.759   2.124  54.988  1.00  0.00    -0.081 Cl
HETATM   19  C6  UNL     1      27.500   0.884  54.094  1.00  0.00     0.039 A 
ENDBRANCH   1  11
BRANCH   6  20
HETATM   20  C14 UNL     1      21.174   1.827  51.791  1.00  0.00     0.179 C 
HETATM   21  O1  UNL     1      20.196   2.359  52.346  1.00  0.00    -0.288 OA
BRANCH  20  22
HETATM   22  C15 UNL     1      20.254   1.167  50.900  1.00  0.00     0.053 C 
HETATM   23  C16 UNL     1      19.246   0.346  51.096  1.00  0.00    -0.004 C 
BRANCH  23  24
HETATM   24  C17 UNL     1      18.445  -0.380  52.107  1.00  0.00     0.143 C 
BRANCH  24  25
HETATM   25  N1  UNL     1      17.054  -0.184  51.826  1.00  0.00    -0.418 N 
HETATM   26  C18 UNL     1      16.785  -0.215  50.434  1.00  0.00     0.142 C 
HETATM   27  C19 UNL     1      16.139  -0.855  52.683  1.00  0.00     0.142 C 
ENDBRANCH  24  25
ENDBRANCH  23  24
ENDBRANCH  20  22
ENDBRANCH   6  20
TORSDOF 5
ENDMDL
MODEL 6
REMARK VINA RESULT:      -8.3      4.131      5.762
REMARK  5 active torsions:
REMARK  status: ('A' for Active; 'I' for Inactive)
REMARK    1  A    between atoms: C7_9  and  C8_10 
REMARK    2  A    between atoms: C13_15  and  C14_16 
REMARK    3  A    between atoms: C14_16  and  C15_18 
REMARK    4  A    between atoms: C16_19  and  C17_20 
REMARK    5  A    between atoms: C17_20  and  N1_21 
ROOT
HETATM    1  C8  UNL     1      23.830   4.107  50.352  1.00  0.00    -0.017 A 
HETATM    2  C9  UNL     1      22.944   3.261  49.869  1.00  0.00    -0.015 A 
HETATM    3  C10 UNL     1      23.153   2.734  48.535  1.00  0.00     0.009 A 
HETATM    4  C11 UNL     1      22.293   1.865  48.048  1.00  0.00    -0.021 A 
HETATM    5  C12 UNL     1      21.111   1.389  48.787  1.00  0.00     0.071 A 
HETATM    6  C13 UNL     1      20.991   1.986  50.120  1.00  0.00     0.008 A 
HETATM    7  C20 UNL     1      21.799   2.846  50.667  1.00  0.00     0.002 A 
HETATM    8  C21 UNL     1      21.665   3.415  51.998  1.00  0.00     0.123 A 
HETATM    9  N2  UNL     1      22.527   4.241  52.425  1.00  0.00    -0.296 NA
HETATM   10  C22 UNL     1      23.683   4.694  51.687  1.00  0.00     0.188 A 
ENDROOT
BRANCH   1  11
HETATM   11  C7  UNL     1      25.025   4.600  49.738  1.00  0.00    -0.020 A 
HETATM   12  C2  UNL     1      26.232   3.952  49.695  1.00  0.00    -0.048 A 
HETATM   13  C1  UNL     1      26.459   2.657  50.386  1.00  0.00     0.049 C 
HETATM   14  C3  UNL     1      27.315   4.527  49.019  1.00  0.00     0.051 A 
HETATM   15  C4  UNL     1      27.225   5.756  48.376  1.00  0.00     0.138 A 
HETATM   16  F1  UNL     1      28.281   6.299  47.727  1.00  0.00    -0.204 F 
HETATM   17  C5  UNL     1      26.010   6.405  48.423  1.00  0.00     0.073 A 
HETATM   18 CL1  UNL     1      25.837   7.953  47.633  1.00  0.00    -0.081 Cl
HETATM   19  C6  UNL     1      24.945   5.828  49.092  1.00  0.00     0.039 A 
ENDBRANCH   1  11
BRANCH   6  20
HETATM   20  C14 UNL     1      19.831   1.525  50.845  1.00  0.00     0.179 C 
HETATM   21  O1  UNL     1      18.657   1.803  51.151  1.00  0.00    -0.288 OA
BRANCH  20  22
HETATM   22  C15 UNL     1      19.692   0.305  51.601  1.00  0.00     0.053 C 
HETATM   23  C16 UNL     1      20.026  -0.035  52.826  1.00  0.00    -0.004 C 
BRANCH  23  24
HETATM   24  C17 UNL     1      20.646   0.420  54.090  1.00  0.00     0.143 C 
BRANCH  24  25
HETATM   25  N1  UNL     1      21.905  -0.244  54.256  1.00  0.00    -0.418 N 
HETATM   26  C18 UNL     1      21.747  -1.641  54.442  1.00  0.00     0.142 C 
HETATM   27  C19 UNL     1      22.959   0.186  53.405  1.00  0.00     0.142 C 
ENDBRANCH  24  25
ENDBRANCH  23  24
ENDBRANCH  20  22
ENDBRANCH   6  20
TORSDOF 5
ENDMDL
MODEL 7
REMARK VINA RESULT:      -8.2      1.846      2.519
REMARK  5 active torsions:
REMARK  status: ('A' for Active; 'I' for Inactive)
REMARK    1  A    between atoms: C7_9  and  C8_10 
REMARK    2  A    between atoms: C13_15  and  C14_16 
REMARK    3  A    between atoms: C14_16  and  C15_18 
REMARK    4  A    between atoms: C16_19  and  C17_20 
REMARK    5  A    between atoms: C17_20  and  N1_21 
ROOT
HETATM    1  C8  UNL     1      24.168   0.757  52.337  1.00  0.00    -0.017 A 
HETATM    2  C9  UNL     1      23.000   0.339  52.781  1.00  0.00    -0.015 A 
HETATM    3  C10 UNL     1      22.976  -0.516  53.951  1.00  0.00     0.009 A 
HETATM    4  C11 UNL     1      21.816  -0.919  54.425  1.00  0.00    -0.021 A 
HETATM    5  C12 UNL     1      20.522  -0.549  53.830  1.00  0.00     0.071 A 
HETATM    6  C13 UNL     1      20.658   0.313  52.652  1.00  0.00     0.008 A 
HETATM    7  C20 UNL     1      21.766   0.751  52.128  1.00  0.00     0.002 A 
HETATM    8  C21 UNL     1      21.875   1.615  50.965  1.00  0.00     0.123 A 
HETATM    9  N2  UNL     1      23.016   1.984  50.553  1.00  0.00    -0.296 NA
HETATM   10  C22 UNL     1      24.278   1.614  51.153  1.00  0.00     0.188 A 
ENDROOT
BRANCH   1  11
HETATM   11  C7  UNL     1      25.473   0.491  52.861  1.00  0.00    -0.020 A 
HETATM   12  C2  UNL     1      26.209   1.336  53.651  1.00  0.00    -0.048 A 
HETATM   13  C1  UNL     1      25.747   2.708  53.984  1.00  0.00     0.049 C 
HETATM   14  C3  UNL     1      27.458   0.934  54.138  1.00  0.00     0.051 A 
HETATM   15  C4  UNL     1      28.005  -0.312  53.850  1.00  0.00     0.138 A 
HETATM   16  F1  UNL     1      29.214  -0.686  54.328  1.00  0.00    -0.204 F 
HETATM   17  C5  UNL     1      27.262  -1.158  53.055  1.00  0.00     0.073 A 
HETATM   18 CL1  UNL     1      27.898  -2.736  52.659  1.00  0.00    -0.081 Cl
HETATM   19  C6  UNL     1      26.028  -0.752  52.579  1.00  0.00     0.039 A 
ENDBRANCH   1  11
BRANCH   6  20
HETATM   20  C14 UNL     1      19.390   0.674  52.063  1.00  0.00     0.179 C 
HETATM   21  O1  UNL     1      18.613   1.620  51.845  1.00  0.00    -0.288 OA
BRANCH  20  22
HETATM   22  C15 UNL     1      18.447  -0.195  51.403  1.00  0.00     0.053 C 
HETATM   23  C16 UNL     1      17.264  -0.657  51.741  1.00  0.00    -0.004 C 
BRANCH  23  24
HETATM   24  C17 UNL     1      16.213  -0.670  52.783  1.00  0.00     0.143 C 
BRANCH  24  25
HETATM   25  N1  UNL     1      15.038  -0.034  52.266  1.00  0.00    -0.418 N 
HETATM   26  C18 UNL     1      15.070   1.371  52.452  1.00  0.00     0.142 C 
HETATM   27  C19 UNL     1      14.561  -0.516  51.016  1.00  0.00     0.142 C 
ENDBRANCH  24  25
ENDBRANCH  23  24
ENDBRANCH  20  22
ENDBRANCH   6  20
TORSDOF 5
ENDMDL
MODEL 8
REMARK VINA RESULT:      -8.2      4.543      7.924
REMARK  5 active torsions:
REMARK  status: ('A' for Active; 'I' for Inactive)
REMARK    1  A    between atoms: C7_9  and  C8_10 
REMARK    2  A    between atoms: C13_15  and  C14_16 
REMARK    3  A    between atoms: C14_16  and  C15_18 
REMARK    4  A    between atoms: C16_19  and  C17_20 
REMARK    5  A    between atoms: C17_20  and  N1_21 
ROOT
HETATM    1  C8  UNL     1      22.916   2.815  51.691  1.00  0.00    -0.017 A 
HETATM    2  C9  UNL     1      22.845   3.144  50.418  1.00  0.00    -0.015 A 
HETATM    3  C10 UNL     1      22.599   2.093  49.450  1.00  0.00     0.009 A 
HETATM    4  C11 UNL     1      22.496   2.408  48.176  1.00  0.00    -0.021 A 
HETATM    5  C12 UNL     1      22.617   3.784  47.667  1.00  0.00     0.071 A 
HETATM    6  C13 UNL     1      22.868   4.767  48.725  1.00  0.00     0.008 A 
HETATM    7  C20 UNL     1      22.981   4.531  49.999  1.00  0.00     0.002 A 
HETATM    8  C21 UNL     1      23.218   5.526  51.032  1.00  0.00     0.123 A 
HETATM    9  N2  UNL     1      23.299   5.173  52.247  1.00  0.00    -0.296 NA
HETATM   10  C22 UNL     1      23.174   3.817  52.730  1.00  0.00     0.188 A 
ENDROOT
BRANCH   1  11
HETATM   11  C7  UNL     1      22.774   1.524  52.293  1.00  0.00    -0.020 A 
HETATM   12  C2  UNL     1      23.799   0.682  52.638  1.00  0.00    -0.048 A 
HETATM   13  C1  UNL     1      25.217   0.996  52.330  1.00  0.00     0.049 C 
HETATM   14  C3  UNL     1      23.525  -0.539  53.266  1.00  0.00     0.051 A 
HETATM   15  C4  UNL     1      22.230  -0.952  53.561  1.00  0.00     0.138 A 
HETATM   16  F1  UNL     1      21.981  -2.135  54.168  1.00  0.00    -0.204 F 
HETATM   17  C5  UNL     1      21.203  -0.102  53.210  1.00  0.00     0.073 A 
HETATM   18 CL1  UNL     1      19.554  -0.567  53.556  1.00  0.00    -0.081 Cl
HETATM   19  C6  UNL     1      21.484   1.103  52.592  1.00  0.00     0.039 A 
ENDBRANCH   1  11
BRANCH   6  20
HETATM   20  C14 UNL     1      22.992   6.116  48.227  1.00  0.00     0.179 C 
HETATM   21  O1  UNL     1      22.362   7.159  47.972  1.00  0.00    -0.288 OA
BRANCH  20  22
HETATM   22  C15 UNL     1      24.188   6.782  47.776  1.00  0.00     0.053 C 
HETATM   23  C16 UNL     1      25.428   6.795  48.214  1.00  0.00    -0.004 C 
BRANCH  23  24
HETATM   24  C17 UNL     1      26.363   6.283  49.241  1.00  0.00     0.143 C 
BRANCH  24  25
HETATM   25  N1  UNL     1      26.935   5.054  48.777  1.00  0.00    -0.418 N 
HETATM   26  C18 UNL     1      28.298   5.207  48.415  1.00  0.00     0.142 C 
HETATM   27  C19 UNL     1      26.581   3.883  49.501  1.00  0.00     0.142 C 
ENDBRANCH  24  25
ENDBRANCH  23  24
ENDBRANCH  20  22
ENDBRANCH   6  20
TORSDOF 5
ENDMDL
MODEL 9
REMARK VINA RESULT:      -8.0      6.337     10.270
REMARK  5 active torsions:
REMARK  status: ('A' for Active; 'I' for Inactive)
REMARK    1  A    between atoms: C7_9  and  C8_10 
REMARK    2  A    between atoms: C13_15  and  C14_16 
REMARK    3  A    between atoms: C14_16  and  C15_18 
REMARK    4  A    between atoms: C16_19  and  C17_20 
REMARK    5  A    between atoms: C17_20  and  N1_21 
ROOT
HETATM    1  C8  UNL     1      24.066   4.808  50.598  1.00  0.00    -0.017 A 
HETATM    2  C9  UNL     1      25.187   5.125  49.984  1.00  0.00    -0.015 A 
HETATM    3  C10 UNL     1      26.065   4.052  49.561  1.00  0.00     0.009 A 
HETATM    4  C11 UNL     1      27.176   4.350  48.920  1.00  0.00    -0.021 A 
HETATM    5  C12 UNL     1      27.587   5.727  48.603  1.00  0.00     0.071 A 
HETATM    6  C13 UNL     1      26.633   6.734  49.077  1.00  0.00     0.008 A 
HETATM    7  C20 UNL     1      25.520   6.516  49.713  1.00  0.00     0.002 A 
HETATM    8  C21 UNL     1      24.583   7.532  50.163  1.00  0.00     0.123 A 
HETATM    9  N2  UNL     1      23.521   7.193  50.768  1.00  0.00    -0.296 NA
HETATM   10  C22 UNL     1      23.131   5.835  51.067  1.00  0.00     0.188 A 
ENDROOT
BRANCH   1  11
HETATM   11  C7  UNL     1      23.555   3.510  50.917  1.00  0.00    -0.020 A 
HETATM   12  C2  UNL     1      23.700   2.863  52.117  1.00  0.00    -0.048 A 
HETATM   13  C1  UNL     1      24.513   3.427  53.225  1.00  0.00     0.049 C 
HETATM   14  C3  UNL     1      23.109   1.610  52.316  1.00  0.00     0.051 A 
HETATM   15  C4  UNL     1      22.365   0.971  51.331  1.00  0.00     0.138 A 
HETATM   16  F1  UNL     1      21.799  -0.241  51.538  1.00  0.00    -0.204 F 
HETATM   17  C5  UNL     1      22.223   1.625  50.126  1.00  0.00     0.073 A 
HETATM   18 CL1  UNL     1      21.298   0.871  48.849  1.00  0.00    -0.081 Cl
HETATM   19  C6  UNL     1      22.809   2.864  49.938  1.00  0.00     0.039 A 
ENDBRANCH   1  11
BRANCH   6  20
HETATM   20  C14 UNL     1      27.037   8.086  48.771  1.00  0.00     0.179 C 
HETATM   21  O1  UNL     1      26.970   8.989  47.918  1.00  0.00    -0.288 OA
BRANCH  20  22
HETATM   22  C15 UNL     1      27.830   8.973  49.585  1.00  0.00     0.053 C 
HETATM   23  C16 UNL     1      29.091   9.343  49.543  1.00  0.00    -0.004 C 
BRANCH  23  24
HETATM   24  C17 UNL     1      30.380   9.199  48.830  1.00  0.00     0.143 C 
BRANCH  24  25
HETATM   25  N1  UNL     1      30.663   7.805  48.659  1.00  0.00    -0.418 N 
HETATM   26  C18 UNL     1      30.639   7.424  47.293  1.00  0.00     0.142 C 
HETATM   27  C19 UNL     1      31.704   7.271  49.467  1.00  0.00     0.142 C 
ENDBRANCH  24  25
ENDBRANCH  23  24
ENDBRANCH  20  22
ENDBRANCH   6  20
TORSDOF 5
ENDMDL
