MODEL 1
REMARK VINA RESULT:      -7.9      0.000      0.000
REMARK  3 active torsions:
REMARK  status: ('A' for Active; 'I' for Inactive)
REMARK    1  A    between atoms: N1_2  and  C2_3 
REMARK    2  A    between atoms: C8_10  and  N3_11 
REMARK    3  A    between atoms: N3_11  and  C9_12 
ROOT
HETATM    1  C2  UNL     1      20.744   0.606  51.510  1.00  0.00     0.028 A 
HETATM    2  C3  UNL     1      19.765   0.026  52.289  1.00  0.00     0.031 A 
HETATM    3  C4  UNL     1      20.148  -0.613  53.450  1.00  0.00     0.035 A 
HETATM    4  C5  UNL     1      21.471  -0.670  53.820  1.00  0.00     0.069 A 
HETATM    5  N2  UNL     1      21.691  -1.336  54.993  1.00  0.00    -0.260 NA
HETATM    6  C6  UNL     1      22.967  -1.457  55.465  1.00  0.00     0.119 A 
HETATM    7  C7  UNL     1      23.947  -0.878  54.687  1.00  0.00     0.049 A 
HETATM    8  C8  UNL     1      23.785  -0.198  53.504  1.00  0.00     0.046 A 
HETATM    9  C15 UNL     1      22.488  -0.107  53.079  1.00  0.00     0.021 A 
HETATM   10  C16 UNL     1      22.051   0.515  51.936  1.00  0.00     0.045 A 
ENDROOT
BRANCH   8  11
HETATM   11  N3  UNL     1      24.791   0.393  52.744  1.00  0.00    -0.355 N 
HETATM   12  H9  UNL     1      24.648   0.709  51.767  1.00  0.00     0.166 HD
BRANCH  11  13
HETATM   13  C9  UNL     1      26.144   0.719  53.002  1.00  0.00     0.033 A 
HETATM   14  C10 UNL     1      26.669   1.999  53.206  1.00  0.00     0.029 A 
HETATM   15  C11 UNL     1      27.972   2.283  53.474  1.00  0.00     0.004 A 
HETATM   16  C12 UNL     1      28.882   1.254  53.558  1.00  0.00     0.019 A 
HETATM   17  C13 UNL     1      28.454  -0.041  53.371  1.00  0.00     0.013 A 
HETATM   18 BR1  UNL     1      29.768  -1.386  53.505  1.00  0.00    -0.051 Br
HETATM   19  C14 UNL     1      27.128  -0.268  53.105  1.00  0.00     0.048 A 
ENDBRANCH  11  13
ENDBRANCH   8  11
BRANCH   1  20
HETATM   20  N1  UNL     1      20.382   1.271  50.309  1.00  0.00    -0.394 N 
HETATM   21  C1  UNL     1      21.186   1.039  49.125  1.00  0.00     0.146 C 
HETATM   22  H4  UNL     1      19.556   1.898  50.324  1.00  0.00     0.159 HD
ENDBRANCH   1  20
TORSDOF 3
ENDMDL
MODEL 2
REMARK VINA RESULT:      -7.6      3.338      4.798
REMARK  3 active torsions:
REMARK  status: ('A' for Active; 'I' for Inactive)
REMARK    1  A    between atoms: N1_2  and  C2_3 
REMARK    2  A    between atoms: C8_10  and  N3_11 
REMARK    3  A    between atoms: N3_11  and  C9_12 
ROOT
HETATM    1  C2  UNL     1      22.605  -0.798  54.189  1.00  0.00     0.028 A 
HETATM    2  C3  UNL     1      23.167  -1.416  55.287  1.00  0.00     0.031 A 
HETATM    3  C4  UNL     1      24.522  -1.267  55.497  1.00  0.00     0.035 A 
HETATM    4  C5  UNL     1      25.292  -0.523  54.634  1.00  0.00     0.069 A 
HETATM    5  N2  UNL     1      26.614  -0.470  54.976  1.00  0.00    -0.260 NA
HETATM    6  C6  UNL     1      27.479   0.242  54.194  1.00  0.00     0.119 A 
HETATM    7  C7  UNL     1      26.920   0.859  53.097  1.00  0.00     0.049 A 
HETATM    8  C8  UNL     1      25.603   0.841  52.706  1.00  0.00     0.046 A 
HETATM    9  C15 UNL     1      24.781   0.114  53.524  1.00  0.00     0.021 A 
HETATM   10  C16 UNL     1      23.430  -0.067  53.363  1.00  0.00     0.045 A 
ENDROOT
BRANCH   8  11
HETATM   11  N3  UNL     1      25.057   1.488  51.599  1.00  0.00    -0.355 N 
HETATM   12  H9  UNL     1      24.239   1.122  51.078  1.00  0.00     0.166 HD
BRANCH  11  13
HETATM   13  C9  UNL     1      25.378   2.683  50.914  1.00  0.00     0.033 A 
HETATM   14  C10 UNL     1      26.417   2.864  49.993  1.00  0.00     0.029 A 
HETATM   15  C11 UNL     1      26.692   4.020  49.332  1.00  0.00     0.004 A 
HETATM   16  C12 UNL     1      25.909   5.129  49.560  1.00  0.00     0.019 A 
HETATM   17  C13 UNL     1      24.863   5.044  50.451  1.00  0.00     0.013 A 
HETATM   18 BR1  UNL     1      23.844   6.610  50.701  1.00  0.00    -0.051 Br
HETATM   19  C14 UNL     1      24.632   3.851  51.089  1.00  0.00     0.048 A 
ENDBRANCH  11  13
ENDBRANCH   8  11
BRANCH   1  20
HETATM   20  N1  UNL     1      21.213  -0.932  53.946  1.00  0.00    -0.394 N 
HETATM   21  C1  UNL     1      20.425   0.274  53.776  1.00  0.00     0.146 C 
HETATM   22  H4  UNL     1      20.811  -1.887  53.898  1.00  0.00     0.159 HD
ENDBRANCH   1  20
TORSDOF 3
ENDMDL
MODEL 3
REMARK VINA RESULT:      -7.6      1.766      3.641
REMARK  3 active torsions:
REMARK  status: ('A' for Active; 'I' for Inactive)
REMARK    1  A    between atoms: N1_2  and  C2_3 
REMARK    2  A    between atoms: C8_10  and  N3_11 
REMARK    3  A    between atoms: N3_11  and  C9_12 
ROOT
HETATM    1  C2  UNL     1      22.444   0.083  53.145  1.00  0.00     0.028 A 
HETATM    2  C3  UNL     1      21.560   0.083  52.087  1.00  0.00     0.031 A 
HETATM    3  C4  UNL     1      21.849   0.875  50.996  1.00  0.00     0.035 A 
HETATM    4  C5  UNL     1      22.987   1.646  50.964  1.00  0.00     0.069 A 
HETATM    5  N2  UNL     1      23.133   2.375  49.818  1.00  0.00    -0.260 NA
HETATM    6  C6  UNL     1      24.228   3.178  49.670  1.00  0.00     0.119 A 
HETATM    7  C7  UNL     1      25.112   3.180  50.727  1.00  0.00     0.049 A 
HETATM    8  C8  UNL     1      25.018   2.470  51.899  1.00  0.00     0.046 A 
HETATM    9  C15 UNL     1      23.903   1.682  51.994  1.00  0.00     0.021 A 
HETATM   10  C16 UNL     1      23.567   0.875  53.053  1.00  0.00     0.045 A 
ENDROOT
BRANCH   8  11
HETATM   11  N3  UNL     1      25.935   2.475  52.948  1.00  0.00    -0.355 N 
HETATM   12  H9  UNL     1      25.842   3.092  53.776  1.00  0.00     0.166 HD
BRANCH  11  13
HETATM   13  C9  UNL     1      27.123   1.751  53.207  1.00  0.00     0.033 A 
HETATM   14  C10 UNL     1      28.327   2.271  53.693  1.00  0.00     0.029 A 
HETATM   15  C11 UNL     1      29.450   1.548  53.952  1.00  0.00     0.004 A 
HETATM   16  C12 UNL     1      29.443   0.190  53.730  1.00  0.00     0.019 A 
HETATM   17  C13 UNL     1      28.299  -0.409  53.252  1.00  0.00     0.013 A 
HETATM   18 BR1  UNL     1      28.380  -2.272  52.977  1.00  0.00    -0.051 Br
HETATM   19  C14 UNL     1      27.197   0.370  53.008  1.00  0.00     0.048 A 
ENDBRANCH  11  13
ENDBRANCH   8  11
BRANCH   1  20
HETATM   20  N1  UNL     1      22.176  -0.722  54.283  1.00  0.00    -0.394 N 
HETATM   21  C1  UNL     1      21.006  -1.580  54.259  1.00  0.00     0.146 C 
HETATM   22  H4  UNL     1      22.826  -0.667  55.089  1.00  0.00     0.159 HD
ENDBRANCH   1  20
TORSDOF 3
ENDMDL
MODEL 4
REMARK VINA RESULT:      -7.6      3.083      4.532
REMARK  3 active torsions:
REMARK  status: ('A' for Active; 'I' for Inactive)
REMARK    1  A    between atoms: N1_2  and  C2_3 
REMARK    2  A    between atoms: C8_10  and  N3_11 
REMARK    3  A    between atoms: N3_11  and  C9_12 
ROOT
HETATM    1  C2  UNL     1      22.205  -0.416  54.444  1.00  0.00     0.028 A 
HETATM    2  C3  UNL     1      22.870  -1.218  55.347  1.00  0.00     0.031 A 
HETATM    3  C4  UNL     1      24.239  -1.338  55.227  1.00  0.00     0.035 A 
HETATM    4  C5  UNL     1      24.922  -0.676  54.233  1.00  0.00     0.069 A 
HETATM    5  N2  UNL     1      26.270  -0.895  54.245  1.00  0.00    -0.260 NA
HETATM    6  C6  UNL     1      27.055  -0.288  53.306  1.00  0.00     0.119 A 
HETATM    7  C7  UNL     1      26.391   0.513  52.403  1.00  0.00     0.049 A 
HETATM    8  C8  UNL     1      25.042   0.770  52.344  1.00  0.00     0.046 A 
HETATM    9  C15 UNL     1      24.305   0.137  53.307  1.00  0.00     0.021 A 
HETATM   10  C16 UNL     1      22.944   0.221  53.473  1.00  0.00     0.045 A 
ENDROOT
BRANCH   8  11
HETATM   11  N3  UNL     1      24.395   1.599  51.430  1.00  0.00    -0.355 N 
HETATM   12  H9  UNL     1      23.559   1.303  50.893  1.00  0.00     0.166 HD
BRANCH  11  13
HETATM   13  C9  UNL     1      24.619   2.924  50.989  1.00  0.00     0.033 A 
HETATM   14  C10 UNL     1      23.830   4.044  51.278  1.00  0.00     0.029 A 
HETATM   15  C11 UNL     1      24.079   5.313  50.858  1.00  0.00     0.004 A 
HETATM   16  C12 UNL     1      25.189   5.560  50.081  1.00  0.00     0.019 A 
HETATM   17  C13 UNL     1      26.023   4.517  49.747  1.00  0.00     0.013 A 
HETATM   18 BR1  UNL     1      27.518   4.947  48.682  1.00  0.00    -0.051 Br
HETATM   19  C14 UNL     1      25.722   3.258  50.200  1.00  0.00     0.048 A 
ENDBRANCH  11  13
ENDBRANCH   8  11
BRANCH   1  20
HETATM   20  N1  UNL     1      20.795  -0.272  54.541  1.00  0.00    -0.394 N 
HETATM   21  C1  UNL     1      20.028  -0.171  53.314  1.00  0.00     0.146 C 
HETATM   22  H4  UNL     1      20.367  -0.244  55.486  1.00  0.00     0.159 HD
ENDBRANCH   1  20
TORSDOF 3
ENDMDL
MODEL 5
REMARK VINA RESULT:      -7.4      4.003      5.934
REMARK  3 active torsions:
REMARK  status: ('A' for Active; 'I' for Inactive)
REMARK    1  A    between atoms: N1_2  and  C2_3 
REMARK    2  A    between atoms: C8_10  and  N3_11 
REMARK    3  A    between atoms: N3_11  and  C9_12 
ROOT
HETATM    1  C2  UNL     1      26.458   0.795  54.230  1.00  0.00     0.028 A 
HETATM    2  C3  UNL     1      25.809  -0.404  54.434  1.00  0.00     0.031 A 
HETATM    3  C4  UNL     1      24.571  -0.582  53.853  1.00  0.00     0.035 A 
HETATM    4  C5  UNL     1      23.998   0.410  53.092  1.00  0.00     0.069 A 
HETATM    5  N2  UNL     1      22.772   0.083  52.586  1.00  0.00    -0.260 NA
HETATM    6  C6  UNL     1      22.105   0.990  51.812  1.00  0.00     0.119 A 
HETATM    7  C7  UNL     1      22.752   2.189  51.608  1.00  0.00     0.049 A 
HETATM    8  C8  UNL     1      23.981   2.570  52.088  1.00  0.00     0.046 A 
HETATM    9  C15 UNL     1      24.604   1.625  52.857  1.00  0.00     0.021 A 
HETATM   10  C16 UNL     1      25.833   1.749  53.457  1.00  0.00     0.045 A 
ENDROOT
BRANCH   8  11
HETATM   11  N3  UNL     1      24.623   3.784  51.854  1.00  0.00    -0.355 N 
HETATM   12  H9  UNL     1      24.625   4.563  52.538  1.00  0.00     0.166 HD
BRANCH  11  13
HETATM   13  C9  UNL     1      25.380   4.293  50.772  1.00  0.00     0.033 A 
HETATM   14  C10 UNL     1      26.449   3.657  50.131  1.00  0.00     0.029 A 
HETATM   15  C11 UNL     1      27.147   4.161  49.078  1.00  0.00     0.004 A 
HETATM   16  C12 UNL     1      26.807   5.395  48.571  1.00  0.00     0.019 A 
HETATM   17  C13 UNL     1      25.766   6.093  49.141  1.00  0.00     0.013 A 
HETATM   18 BR1  UNL     1      25.370   7.773  48.384  1.00  0.00    -0.051 Br
HETATM   19  C14 UNL     1      25.097   5.536  50.201  1.00  0.00     0.048 A 
ENDBRANCH  11  13
ENDBRANCH   8  11
BRANCH   1  20
HETATM   20  N1  UNL     1      27.735   1.009  54.814  1.00  0.00    -0.394 N 
HETATM   21  C1  UNL     1      28.903   0.511  54.114  1.00  0.00     0.146 C 
HETATM   22  H4  UNL     1      27.783   1.514  55.719  1.00  0.00     0.159 HD
ENDBRANCH   1  20
TORSDOF 3
ENDMDL
MODEL 6
REMARK VINA RESULT:      -7.3      3.068      4.957
REMARK  3 active torsions:
REMARK  status: ('A' for Active; 'I' for Inactive)
REMARK    1  A    between atoms: N1_2  and  C2_3 
REMARK    2  A    between atoms: C8_10  and  N3_11 
REMARK    3  A    between atoms: N3_11  and  C9_12 
ROOT
HETATM    1  C2  UNL     1      25.255  -0.552  54.426  1.00  0.00     0.028 A 
HETATM    2  C3  UNL     1      24.488  -1.224  55.354  1.00  0.00     0.031 A 
HETATM    3  C4  UNL     1      23.119  -1.225  55.191  1.00  0.00     0.035 A 
HETATM    4  C5  UNL     1      22.533  -0.573  54.130  1.00  0.00     0.069 A 
HETATM    5  N2  UNL     1      21.170  -0.664  54.106  1.00  0.00    -0.260 NA
HETATM    6  C6  UNL     1      20.477  -0.057  53.098  1.00  0.00     0.119 A 
HETATM    7  C7  UNL     1      21.242   0.615  52.170  1.00  0.00     0.049 A 
HETATM    8  C8  UNL     1      22.610   0.740  52.143  1.00  0.00     0.046 A 
HETATM    9  C15 UNL     1      23.254   0.113  53.176  1.00  0.00     0.021 A 
HETATM   10  C16 UNL     1      24.610   0.081  53.386  1.00  0.00     0.045 A 
ENDROOT
BRANCH   8  11
HETATM   11  N3  UNL     1      23.363   1.412  51.184  1.00  0.00    -0.355 N 
HETATM   12  H9  UNL     1      23.791   0.937  50.368  1.00  0.00     0.166 HD
BRANCH  11  13
HETATM   13  C9  UNL     1      23.742   2.765  51.015  1.00  0.00     0.033 A 
HETATM   14  C10 UNL     1      23.111   3.883  51.572  1.00  0.00     0.029 A 
HETATM   15  C11 UNL     1      23.509   5.174  51.411  1.00  0.00     0.004 A 
HETATM   16  C12 UNL     1      24.618   5.446  50.642  1.00  0.00     0.019 A 
HETATM   17  C13 UNL     1      25.302   4.406  50.054  1.00  0.00     0.013 A 
HETATM   18 BR1  UNL     1      26.808   4.871  49.020  1.00  0.00    -0.051 Br
HETATM   19  C14 UNL     1      24.856   3.124  50.252  1.00  0.00     0.048 A 
ENDBRANCH  11  13
ENDBRANCH   8  11
BRANCH   1  20
HETATM   20  N1  UNL     1      26.668  -0.532  54.566  1.00  0.00    -0.394 N 
HETATM   21  C1  UNL     1      27.479  -0.605  53.366  1.00  0.00     0.146 C 
HETATM   22  H4  UNL     1      27.066  -0.467  55.521  1.00  0.00     0.159 HD
ENDBRANCH   1  20
TORSDOF 3
ENDMDL
MODEL 7
REMARK VINA RESULT:      -7.0      3.227      6.253
REMARK  3 active torsions:
REMARK  status: ('A' for Active; 'I' for Inactive)
REMARK    1  A    between atoms: N1_2  and  C2_3 
REMARK    2  A    between atoms: C8_10  and  N3_11 
REMARK    3  A    between atoms: N3_11  and  C9_12 
ROOT
HETATM    1  C2  UNL     1      26.538   1.622  53.380  1.00  0.00     0.028 A 
HETATM    2  C3  UNL     1      26.754   0.511  54.167  1.00  0.00     0.031 A 
HETATM    3  C4  UNL     1      25.689  -0.330  54.414  1.00  0.00     0.035 A 
HETATM    4  C5  UNL     1      24.445  -0.068  53.889  1.00  0.00     0.069 A 
HETATM    5  N2  UNL     1      23.495  -0.991  54.222  1.00  0.00    -0.260 NA
HETATM    6  C6  UNL     1      22.220  -0.837  53.757  1.00  0.00     0.119 A 
HETATM    7  C7  UNL     1      22.003   0.272  52.970  1.00  0.00     0.049 A 
HETATM    8  C8  UNL     1      22.917   1.231  52.602  1.00  0.00     0.046 A 
HETATM    9  C15 UNL     1      24.177   1.027  53.096  1.00  0.00     0.021 A 
HETATM   10  C16 UNL     1      25.271   1.830  52.882  1.00  0.00     0.045 A 
ENDROOT
BRANCH   8  11
HETATM   11  N3  UNL     1      22.677   2.337  51.790  1.00  0.00    -0.355 N 
HETATM   12  H9  UNL     1      22.575   3.299  52.163  1.00  0.00     0.166 HD
BRANCH  11  13
HETATM   13  C9  UNL     1      22.519   2.504  50.394  1.00  0.00     0.033 A 
HETATM   14  C10 UNL     1      22.149   1.518  49.473  1.00  0.00     0.029 A 
HETATM   15  C11 UNL     1      21.984   1.711  48.137  1.00  0.00     0.004 A 
HETATM   16  C12 UNL     1      22.189   2.964  47.606  1.00  0.00     0.019 A 
HETATM   17  C13 UNL     1      22.556   3.997  48.439  1.00  0.00     0.013 A 
HETATM   18 BR1  UNL     1      22.816   5.678  47.627  1.00  0.00    -0.051 Br
HETATM   19  C14 UNL     1      22.708   3.744  49.779  1.00  0.00     0.048 A 
ENDBRANCH  11  13
ENDBRANCH   8  11
BRANCH   1  20
HETATM   20  N1  UNL     1      27.614   2.507  53.107  1.00  0.00    -0.394 N 
HETATM   21  C1  UNL     1      28.873   2.292  53.794  1.00  0.00     0.146 C 
HETATM   22  H4  UNL     1      27.460   3.274  52.426  1.00  0.00     0.159 HD
ENDBRANCH   1  20
TORSDOF 3
ENDMDL
MODEL 8
REMARK VINA RESULT:      -7.0      3.523      5.280
REMARK  3 active torsions:
REMARK  status: ('A' for Active; 'I' for Inactive)
REMARK    1  A    between atoms: N1_2  and  C2_3 
REMARK    2  A    between atoms: C8_10  and  N3_11 
REMARK    3  A    between atoms: N3_11  and  C9_12 
ROOT
HETATM    1  C2  UNL     1      21.756  -0.961  54.307  1.00  0.00     0.028 A 
HETATM    2  C3  UNL     1      22.453  -1.636  55.287  1.00  0.00     0.031 A 
HETATM    3  C4  UNL     1      23.823  -1.485  55.335  1.00  0.00     0.035 A 
HETATM    4  C5  UNL     1      24.477  -0.684  54.428  1.00  0.00     0.069 A 
HETATM    5  N2  UNL     1      25.831  -0.637  54.605  1.00  0.00    -0.260 NA
HETATM    6  C6  UNL     1      26.589   0.128  53.765  1.00  0.00     0.119 A 
HETATM    7  C7  UNL     1      25.894   0.803  52.784  1.00  0.00     0.049 A 
HETATM    8  C8  UNL     1      24.539   0.794  52.561  1.00  0.00     0.046 A 
HETATM    9  C15 UNL     1      23.829   0.012  53.431  1.00  0.00     0.021 A 
HETATM   10  C16 UNL     1      22.468  -0.174  53.429  1.00  0.00     0.045 A 
ENDROOT
BRANCH   8  11
HETATM   11  N3  UNL     1      23.857   1.499  51.571  1.00  0.00    -0.355 N 
HETATM   12  H9  UNL     1      23.752   1.150  50.601  1.00  0.00     0.166 HD
BRANCH  11  13
HETATM   13  C9  UNL     1      23.174   2.738  51.554  1.00  0.00     0.033 A 
HETATM   14  C10 UNL     1      23.735   4.002  51.767  1.00  0.00     0.029 A 
HETATM   15  C11 UNL     1      23.059   5.181  51.724  1.00  0.00     0.004 A 
HETATM   16  C12 UNL     1      21.709   5.175  51.453  1.00  0.00     0.019 A 
HETATM   17  C13 UNL     1      21.073   3.975  51.230  1.00  0.00     0.013 A 
HETATM   18 BR1  UNL     1      19.225   4.061  50.867  1.00  0.00    -0.051 Br
HETATM   19  C14 UNL     1      21.805   2.817  51.285  1.00  0.00     0.048 A 
ENDBRANCH  11  13
ENDBRANCH   8  11
BRANCH   1  20
HETATM   20  N1  UNL     1      20.345  -1.095  54.232  1.00  0.00    -0.394 N 
HETATM   21  C1  UNL     1      19.631  -0.313  53.240  1.00  0.00     0.146 C 
HETATM   22  H4  UNL     1      19.877  -1.748  54.888  1.00  0.00     0.159 HD
ENDBRANCH   1  20
TORSDOF 3
ENDMDL
MODEL 9
REMARK VINA RESULT:      -6.9      4.268      6.188
REMARK  3 active torsions:
REMARK  status: ('A' for Active; 'I' for Inactive)
REMARK    1  A    between atoms: N1_2  and  C2_3 
REMARK    2  A    between atoms: C8_10  and  N3_11 
REMARK    3  A    between atoms: N3_11  and  C9_12 
ROOT
HETATM    1  C2  UNL     1      25.876   5.561  49.427  1.00  0.00     0.028 A 
HETATM    2  C3  UNL     1      25.037   6.190  48.532  1.00  0.00     0.031 A 
HETATM    3  C4  UNL     1      23.685   6.208  48.806  1.00  0.00     0.035 A 
HETATM    4  C5  UNL     1      23.188   5.613  49.942  1.00  0.00     0.069 A 
HETATM    5  N2  UNL     1      21.831   5.714  50.073  1.00  0.00    -0.260 NA
HETATM    6  C6  UNL     1      21.221   5.162  51.163  1.00  0.00     0.119 A 
HETATM    7  C7  UNL     1      22.059   4.533  52.059  1.00  0.00     0.049 A 
HETATM    8  C8  UNL     1      23.424   4.402  51.980  1.00  0.00     0.046 A 
HETATM    9  C15 UNL     1      23.982   4.973  50.868  1.00  0.00     0.021 A 
HETATM   10  C16 UNL     1      25.317   4.985  50.546  1.00  0.00     0.045 A 
ENDROOT
BRANCH   8  11
HETATM   11  N3  UNL     1      24.252   3.774  52.907  1.00  0.00    -0.355 N 
HETATM   12  H9  UNL     1      24.808   4.294  53.611  1.00  0.00     0.166 HD
BRANCH  11  13
HETATM   13  C9  UNL     1      24.568   2.420  53.171  1.00  0.00     0.033 A 
HETATM   14  C10 UNL     1      23.736   1.314  52.963  1.00  0.00     0.029 A 
HETATM   15  C11 UNL     1      24.073   0.019  53.207  1.00  0.00     0.004 A 
HETATM   16  C12 UNL     1      25.324  -0.271  53.701  1.00  0.00     0.019 A 
HETATM   17  C13 UNL     1      26.210   0.757  53.937  1.00  0.00     0.013 A 
HETATM   18 BR1  UNL     1      27.900   0.268  54.613  1.00  0.00    -0.051 Br
HETATM   19  C14 UNL     1      25.816   2.044  53.672  1.00  0.00     0.048 A 
ENDBRANCH  11  13
ENDBRANCH   8  11
BRANCH   1  20
HETATM   20  N1  UNL     1      27.272   5.526  49.173  1.00  0.00    -0.394 N 
HETATM   21  C1  UNL     1      27.833   6.514  48.271  1.00  0.00     0.146 C 
HETATM   22  H4  UNL     1      27.839   4.795  49.642  1.00  0.00     0.159 HD
ENDBRANCH   1  20
TORSDOF 3
ENDMDL
