MODEL 1
REMARK VINA RESULT:      -8.8      0.000      0.000
REMARK  3 active torsions:
REMARK  status: ('A' for Active; 'I' for Inactive)
REMARK    1  A    between atoms: C5_5  and  N1_6 
REMARK    2  A    between atoms: N1_6  and  C6_7 
REMARK    3  A    between atoms: C12_18  and  C13_19 
ROOT
HETATM    1  C1  UNL     1      30.097  -0.793  53.434  1.00  0.00     0.049 C 
HETATM    2  C2  UNL     1      28.626  -0.594  53.428  1.00  0.00    -0.041 A 
HETATM    3  C3  UNL     1      27.799  -1.544  52.856  1.00  0.00     0.010 A 
HETATM    4  C4  UNL     1      26.447  -1.385  52.838  1.00  0.00     0.030 A 
HETATM    5  C5  UNL     1      25.865  -0.266  53.396  1.00  0.00     0.035 A 
HETATM    6  C17 UNL     1      26.707   0.695  53.976  1.00  0.00     0.052 A 
HETATM    7  C18 UNL     1      28.099   0.538  53.997  1.00  0.00     0.052 A 
HETATM    8  C19 UNL     1      28.979   1.518  54.594  1.00  0.00     0.100 C 
HETATM    9  N4  UNL     1      29.677   2.290  55.087  1.00  0.00    -0.191 NA
ENDROOT
BRANCH   5  10
HETATM   10  N1  UNL     1      24.529   0.155  53.541  1.00  0.00    -0.341 N 
HETATM   11  H6  UNL     1      23.777  -0.018  54.276  1.00  0.00     0.167 HD
BRANCH  10  12
HETATM   12  C6  UNL     1      24.233   0.971  52.419  1.00  0.00     0.155 C 
HETATM   13  N2  UNL     1      24.512   1.506  51.346  1.00  0.00    -0.216 NA
HETATM   14  C7  UNL     1      24.600   2.956  51.283  1.00  0.00     0.127 C 
HETATM   15  N3  UNL     1      24.386   3.526  52.458  1.00  0.00    -0.270 NA
HETATM   16  C16 UNL     1      24.612   3.187  49.814  1.00  0.00     0.123 C 
HETATM   17  C8  UNL     1      23.008   3.009  52.875  1.00  0.00     0.210 C 
HETATM   18  C9  UNL     1      22.864   1.636  52.229  1.00  0.00     0.205 C 
HETATM   19  O1  UNL     1      21.984   0.877  53.030  1.00  0.00    -0.357 OA
HETATM   20  S1  UNL     1      22.379   1.613  50.535  1.00  0.00    -0.016 SA
HETATM   21  C10 UNL     1      20.656   1.121  52.753  1.00  0.00     0.198 C 
HETATM   22  C11 UNL     1      20.251   0.691  51.342  1.00  0.00     0.211 C 
HETATM   23  O2  UNL     1      20.701   1.669  50.423  1.00  0.00    -0.322 OA
HETATM   24  C12 UNL     1      23.103   2.722  49.598  1.00  0.00    -0.014 C 
BRANCH  24  25
HETATM   25  C13 UNL     1      22.360   3.357  48.509  1.00  0.00     0.015 C 
HETATM   26  C14 UNL     1      23.029   4.678  48.173  1.00  0.00     0.015 C 
HETATM   27  C15 UNL     1      22.302   2.531  47.246  1.00  0.00     0.015 C 
ENDBRANCH  24  25
ENDBRANCH  10  12
ENDBRANCH   5  10
TORSDOF 3
ENDMDL
MODEL 2
REMARK VINA RESULT:      -8.4      2.900      6.133
REMARK  3 active torsions:
REMARK  status: ('A' for Active; 'I' for Inactive)
REMARK    1  A    between atoms: C5_5  and  N1_6 
REMARK    2  A    between atoms: N1_6  and  C6_7 
REMARK    3  A    between atoms: C12_18  and  C13_19 
ROOT
HETATM    1  C1  UNL     1      25.623   7.406  47.822  1.00  0.00     0.049 C 
HETATM    2  C2  UNL     1      25.755   6.107  48.531  1.00  0.00    -0.041 A 
HETATM    3  C3  UNL     1      24.632   5.469  49.027  1.00  0.00     0.010 A 
HETATM    4  C4  UNL     1      24.727   4.278  49.680  1.00  0.00     0.030 A 
HETATM    5  C5  UNL     1      25.954   3.675  49.862  1.00  0.00     0.035 A 
HETATM    6  C17 UNL     1      27.090   4.325  49.358  1.00  0.00     0.052 A 
HETATM    7  C18 UNL     1      27.000   5.551  48.685  1.00  0.00     0.052 A 
HETATM    8  C19 UNL     1      28.161   6.231  48.158  1.00  0.00     0.100 C 
HETATM    9  N4  UNL     1      29.084   6.762  47.720  1.00  0.00    -0.191 NA
ENDROOT
BRANCH   5  10
HETATM   10  N1  UNL     1      26.353   2.467  50.466  1.00  0.00    -0.341 N 
HETATM   11  H6  UNL     1      27.247   1.887  50.437  1.00  0.00     0.167 HD
BRANCH  10  12
HETATM   12  C6  UNL     1      25.259   2.020  51.250  1.00  0.00     0.155 C 
HETATM   13  N2  UNL     1      24.068   1.766  51.430  1.00  0.00    -0.216 NA
HETATM   14  C7  UNL     1      23.316   2.552  52.394  1.00  0.00     0.127 C 
HETATM   15  N3  UNL     1      24.050   3.503  52.952  1.00  0.00    -0.270 NA
HETATM   16  C16 UNL     1      22.084   1.734  52.547  1.00  0.00     0.123 C 
HETATM   17  C8  UNL     1      25.233   2.748  53.559  1.00  0.00     0.210 C 
HETATM   18  C9  UNL     1      25.435   1.515  52.688  1.00  0.00     0.205 C 
HETATM   19  O1  UNL     1      26.795   1.147  52.774  1.00  0.00    -0.357 OA
HETATM   20  S1  UNL     1      24.373   0.144  53.010  1.00  0.00    -0.016 SA
HETATM   21  C10 UNL     1      27.078   0.381  53.884  1.00  0.00     0.198 C 
HETATM   22  C11 UNL     1      26.382  -0.982  53.862  1.00  0.00     0.211 C 
HETATM   23  O2  UNL     1      25.028  -0.806  54.235  1.00  0.00    -0.322 OA
HETATM   24  C12 UNL     1      22.820   0.527  53.282  1.00  0.00    -0.014 C 
BRANCH  24  25
HETATM   25  C13 UNL     1      22.038  -0.237  54.255  1.00  0.00     0.015 C 
HETATM   26  C14 UNL     1      20.689   0.439  54.427  1.00  0.00     0.015 C 
HETATM   27  C15 UNL     1      21.791  -1.670  53.848  1.00  0.00     0.015 C 
ENDBRANCH  24  25
ENDBRANCH  10  12
ENDBRANCH   5  10
TORSDOF 3
ENDMDL
MODEL 3
REMARK VINA RESULT:      -7.8      1.659      2.306
REMARK  3 active torsions:
REMARK  status: ('A' for Active; 'I' for Inactive)
REMARK    1  A    between atoms: C5_5  and  N1_6 
REMARK    2  A    between atoms: N1_6  and  C6_7 
REMARK    3  A    between atoms: C12_18  and  C13_19 
ROOT
HETATM    1  C1  UNL     1      27.120  -1.792  52.863  1.00  0.00     0.049 C 
HETATM    2  C2  UNL     1      26.395  -0.497  52.929  1.00  0.00    -0.041 A 
HETATM    3  C3  UNL     1      25.032  -0.453  52.702  1.00  0.00     0.010 A 
HETATM    4  C4  UNL     1      24.344   0.721  52.758  1.00  0.00     0.030 A 
HETATM    5  C5  UNL     1      24.996   1.902  53.046  1.00  0.00     0.035 A 
HETATM    6  C17 UNL     1      26.379   1.852  53.276  1.00  0.00     0.052 A 
HETATM    7  C18 UNL     1      27.093   0.648  53.220  1.00  0.00     0.052 A 
HETATM    8  C19 UNL     1      28.517   0.581  53.458  1.00  0.00     0.100 C 
HETATM    9  N4  UNL     1      29.648   0.526  53.667  1.00  0.00    -0.191 NA
ENDROOT
BRANCH   5  10
HETATM   10  N1  UNL     1      24.560   3.234  53.187  1.00  0.00    -0.341 N 
HETATM   11  H6  UNL     1      24.493   3.905  54.012  1.00  0.00     0.167 HD
BRANCH  10  12
HETATM   12  C6  UNL     1      24.147   3.668  51.901  1.00  0.00     0.155 C 
HETATM   13  N2  UNL     1      24.351   3.957  50.721  1.00  0.00    -0.216 NA
HETATM   14  C7  UNL     1      24.166   5.333  50.290  1.00  0.00     0.127 C 
HETATM   15  N3  UNL     1      23.816   6.131  51.286  1.00  0.00    -0.270 NA
HETATM   16  C16 UNL     1      24.175   5.183  48.811  1.00  0.00     0.123 C 
HETATM   17  C8  UNL     1      22.549   5.485  51.850  1.00  0.00     0.210 C 
HETATM   18  C9  UNL     1      22.684   3.992  51.577  1.00  0.00     0.205 C 
HETATM   19  O1  UNL     1      21.940   3.309  52.563  1.00  0.00    -0.357 OA
HETATM   20  S1  UNL     1      22.259   3.449  49.955  1.00  0.00    -0.016 SA
HETATM   21  C10 UNL     1      20.598   3.219  52.262  1.00  0.00     0.198 C 
HETATM   22  C11 UNL     1      20.321   2.377  51.015  1.00  0.00     0.211 C 
HETATM   23  O2  UNL     1      20.604   3.157  49.868  1.00  0.00    -0.322 OA
HETATM   24  C12 UNL     1      22.787   4.401  48.752  1.00  0.00    -0.014 C 
BRANCH  24  25
HETATM   25  C13 UNL     1      21.968   4.588  47.553  1.00  0.00     0.015 C 
HETATM   26  C14 UNL     1      22.471   5.813  46.810  1.00  0.00     0.015 C 
HETATM   27  C15 UNL     1      22.006   3.417  46.600  1.00  0.00     0.015 C 
ENDBRANCH  24  25
ENDBRANCH  10  12
ENDBRANCH   5  10
TORSDOF 3
ENDMDL
MODEL 4
REMARK VINA RESULT:      -7.7      2.520      4.059
REMARK  3 active torsions:
REMARK  status: ('A' for Active; 'I' for Inactive)
REMARK    1  A    between atoms: C5_5  and  N1_6 
REMARK    2  A    between atoms: N1_6  and  C6_7 
REMARK    3  A    between atoms: C12_18  and  C13_19 
ROOT
HETATM    1  C1  UNL     1      27.040  -1.508  52.735  1.00  0.00     0.049 C 
HETATM    2  C2  UNL     1      26.443  -0.150  52.662  1.00  0.00    -0.041 A 
HETATM    3  C3  UNL     1      26.737   0.681  51.596  1.00  0.00     0.010 A 
HETATM    4  C4  UNL     1      26.202   1.930  51.505  1.00  0.00     0.030 A 
HETATM    5  C5  UNL     1      25.346   2.398  52.481  1.00  0.00     0.035 A 
HETATM    6  C17 UNL     1      25.049   1.551  53.559  1.00  0.00     0.052 A 
HETATM    7  C18 UNL     1      25.597   0.265  53.659  1.00  0.00     0.052 A 
HETATM    8  C19 UNL     1      25.298  -0.619  54.762  1.00  0.00     0.100 C 
HETATM    9  N4  UNL     1      25.043  -1.331  55.632  1.00  0.00    -0.191 NA
ENDROOT
BRANCH   5  10
HETATM   10  N1  UNL     1      24.641   3.606  52.645  1.00  0.00    -0.341 N 
HETATM   11  H6  UNL     1      24.895   4.560  53.046  1.00  0.00     0.167 HD
BRANCH  10  12
HETATM   12  C6  UNL     1      23.334   3.389  52.137  1.00  0.00     0.155 C 
HETATM   13  N2  UNL     1      22.241   2.821  52.122  1.00  0.00    -0.216 NA
HETATM   14  C7  UNL     1      21.884   2.009  50.972  1.00  0.00     0.127 C 
HETATM   15  N3  UNL     1      22.848   1.965  50.065  1.00  0.00    -0.270 NA
HETATM   16  C16 UNL     1      20.428   1.805  51.195  1.00  0.00     0.123 C 
HETATM   17  C8  UNL     1      23.104   3.434  49.728  1.00  0.00     0.210 C 
HETATM   18  C9  UNL     1      22.755   4.220  50.985  1.00  0.00     0.205 C 
HETATM   19  O1  UNL     1      23.524   5.404  50.977  1.00  0.00    -0.357 OA
HETATM   20  S1  UNL     1      21.046   4.562  51.248  1.00  0.00    -0.016 SA
HETATM   21  C10 UNL     1      22.960   6.409  50.221  1.00  0.00     0.198 C 
HETATM   22  C11 UNL     1      21.625   6.902  50.783  1.00  0.00     0.211 C 
HETATM   23  O2  UNL     1      20.616   5.971  50.436  1.00  0.00    -0.322 OA
HETATM   24  C12 UNL     1      20.042   3.328  50.928  1.00  0.00    -0.014 C 
BRANCH  24  25
HETATM   25  C13 UNL     1      18.723   3.589  50.349  1.00  0.00     0.015 C 
HETATM   26  C14 UNL     1      18.303   2.376  49.537  1.00  0.00     0.015 C 
HETATM   27  C15 UNL     1      17.649   3.856  51.376  1.00  0.00     0.015 C 
ENDBRANCH  24  25
ENDBRANCH  10  12
ENDBRANCH   5  10
TORSDOF 3
ENDMDL
MODEL 5
REMARK VINA RESULT:      -7.6      2.175      2.942
REMARK  3 active torsions:
REMARK  status: ('A' for Active; 'I' for Inactive)
REMARK    1  A    between atoms: C5_5  and  N1_6 
REMARK    2  A    between atoms: N1_6  and  C6_7 
REMARK    3  A    between atoms: C12_18  and  C13_19 
ROOT
HETATM    1  C1  UNL     1      27.137  -1.332  52.721  1.00  0.00     0.049 C 
HETATM    2  C2  UNL     1      26.489   0.002  52.643  1.00  0.00    -0.041 A 
HETATM    3  C3  UNL     1      26.794   0.862  51.603  1.00  0.00     0.010 A 
HETATM    4  C4  UNL     1      26.214   2.090  51.508  1.00  0.00     0.030 A 
HETATM    5  C5  UNL     1      25.300   2.508  52.454  1.00  0.00     0.035 A 
HETATM    6  C17 UNL     1      24.993   1.633  53.506  1.00  0.00     0.052 A 
HETATM    7  C18 UNL     1      25.587   0.368  53.609  1.00  0.00     0.052 A 
HETATM    8  C19 UNL     1      25.279  -0.546  54.687  1.00  0.00     0.100 C 
HETATM    9  N4  UNL     1      25.017  -1.281  55.534  1.00  0.00    -0.191 NA
ENDROOT
BRANCH   5  10
HETATM   10  N1  UNL     1      24.542   3.684  52.606  1.00  0.00    -0.341 N 
HETATM   11  H6  UNL     1      24.375   4.355  53.418  1.00  0.00     0.167 HD
BRANCH  10  12
HETATM   12  C6  UNL     1      23.912   3.930  51.359  1.00  0.00     0.155 C 
HETATM   13  N2  UNL     1      23.924   4.149  50.147  1.00  0.00    -0.216 NA
HETATM   14  C7  UNL     1      23.446   5.431  49.657  1.00  0.00     0.127 C 
HETATM   15  N3  UNL     1      23.075   6.240  50.637  1.00  0.00    -0.270 NA
HETATM   16  C16 UNL     1      23.312   5.160  48.201  1.00  0.00     0.123 C 
HETATM   17  C8  UNL     1      22.019   5.437  51.398  1.00  0.00     0.210 C 
HETATM   18  C9  UNL     1      22.387   3.972  51.206  1.00  0.00     0.205 C 
HETATM   19  O1  UNL     1      21.896   3.258  52.320  1.00  0.00    -0.357 OA
HETATM   20  S1  UNL     1      21.883   3.228  49.689  1.00  0.00    -0.016 SA
HETATM   21  C10 UNL     1      20.567   2.915  52.199  1.00  0.00     0.198 C 
HETATM   22  C11 UNL     1      20.305   1.935  51.054  1.00  0.00     0.211 C 
HETATM   23  O2  UNL     1      20.309   2.652  49.833  1.00  0.00    -0.322 OA
HETATM   24  C12 UNL     1      22.090   4.150  48.370  1.00  0.00    -0.014 C 
BRANCH  24  25
HETATM   25  C13 UNL     1      21.119   4.092  47.276  1.00  0.00     0.015 C 
HETATM   26  C14 UNL     1      20.351   5.401  47.242  1.00  0.00     0.015 C 
HETATM   27  C15 UNL     1      21.743   3.883  45.917  1.00  0.00     0.015 C 
ENDBRANCH  24  25
ENDBRANCH  10  12
ENDBRANCH   5  10
TORSDOF 3
ENDMDL
MODEL 6
REMARK VINA RESULT:      -7.4      2.747      4.251
REMARK  3 active torsions:
REMARK  status: ('A' for Active; 'I' for Inactive)
REMARK    1  A    between atoms: C5_5  and  N1_6 
REMARK    2  A    between atoms: N1_6  and  C6_7 
REMARK    3  A    between atoms: C12_18  and  C13_19 
ROOT
HETATM    1  C1  UNL     1      26.054  -0.860  53.344  1.00  0.00     0.049 C 
HETATM    2  C2  UNL     1      25.286   0.396  53.148  1.00  0.00    -0.041 A 
HETATM    3  C3  UNL     1      23.904   0.367  53.119  1.00  0.00     0.010 A 
HETATM    4  C4  UNL     1      23.177   1.505  52.942  1.00  0.00     0.030 A 
HETATM    5  C5  UNL     1      23.807   2.722  52.786  1.00  0.00     0.035 A 
HETATM    6  C17 UNL     1      25.209   2.747  52.816  1.00  0.00     0.052 A 
HETATM    7  C18 UNL     1      25.963   1.580  52.998  1.00  0.00     0.052 A 
HETATM    8  C19 UNL     1      27.409   1.590  53.034  1.00  0.00     0.100 C 
HETATM    9  N4  UNL     1      28.559   1.602  53.083  1.00  0.00    -0.191 NA
ENDROOT
BRANCH   5  10
HETATM   10  N1  UNL     1      23.334   4.036  52.608  1.00  0.00    -0.341 N 
HETATM   11  H6  UNL     1      23.185   4.862  53.264  1.00  0.00     0.167 HD
BRANCH  10  12
HETATM   12  C6  UNL     1      23.021   4.175  51.231  1.00  0.00     0.155 C 
HETATM   13  N2  UNL     1      22.435   3.845  50.199  1.00  0.00    -0.216 NA
HETATM   14  C7  UNL     1      23.210   3.337  49.080  1.00  0.00     0.127 C 
HETATM   15  N3  UNL     1      24.504   3.266  49.352  1.00  0.00    -0.270 NA
HETATM   16  C16 UNL     1      22.210   3.387  47.980  1.00  0.00     0.123 C 
HETATM   17  C8  UNL     1      24.874   4.692  49.762  1.00  0.00     0.210 C 
HETATM   18  C9  UNL     1      23.612   5.295  50.366  1.00  0.00     0.205 C 
HETATM   19  O1  UNL     1      24.011   6.286  51.288  1.00  0.00    -0.357 OA
HETATM   20  S1  UNL     1      22.416   5.914  49.228  1.00  0.00    -0.016 SA
HETATM   21  C10 UNL     1      24.278   7.501  50.693  1.00  0.00     0.198 C 
HETATM   22  C11 UNL     1      23.042   8.139  50.056  1.00  0.00     0.211 C 
HETATM   23  O2  UNL     1      22.790   7.502  48.817  1.00  0.00    -0.322 OA
HETATM   24  C12 UNL     1      22.156   4.979  47.928  1.00  0.00    -0.014 C 
BRANCH  24  25
HETATM   25  C13 UNL     1      21.877   5.593  46.629  1.00  0.00     0.015 C 
HETATM   26  C14 UNL     1      21.926   4.513  45.563  1.00  0.00     0.015 C 
HETATM   27  C15 UNL     1      20.527   6.265  46.549  1.00  0.00     0.015 C 
ENDBRANCH  24  25
ENDBRANCH  10  12
ENDBRANCH   5  10
TORSDOF 3
ENDMDL
MODEL 7
REMARK VINA RESULT:      -7.4      2.975      4.407
REMARK  3 active torsions:
REMARK  status: ('A' for Active; 'I' for Inactive)
REMARK    1  A    between atoms: C5_5  and  N1_6 
REMARK    2  A    between atoms: N1_6  and  C6_7 
REMARK    3  A    between atoms: C12_18  and  C13_19 
ROOT
HETATM    1  C1  UNL     1      25.574  -0.573  54.826  1.00  0.00     0.049 C 
HETATM    2  C2  UNL     1      24.893   0.087  53.683  1.00  0.00    -0.041 A 
HETATM    3  C3  UNL     1      25.616   0.873  52.804  1.00  0.00     0.010 A 
HETATM    4  C4  UNL     1      25.015   1.488  51.748  1.00  0.00     0.030 A 
HETATM    5  C5  UNL     1      23.661   1.339  51.528  1.00  0.00     0.035 A 
HETATM    6  C17 UNL     1      22.932   0.541  52.422  1.00  0.00     0.052 A 
HETATM    7  C18 UNL     1      23.544  -0.095  53.510  1.00  0.00     0.052 A 
HETATM    8  C19 UNL     1      22.806  -0.923  54.437  1.00  0.00     0.100 C 
HETATM    9  N4  UNL     1      22.221  -1.598  55.164  1.00  0.00    -0.191 NA
ENDROOT
BRANCH   5  10
HETATM   10  N1  UNL     1      22.788   1.825  50.537  1.00  0.00    -0.341 N 
HETATM   11  H6  UNL     1      21.881   1.462  50.110  1.00  0.00     0.167 HD
BRANCH  10  12
HETATM   12  C6  UNL     1      23.327   3.056  50.083  1.00  0.00     0.155 C 
HETATM   13  N2  UNL     1      24.251   3.781  49.714  1.00  0.00    -0.216 NA
HETATM   14  C7  UNL     1      24.633   4.914  50.539  1.00  0.00     0.127 C 
HETATM   15  N3  UNL     1      23.915   4.995  51.649  1.00  0.00    -0.270 NA
HETATM   16  C16 UNL     1      25.504   5.679  49.608  1.00  0.00     0.123 C 
HETATM   17  C8  UNL     1      22.470   5.053  51.150  1.00  0.00     0.210 C 
HETATM   18  C9  UNL     1      22.451   4.290  49.832  1.00  0.00     0.205 C 
HETATM   19  O1  UNL     1      21.149   3.774  49.654  1.00  0.00    -0.357 OA
HETATM   20  S1  UNL     1      22.997   5.172  48.406  1.00  0.00    -0.016 SA
HETATM   21  C10 UNL     1      20.275   4.690  49.109  1.00  0.00     0.198 C 
HETATM   22  C11 UNL     1      20.651   5.099  47.684  1.00  0.00     0.211 C 
HETATM   23  O2  UNL     1      21.712   6.035  47.745  1.00  0.00    -0.322 OA
HETATM   24  C12 UNL     1      24.314   6.092  48.630  1.00  0.00    -0.014 C 
BRANCH  24  25
HETATM   25  C13 UNL     1      24.439   7.373  47.934  1.00  0.00     0.015 C 
HETATM   26  C14 UNL     1      24.015   8.482  48.881  1.00  0.00     0.015 C 
HETATM   27  C15 UNL     1      25.841   7.676  47.461  1.00  0.00     0.015 C 
ENDBRANCH  24  25
ENDBRANCH  10  12
ENDBRANCH   5  10
TORSDOF 3
ENDMDL
MODEL 8
REMARK VINA RESULT:      -7.3      3.607      5.628
REMARK  3 active torsions:
REMARK  status: ('A' for Active; 'I' for Inactive)
REMARK    1  A    between atoms: C5_5  and  N1_6 
REMARK    2  A    between atoms: N1_6  and  C6_7 
REMARK    3  A    between atoms: C12_18  and  C13_19 
ROOT
HETATM    1  C1  UNL     1      22.656  -1.040  53.344  1.00  0.00     0.049 C 
HETATM    2  C2  UNL     1      23.087   0.342  53.013  1.00  0.00    -0.041 A 
HETATM    3  C3  UNL     1      22.153   1.288  52.632  1.00  0.00     0.010 A 
HETATM    4  C4  UNL     1      22.523   2.562  52.325  1.00  0.00     0.030 A 
HETATM    5  C5  UNL     1      23.848   2.942  52.388  1.00  0.00     0.035 A 
HETATM    6  C17 UNL     1      24.792   1.979  52.776  1.00  0.00     0.052 A 
HETATM    7  C18 UNL     1      24.418   0.667  53.093  1.00  0.00     0.052 A 
HETATM    8  C19 UNL     1      25.379  -0.335  53.496  1.00  0.00     0.100 C 
HETATM    9  N4  UNL     1      26.143  -1.127  53.837  1.00  0.00    -0.191 NA
ENDROOT
BRANCH   5  10
HETATM   10  N1  UNL     1      24.513   4.160  52.153  1.00  0.00    -0.341 N 
HETATM   11  H6  UNL     1      25.498   4.514  52.353  1.00  0.00     0.167 HD
BRANCH  10  12
HETATM   12  C6  UNL     1      23.581   5.019  51.515  1.00  0.00     0.155 C 
HETATM   13  N2  UNL     1      22.462   5.513  51.371  1.00  0.00    -0.216 NA
HETATM   14  C7  UNL     1      21.716   5.229  50.157  1.00  0.00     0.127 C 
HETATM   15  N3  UNL     1      22.365   4.410  49.345  1.00  0.00    -0.270 NA
HETATM   16  C16 UNL     1      20.632   6.245  50.232  1.00  0.00     0.123 C 
HETATM   17  C8  UNL     1      23.700   5.115  49.099  1.00  0.00     0.210 C 
HETATM   18  C9  UNL     1      23.977   5.937  50.352  1.00  0.00     0.205 C 
HETATM   19  O1  UNL     1      25.376   6.079  50.469  1.00  0.00    -0.357 OA
HETATM   20  S1  UNL     1      23.156   7.493  50.467  1.00  0.00    -0.016 SA
HETATM   21  C10 UNL     1      25.879   7.113  49.709  1.00  0.00     0.198 C 
HETATM   22  C11 UNL     1      25.381   8.486  50.163  1.00  0.00     0.211 C 
HETATM   23  O2  UNL     1      24.063   8.673  49.682  1.00  0.00    -0.322 OA
HETATM   24  C12 UNL     1      21.603   7.487  49.998  1.00  0.00    -0.014 C 
BRANCH  24  25
HETATM   25  C13 UNL     1      21.042   8.650  49.310  1.00  0.00     0.015 C 
HETATM   26  C14 UNL     1      20.852   8.300  47.844  1.00  0.00     0.015 C 
HETATM   27  C15 UNL     1      19.708   9.098  49.857  1.00  0.00     0.015 C 
ENDBRANCH  24  25
ENDBRANCH  10  12
ENDBRANCH   5  10
TORSDOF 3
ENDMDL
MODEL 9
REMARK VINA RESULT:      -7.3      2.590      6.320
REMARK  3 active torsions:
REMARK  status: ('A' for Active; 'I' for Inactive)
REMARK    1  A    between atoms: C5_5  and  N1_6 
REMARK    2  A    between atoms: N1_6  and  C6_7 
REMARK    3  A    between atoms: C12_18  and  C13_19 
ROOT
HETATM    1  C1  UNL     1      25.565   8.001  47.411  1.00  0.00     0.049 C 
HETATM    2  C2  UNL     1      24.809   7.288  48.473  1.00  0.00    -0.041 A 
HETATM    3  C3  UNL     1      23.763   6.448  48.137  1.00  0.00     0.010 A 
HETATM    4  C4  UNL     1      23.055   5.783  49.091  1.00  0.00     0.030 A 
HETATM    5  C5  UNL     1      23.368   5.932  50.426  1.00  0.00     0.035 A 
HETATM    6  C17 UNL     1      24.430   6.785  50.763  1.00  0.00     0.052 A 
HETATM    7  C18 UNL     1      25.162   7.472  49.786  1.00  0.00     0.052 A 
HETATM    8  C19 UNL     1      26.260   8.351  50.119  1.00  0.00     0.100 C 
HETATM    9  N4  UNL     1      27.148   9.036  50.383  1.00  0.00    -0.191 NA
ENDROOT
BRANCH   5  10
HETATM   10  N1  UNL     1      22.841   5.375  51.607  1.00  0.00    -0.341 N 
HETATM   11  H6  UNL     1      22.073   5.671  52.284  1.00  0.00     0.167 HD
BRANCH  10  12
HETATM   12  C6  UNL     1      23.559   4.175  51.849  1.00  0.00     0.155 C 
HETATM   13  N2  UNL     1      24.552   3.543  52.212  1.00  0.00    -0.216 NA
HETATM   14  C7  UNL     1      25.288   2.763  51.231  1.00  0.00     0.127 C 
HETATM   15  N3  UNL     1      24.778   2.871  50.014  1.00  0.00    -0.270 NA
HETATM   16  C16 UNL     1      26.153   1.928  52.107  1.00  0.00     0.123 C 
HETATM   17  C8  UNL     1      23.322   2.436  50.183  1.00  0.00     0.210 C 
HETATM   18  C9  UNL     1      22.942   2.791  51.615  1.00  0.00     0.205 C 
HETATM   19  O1  UNL     1      21.548   3.011  51.646  1.00  0.00    -0.357 OA
HETATM   20  S1  UNL     1      23.445   1.655  52.866  1.00  0.00    -0.016 SA
HETATM   21  C10 UNL     1      20.820   1.847  51.766  1.00  0.00     0.198 C 
HETATM   22  C11 UNL     1      21.057   1.130  53.097  1.00  0.00     0.211 C 
HETATM   23  O2  UNL     1      22.292   0.440  53.027  1.00  0.00    -0.322 OA
HETATM   24  C12 UNL     1      24.948   1.068  52.697  1.00  0.00    -0.014 C 
BRANCH  24  25
HETATM   25  C13 UNL     1      25.240  -0.316  53.074  1.00  0.00     0.015 C 
HETATM   26  C14 UNL     1      26.497  -0.760  52.347  1.00  0.00     0.015 C 
HETATM   27  C15 UNL     1      25.465  -0.509  54.554  1.00  0.00     0.015 C 
ENDBRANCH  24  25
ENDBRANCH  10  12
ENDBRANCH   5  10
TORSDOF 3
ENDMDL
