MODEL 1
REMARK VINA RESULT:      -8.1      0.000      0.000
REMARK  13 active torsions:
REMARK  status: ('A' for Active; 'I' for Inactive)
REMARK    1  A    between atoms: C2_2  and  C3_3 
REMARK    2  A    between atoms: C2_2  and  C13_16 
REMARK    3  A    between atoms: C4_4  and  N1_5 
REMARK    4  A    between atoms: C5_6  and  N2_7 
REMARK    5  A    between atoms: C7_9  and  C8_10 
REMARK    6  A    between atoms: C8_10  and  N3_11 
REMARK    7  A    between atoms: C17_20  and  O1_21 
REMARK    8  A    between atoms: O1_21  and  C18_22 
REMARK    9  A    between atoms: C18_22  and  C19_23 
REMARK   10  A    between atoms: C19_23  and  O2_24 
REMARK   11  A    between atoms: O2_24  and  C20_25 
REMARK   12  A    between atoms: C20_25  and  C23_28 
REMARK   13  A    between atoms: C23_28  and  C24_29 
ROOT
HETATM    1  C1  UNL     1      23.738   2.232  50.954  1.00  0.00     0.025 C 
HETATM    2  C2  UNL     1      25.012   2.529  51.037  1.00  0.00    -0.026 C 
ENDROOT
BRANCH   2   3
HETATM    3  C3  UNL     1      25.590   1.594  51.979  1.00  0.00    -0.016 C 
HETATM    4  C4  UNL     1      26.191   1.957  53.085  1.00  0.00     0.050 C 
HETATM    5  C5  UNL     1      26.712   0.578  53.178  1.00  0.00     0.205 C 
HETATM    6  C6  UNL     1      26.172  -0.348  54.169  1.00  0.00     0.055 C 
HETATM    7  C12 UNL     1      25.689   0.163  52.191  1.00  0.00     0.072 C 
HETATM    8  C7  UNL     1      24.957  -0.548  53.247  1.00  0.00     0.028 C 
BRANCH   4   9
HETATM    9  N1  UNL     1      26.757   2.655  54.170  1.00  0.00    -0.400 N 
HETATM   10  H3  UNL     1      26.357   2.791  55.121  1.00  0.00     0.156 HD
HETATM   11  H4  UNL     1      27.671   3.168  54.231  1.00  0.00     0.156 HD
ENDBRANCH   4   9
BRANCH   5  12
HETATM   12  N2  UNL     1      28.083   0.378  52.747  1.00  0.00     0.094 N 
HETATM   13  H5  UNL     1      28.026   0.083  51.740  1.00  0.00     0.314 HD
HETATM   14  H6  UNL     1      28.510  -0.360  53.322  1.00  0.00     0.314 HD
ENDBRANCH   5  12
BRANCH   8  15
HETATM   15  C8  UNL     1      23.696  -0.052  53.847  1.00  0.00     0.277 C 
BRANCH  15  16
HETATM   16  N3  UNL     1      22.504  -0.776  53.613  1.00  0.00     0.088 N 
HETATM   17  C9  UNL     1      21.406  -0.235  52.899  1.00  0.00     0.274 C 
HETATM   18  C10 UNL     1      20.462  -1.112  53.740  1.00  0.00     0.060 C 
HETATM   19  C11 UNL     1      21.630  -1.054  54.712  1.00  0.00     0.274 C 
ENDBRANCH  15  16
ENDBRANCH   8  15
ENDBRANCH   2   3
BRANCH   2  20
HETATM   20  C13 UNL     1      25.439   3.636  50.218  1.00  0.00    -0.024 A 
HETATM   21  C14 UNL     1      24.663   4.701  49.845  1.00  0.00     0.012 A 
HETATM   22  C15 UNL     1      25.030   5.773  49.071  1.00  0.00     0.004 A 
HETATM   23  C16 UNL     1      26.328   5.752  48.633  1.00  0.00     0.037 A 
HETATM   24  C17 UNL     1      27.173   4.721  48.962  1.00  0.00     0.069 A 
HETATM   25  C26 UNL     1      26.732   3.682  49.743  1.00  0.00     0.049 A 
BRANCH  24  26
HETATM   26  O1  UNL     1      28.467   4.784  48.476  1.00  0.00    -0.349 OA
BRANCH  26  27
HETATM   27  C18 UNL     1      28.968   6.021  48.038  1.00  0.00     0.201 C 
BRANCH  27  28
HETATM   28  C19 UNL     1      30.427   6.171  48.486  1.00  0.00     0.195 C 
BRANCH  28  29
HETATM   29  O2  UNL     1      31.059   4.962  48.361  1.00  0.00    -0.379 OA
BRANCH  29  30
HETATM   30  C20 UNL     1      32.345   5.030  47.831  1.00  0.00     0.053 C 
HETATM   31  C21 UNL     1      33.246   5.766  48.812  1.00  0.00     0.045 C 
HETATM   32  C22 UNL     1      32.291   5.803  46.548  1.00  0.00     0.045 C 
BRANCH  30  33
HETATM   33  C23 UNL     1      32.920   3.661  47.552  1.00  0.00     0.037 C 
BRANCH  33  34
HETATM   34  C24 UNL     1      34.443   3.710  47.579  1.00  0.00    -0.002 C 
HETATM   35  C25 UNL     1      34.977   3.330  46.220  1.00  0.00     0.005 C 
ENDBRANCH  33  34
ENDBRANCH  30  33
ENDBRANCH  29  30
ENDBRANCH  28  29
ENDBRANCH  27  28
ENDBRANCH  26  27
ENDBRANCH  24  26
ENDBRANCH   2  20
TORSDOF 13
ENDMDL
MODEL 2
REMARK VINA RESULT:      -8.0      4.983      7.534
REMARK  13 active torsions:
REMARK  status: ('A' for Active; 'I' for Inactive)
REMARK    1  A    between atoms: C2_2  and  C3_3 
REMARK    2  A    between atoms: C2_2  and  C13_16 
REMARK    3  A    between atoms: C4_4  and  N1_5 
REMARK    4  A    between atoms: C5_6  and  N2_7 
REMARK    5  A    between atoms: C7_9  and  C8_10 
REMARK    6  A    between atoms: C8_10  and  N3_11 
REMARK    7  A    between atoms: C17_20  and  O1_21 
REMARK    8  A    between atoms: O1_21  and  C18_22 
REMARK    9  A    between atoms: C18_22  and  C19_23 
REMARK   10  A    between atoms: C19_23  and  O2_24 
REMARK   11  A    between atoms: O2_24  and  C20_25 
REMARK   12  A    between atoms: C20_25  and  C23_28 
REMARK   13  A    between atoms: C23_28  and  C24_29 
ROOT
HETATM    1  C1  UNL     1      25.903   3.726  49.497  1.00  0.00     0.025 C 
HETATM    2  C2  UNL     1      24.764   4.100  50.027  1.00  0.00    -0.026 C 
ENDROOT
BRANCH   2   3
HETATM    3  C3  UNL     1      24.802   5.545  50.103  1.00  0.00    -0.016 C 
HETATM    4  C4  UNL     1      25.230   6.311  49.130  1.00  0.00     0.050 C 
HETATM    5  C5  UNL     1      25.262   7.420  50.106  1.00  0.00     0.205 C 
HETATM    6  C6  UNL     1      24.258   8.479  50.050  1.00  0.00     0.055 C 
HETATM    7  C12 UNL     1      24.401   6.612  50.999  1.00  0.00     0.072 C 
HETATM    8  C7  UNL     1      23.272   7.511  50.728  1.00  0.00     0.028 C 
BRANCH   4   9
HETATM    9  N1  UNL     1      25.736   6.844  47.928  1.00  0.00    -0.400 N 
HETATM   10  H3  UNL     1      25.254   6.914  47.008  1.00  0.00     0.156 HD
HETATM   11  H4  UNL     1      26.678   7.261  47.726  1.00  0.00     0.156 HD
ENDBRANCH   4   9
BRANCH   5  12
HETATM   12  N2  UNL     1      26.561   7.754  50.659  1.00  0.00     0.094 N 
HETATM   13  H5  UNL     1      27.177   7.964  49.833  1.00  0.00     0.314 HD
HETATM   14  H6  UNL     1      26.918   6.948  51.187  1.00  0.00     0.314 HD
ENDBRANCH   5  12
BRANCH   8  15
HETATM   15  C8  UNL     1      22.130   7.153  49.853  1.00  0.00     0.277 C 
BRANCH  15  16
HETATM   16  N3  UNL     1      21.108   6.329  50.378  1.00  0.00     0.088 N 
HETATM   17  C9  UNL     1      21.342   5.371  51.396  1.00  0.00     0.274 C 
HETATM   18  C10 UNL     1      20.205   4.514  50.813  1.00  0.00     0.060 C 
HETATM   19  C11 UNL     1      20.556   5.295  49.556  1.00  0.00     0.274 C 
ENDBRANCH  15  16
ENDBRANCH   8  15
ENDBRANCH   2   3
BRANCH   2  20
HETATM   20  C13 UNL     1      23.861   3.027  50.361  1.00  0.00    -0.024 A 
HETATM   21  C14 UNL     1      22.987   2.419  49.500  1.00  0.00     0.012 A 
HETATM   22  C15 UNL     1      22.115   1.395  49.776  1.00  0.00     0.004 A 
HETATM   23  C16 UNL     1      22.142   0.948  51.070  1.00  0.00     0.037 A 
HETATM   24  C17 UNL     1      22.989   1.503  51.998  1.00  0.00     0.069 A 
HETATM   25  C26 UNL     1      23.834   2.525  51.644  1.00  0.00     0.049 A 
BRANCH  24  26
HETATM   26  O1  UNL     1      22.948   0.986  53.280  1.00  0.00    -0.349 OA
BRANCH  26  27
HETATM   27  C18 UNL     1      23.194  -0.384  53.469  1.00  0.00     0.201 C 
BRANCH  27  28
HETATM   28  C19 UNL     1      24.693  -0.663  53.307  1.00  0.00     0.195 C 
BRANCH  28  29
HETATM   29  O2  UNL     1      25.394   0.169  54.139  1.00  0.00    -0.379 OA
BRANCH  29  30
HETATM   30  C20 UNL     1      26.615   0.606  53.631  1.00  0.00     0.053 C 
HETATM   31  C21 UNL     1      26.674   2.124  53.726  1.00  0.00     0.045 C 
HETATM   32  C22 UNL     1      26.702   0.206  52.190  1.00  0.00     0.045 C 
BRANCH  30  33
HETATM   33  C23 UNL     1      27.788   0.011  54.375  1.00  0.00     0.037 C 
BRANCH  33  34
HETATM   34  C24 UNL     1      29.088   0.299  53.633  1.00  0.00    -0.002 C 
HETATM   35  C25 UNL     1      29.951  -0.939  53.643  1.00  0.00     0.005 C 
ENDBRANCH  33  34
ENDBRANCH  30  33
ENDBRANCH  29  30
ENDBRANCH  28  29
ENDBRANCH  27  28
ENDBRANCH  26  27
ENDBRANCH  24  26
ENDBRANCH   2  20
TORSDOF 13
ENDMDL
MODEL 3
REMARK VINA RESULT:      -8.0      3.827      8.194
REMARK  13 active torsions:
REMARK  status: ('A' for Active; 'I' for Inactive)
REMARK    1  A    between atoms: C2_2  and  C3_3 
REMARK    2  A    between atoms: C2_2  and  C13_16 
REMARK    3  A    between atoms: C4_4  and  N1_5 
REMARK    4  A    between atoms: C5_6  and  N2_7 
REMARK    5  A    between atoms: C7_9  and  C8_10 
REMARK    6  A    between atoms: C8_10  and  N3_11 
REMARK    7  A    between atoms: C17_20  and  O1_21 
REMARK    8  A    between atoms: O1_21  and  C18_22 
REMARK    9  A    between atoms: C18_22  and  C19_23 
REMARK   10  A    between atoms: C19_23  and  O2_24 
REMARK   11  A    between atoms: O2_24  and  C20_25 
REMARK   12  A    between atoms: C20_25  and  C23_28 
REMARK   13  A    between atoms: C23_28  and  C24_29 
ROOT
HETATM    1  C1  UNL     1      23.353   2.755  49.218  1.00  0.00     0.025 C 
HETATM    2  C2  UNL     1      22.879   3.085  50.396  1.00  0.00    -0.026 C 
ENDROOT
BRANCH   2   3
HETATM    3  C3  UNL     1      23.153   4.495  50.569  1.00  0.00    -0.016 C 
HETATM    4  C4  UNL     1      23.466   5.037  51.720  1.00  0.00     0.050 C 
HETATM    5  C5  UNL     1      23.217   6.352  51.094  1.00  0.00     0.205 C 
HETATM    6  C6  UNL     1      24.333   7.230  50.757  1.00  0.00     0.055 C 
HETATM    7  C12 UNL     1      23.294   5.697  49.769  1.00  0.00     0.072 C 
HETATM    8  C7  UNL     1      24.585   6.352  49.518  1.00  0.00     0.028 C 
BRANCH   4   9
HETATM    9  N1  UNL     1      23.773   5.306  53.068  1.00  0.00    -0.400 N 
HETATM   10  H3  UNL     1      23.719   4.654  53.878  1.00  0.00     0.156 HD
HETATM   11  H4  UNL     1      24.106   6.197  53.513  1.00  0.00     0.156 HD
ENDBRANCH   4   9
BRANCH   5  12
HETATM   12  N2  UNL     1      21.938   6.973  51.388  1.00  0.00     0.094 N 
HETATM   13  H5  UNL     1      21.964   7.209  52.412  1.00  0.00     0.314 HD
HETATM   14  H6  UNL     1      21.186   6.302  51.185  1.00  0.00     0.314 HD
ENDBRANCH   5  12
BRANCH   8  15
HETATM   15  C8  UNL     1      25.887   5.646  49.573  1.00  0.00     0.277 C 
BRANCH  15  16
HETATM   16  N3  UNL     1      26.833   5.892  48.551  1.00  0.00     0.088 N 
HETATM   17  C9  UNL     1      28.104   5.267  48.515  1.00  0.00     0.274 C 
HETATM   18  C10 UNL     1      28.666   6.510  47.806  1.00  0.00     0.060 C 
HETATM   19  C11 UNL     1      27.479   7.168  48.491  1.00  0.00     0.274 C 
ENDBRANCH  15  16
ENDBRANCH   8  15
ENDBRANCH   2   3
BRANCH   2  20
HETATM   20  C13 UNL     1      22.262   2.009  51.132  1.00  0.00    -0.024 A 
HETATM   21  C14 UNL     1      20.917   1.779  51.236  1.00  0.00     0.012 A 
HETATM   22  C15 UNL     1      20.291   0.768  51.922  1.00  0.00     0.004 A 
HETATM   23  C16 UNL     1      21.132  -0.098  52.568  1.00  0.00     0.037 A 
HETATM   24  C17 UNL     1      22.495   0.061  52.515  1.00  0.00     0.069 A 
HETATM   25  C26 UNL     1      23.047   1.098  51.806  1.00  0.00     0.049 A 
BRANCH  24  26
HETATM   26  O1  UNL     1      23.267  -0.863  53.197  1.00  0.00    -0.349 OA
BRANCH  26  27
HETATM   27  C18 UNL     1      23.869  -0.482  54.408  1.00  0.00     0.201 C 
BRANCH  27  28
HETATM   28  C19 UNL     1      25.358  -0.852  54.378  1.00  0.00     0.195 C 
BRANCH  28  29
HETATM   29  O2  UNL     1      26.103   0.298  54.363  1.00  0.00    -0.379 OA
BRANCH  29  30
HETATM   30  C20 UNL     1      27.351   0.174  53.758  1.00  0.00     0.053 C 
HETATM   31  C21 UNL     1      27.387  -1.121  52.960  1.00  0.00     0.045 C 
HETATM   32  C22 UNL     1      28.396   0.114  54.830  1.00  0.00     0.045 C 
BRANCH  30  33
HETATM   33  C23 UNL     1      27.658   1.336  52.842  1.00  0.00     0.037 C 
BRANCH  33  34
HETATM   34  C24 UNL     1      26.763   1.291  51.609  1.00  0.00    -0.002 C 
HETATM   35  C25 UNL     1      26.469   2.700  51.156  1.00  0.00     0.005 C 
ENDBRANCH  33  34
ENDBRANCH  30  33
ENDBRANCH  29  30
ENDBRANCH  28  29
ENDBRANCH  27  28
ENDBRANCH  26  27
ENDBRANCH  24  26
ENDBRANCH   2  20
TORSDOF 13
ENDMDL
MODEL 4
REMARK VINA RESULT:      -7.9      2.330      3.794
REMARK  13 active torsions:
REMARK  status: ('A' for Active; 'I' for Inactive)
REMARK    1  A    between atoms: C2_2  and  C3_3 
REMARK    2  A    between atoms: C2_2  and  C13_16 
REMARK    3  A    between atoms: C4_4  and  N1_5 
REMARK    4  A    between atoms: C5_6  and  N2_7 
REMARK    5  A    between atoms: C7_9  and  C8_10 
REMARK    6  A    between atoms: C8_10  and  N3_11 
REMARK    7  A    between atoms: C17_20  and  O1_21 
REMARK    8  A    between atoms: O1_21  and  C18_22 
REMARK    9  A    between atoms: C18_22  and  C19_23 
REMARK   10  A    between atoms: C19_23  and  O2_24 
REMARK   11  A    between atoms: O2_24  and  C20_25 
REMARK   12  A    between atoms: C20_25  and  C23_28 
REMARK   13  A    between atoms: C23_28  and  C24_29 
ROOT
HETATM    1  C1  UNL     1      25.732   3.095  49.595  1.00  0.00     0.025 C 
HETATM    2  C2  UNL     1      25.468   4.377  49.675  1.00  0.00    -0.026 C 
ENDROOT
BRANCH   2   3
HETATM    3  C3  UNL     1      24.251   4.498  50.446  1.00  0.00    -0.016 C 
HETATM    4  C4  UNL     1      23.076   4.737  49.916  1.00  0.00     0.050 C 
HETATM    5  C5  UNL     1      22.593   5.033  51.280  1.00  0.00     0.205 C 
HETATM    6  C6  UNL     1      21.717   4.092  51.971  1.00  0.00     0.055 C 
HETATM    7  C12 UNL     1      23.794   4.354  51.816  1.00  0.00     0.072 C 
HETATM    8  C7  UNL     1      22.959   3.235  52.273  1.00  0.00     0.028 C 
BRANCH   4   9
HETATM    9  N1  UNL     1      21.987   4.990  49.059  1.00  0.00    -0.400 N 
HETATM   10  H3  UNL     1      21.568   5.909  48.812  1.00  0.00     0.156 HD
HETATM   11  H4  UNL     1      21.394   4.314  48.515  1.00  0.00     0.156 HD
ENDBRANCH   4   9
BRANCH   5  12
HETATM   12  N2  UNL     1      22.484   6.436  51.633  1.00  0.00     0.094 N 
HETATM   13  H5  UNL     1      21.530   6.550  52.060  1.00  0.00     0.314 HD
HETATM   14  H6  UNL     1      22.575   7.004  50.781  1.00  0.00     0.314 HD
ENDBRANCH   5  12
BRANCH   8  15
HETATM   15  C8  UNL     1      22.919   1.914  51.603  1.00  0.00     0.277 C 
BRANCH  15  16
HETATM   16  N3  UNL     1      23.624   0.837  52.188  1.00  0.00     0.088 N 
HETATM   17  C9  UNL     1      23.080   0.035  53.223  1.00  0.00     0.274 C 
HETATM   18  C10 UNL     1      24.503  -0.192  53.758  1.00  0.00     0.060 C 
HETATM   19  C11 UNL     1      24.754   1.114  53.023  1.00  0.00     0.274 C 
ENDBRANCH  15  16
ENDBRANCH   8  15
ENDBRANCH   2   3
BRANCH   2  20
HETATM   20  C13 UNL     1      26.412   5.240  49.008  1.00  0.00    -0.024 A 
HETATM   21  C14 UNL     1      26.126   6.455  48.446  1.00  0.00     0.012 A 
HETATM   22  C15 UNL     1      26.993   7.306  47.806  1.00  0.00     0.004 A 
HETATM   23  C16 UNL     1      28.288   6.865  47.735  1.00  0.00     0.037 A 
HETATM   24  C17 UNL     1      28.659   5.658  48.273  1.00  0.00     0.069 A 
HETATM   25  C26 UNL     1      27.733   4.862  48.900  1.00  0.00     0.049 A 
BRANCH  24  26
HETATM   26  O1  UNL     1      29.988   5.295  48.155  1.00  0.00    -0.349 OA
BRANCH  26  27
HETATM   27  C18 UNL     1      30.961   6.049  48.832  1.00  0.00     0.201 C 
BRANCH  27  28
HETATM   28  C19 UNL     1      32.353   5.483  48.525  1.00  0.00     0.195 C 
BRANCH  28  29
HETATM   29  O2  UNL     1      32.255   4.128  48.346  1.00  0.00    -0.379 OA
BRANCH  29  30
HETATM   30  C20 UNL     1      33.184   3.589  47.459  1.00  0.00     0.053 C 
HETATM   31  C21 UNL     1      34.576   4.060  47.857  1.00  0.00     0.045 C 
HETATM   32  C22 UNL     1      32.876   4.094  46.083  1.00  0.00     0.045 C 
BRANCH  30  33
HETATM   33  C23 UNL     1      33.149   2.080  47.446  1.00  0.00     0.037 C 
BRANCH  33  34
HETATM   34  C24 UNL     1      31.954   1.584  46.641  1.00  0.00    -0.002 C 
HETATM   35  C25 UNL     1      31.932   0.075  46.661  1.00  0.00     0.005 C 
ENDBRANCH  33  34
ENDBRANCH  30  33
ENDBRANCH  29  30
ENDBRANCH  28  29
ENDBRANCH  27  28
ENDBRANCH  26  27
ENDBRANCH  24  26
ENDBRANCH   2  20
TORSDOF 13
ENDMDL
MODEL 5
REMARK VINA RESULT:      -7.9      4.874      9.018
REMARK  13 active torsions:
REMARK  status: ('A' for Active; 'I' for Inactive)
REMARK    1  A    between atoms: C2_2  and  C3_3 
REMARK    2  A    between atoms: C2_2  and  C13_16 
REMARK    3  A    between atoms: C4_4  and  N1_5 
REMARK    4  A    between atoms: C5_6  and  N2_7 
REMARK    5  A    between atoms: C7_9  and  C8_10 
REMARK    6  A    between atoms: C8_10  and  N3_11 
REMARK    7  A    between atoms: C17_20  and  O1_21 
REMARK    8  A    between atoms: O1_21  and  C18_22 
REMARK    9  A    between atoms: C18_22  and  C19_23 
REMARK   10  A    between atoms: C19_23  and  O2_24 
REMARK   11  A    between atoms: O2_24  and  C20_25 
REMARK   12  A    between atoms: C20_25  and  C23_28 
REMARK   13  A    between atoms: C23_28  and  C24_29 
ROOT
HETATM    1  C1  UNL     1      26.534   3.139  49.699  1.00  0.00     0.025 C 
HETATM    2  C2  UNL     1      25.644   3.140  50.662  1.00  0.00    -0.026 C 
ENDROOT
BRANCH   2   3
HETATM    3  C3  UNL     1      24.917   4.386  50.547  1.00  0.00    -0.016 C 
HETATM    4  C4  UNL     1      25.476   5.524  50.215  1.00  0.00     0.050 C 
HETATM    5  C5  UNL     1      24.237   6.189  50.667  1.00  0.00     0.205 C 
HETATM    6  C6  UNL     1      23.304   6.747  49.693  1.00  0.00     0.055 C 
HETATM    7  C12 UNL     1      23.554   4.877  50.613  1.00  0.00     0.072 C 
HETATM    8  C7  UNL     1      22.798   5.317  49.433  1.00  0.00     0.028 C 
BRANCH   4   9
HETATM    9  N1  UNL     1      26.354   6.560  49.840  1.00  0.00    -0.400 N 
HETATM   10  H3  UNL     1      27.305   6.474  49.426  1.00  0.00     0.156 HD
HETATM   11  H4  UNL     1      26.227   7.600  49.906  1.00  0.00     0.156 HD
ENDBRANCH   4   9
BRANCH   5  12
HETATM   12  N2  UNL     1      24.277   6.796  51.985  1.00  0.00     0.094 N 
HETATM   13  H5  UNL     1      23.287   6.777  52.338  1.00  0.00     0.314 HD
HETATM   14  H6  UNL     1      24.616   7.763  51.898  1.00  0.00     0.314 HD
ENDBRANCH   5  12
BRANCH   8  15
HETATM   15  C8  UNL     1      23.082   4.852  48.056  1.00  0.00     0.277 C 
BRANCH  15  16
HETATM   16  N3  UNL     1      22.084   5.011  47.067  1.00  0.00     0.088 N 
HETATM   17  C9  UNL     1      21.897   4.088  46.009  1.00  0.00     0.274 C 
HETATM   18  C10 UNL     1      21.390   5.242  45.128  1.00  0.00     0.060 C 
HETATM   19  C11 UNL     1      22.219   6.061  46.104  1.00  0.00     0.274 C 
ENDBRANCH  15  16
ENDBRANCH   8  15
ENDBRANCH   2   3
BRANCH   2  20
HETATM   20  C13 UNL     1      25.653   1.971  51.507  1.00  0.00    -0.024 A 
HETATM   21  C14 UNL     1      26.636   1.020  51.546  1.00  0.00     0.012 A 
HETATM   22  C15 UNL     1      26.683  -0.103  52.334  1.00  0.00     0.004 A 
HETATM   23  C16 UNL     1      25.610  -0.267  53.170  1.00  0.00     0.037 A 
HETATM   24  C17 UNL     1      24.581   0.641  53.194  1.00  0.00     0.069 A 
HETATM   25  C26 UNL     1      24.606   1.742  52.374  1.00  0.00     0.049 A 
BRANCH  24  26
HETATM   26  O1  UNL     1      23.540   0.395  54.070  1.00  0.00    -0.349 OA
BRANCH  26  27
HETATM   27  C18 UNL     1      22.913  -0.862  54.044  1.00  0.00     0.201 C 
BRANCH  27  28
HETATM   28  C19 UNL     1      21.841  -0.878  52.948  1.00  0.00     0.195 C 
BRANCH  28  29
HETATM   29  O2  UNL     1      21.009   0.197  53.121  1.00  0.00    -0.379 OA
BRANCH  29  30
HETATM   30  C20 UNL     1      20.703   0.890  51.953  1.00  0.00     0.053 C 
HETATM   31  C21 UNL     1      20.958   2.373  52.177  1.00  0.00     0.045 C 
HETATM   32  C22 UNL     1      19.250   0.689  51.647  1.00  0.00     0.045 C 
BRANCH  30  33
HETATM   33  C23 UNL     1      21.520   0.413  50.776  1.00  0.00     0.037 C 
BRANCH  33  34
HETATM   34  C24 UNL     1      21.980   1.598  49.934  1.00  0.00    -0.002 C 
HETATM   35  C25 UNL     1      21.597   1.364  48.493  1.00  0.00     0.005 C 
ENDBRANCH  33  34
ENDBRANCH  30  33
ENDBRANCH  29  30
ENDBRANCH  28  29
ENDBRANCH  27  28
ENDBRANCH  26  27
ENDBRANCH  24  26
ENDBRANCH   2  20
TORSDOF 13
ENDMDL
MODEL 6
REMARK VINA RESULT:      -7.8      5.228      8.553
REMARK  13 active torsions:
REMARK  status: ('A' for Active; 'I' for Inactive)
REMARK    1  A    between atoms: C2_2  and  C3_3 
REMARK    2  A    between atoms: C2_2  and  C13_16 
REMARK    3  A    between atoms: C4_4  and  N1_5 
REMARK    4  A    between atoms: C5_6  and  N2_7 
REMARK    5  A    between atoms: C7_9  and  C8_10 
REMARK    6  A    between atoms: C8_10  and  N3_11 
REMARK    7  A    between atoms: C17_20  and  O1_21 
REMARK    8  A    between atoms: O1_21  and  C18_22 
REMARK    9  A    between atoms: C18_22  and  C19_23 
REMARK   10  A    between atoms: C19_23  and  O2_24 
REMARK   11  A    between atoms: O2_24  and  C20_25 
REMARK   12  A    between atoms: C20_25  and  C23_28 
REMARK   13  A    between atoms: C23_28  and  C24_29 
ROOT
HETATM    1  C1  UNL     1      24.162  -0.638  54.188  1.00  0.00     0.025 C 
HETATM    2  C2  UNL     1      23.544   0.113  53.308  1.00  0.00    -0.026 C 
ENDROOT
BRANCH   2   3
HETATM    3  C3  UNL     1      24.554   0.962  52.713  1.00  0.00    -0.016 C 
HETATM    4  C4  UNL     1      24.678   2.239  52.981  1.00  0.00     0.050 C 
HETATM    5  C5  UNL     1      25.569   2.332  51.806  1.00  0.00     0.205 C 
HETATM    6  C6  UNL     1      27.008   2.497  51.985  1.00  0.00     0.055 C 
HETATM    7  C12 UNL     1      25.705   0.858  51.836  1.00  0.00     0.072 C 
HETATM    8  C7  UNL     1      27.090   0.993  52.305  1.00  0.00     0.028 C 
BRANCH   4   9
HETATM    9  N1  UNL     1      24.552   3.553  53.473  1.00  0.00    -0.400 N 
HETATM   10  H3  UNL     1      23.716   4.172  53.436  1.00  0.00     0.156 HD
HETATM   11  H4  UNL     1      25.262   4.155  53.960  1.00  0.00     0.156 HD
ENDBRANCH   4   9
BRANCH   5  12
HETATM   12  N2  UNL     1      24.977   2.860  50.591  1.00  0.00     0.094 N 
HETATM   13  H5  UNL     1      25.779   3.236  50.023  1.00  0.00     0.314 HD
HETATM   14  H6  UNL     1      24.319   3.609  50.837  1.00  0.00     0.314 HD
ENDBRANCH   5  12
BRANCH   8  15
HETATM   15  C8  UNL     1      27.514   0.728  53.700  1.00  0.00     0.277 C 
BRANCH  15  16
HETATM   16  N3  UNL     1      28.342  -0.389  53.954  1.00  0.00     0.088 N 
HETATM   17  C9  UNL     1      29.746  -0.363  53.763  1.00  0.00     0.274 C 
HETATM   18  C10 UNL     1      29.704  -1.866  53.441  1.00  0.00     0.060 C 
HETATM   19  C11 UNL     1      28.264  -1.527  53.088  1.00  0.00     0.274 C 
ENDBRANCH  15  16
ENDBRANCH   8  15
ENDBRANCH   2   3
BRANCH   2  20
HETATM   20  C13 UNL     1      22.124  -0.112  53.199  1.00  0.00    -0.024 A 
HETATM   21  C14 UNL     1      21.377  -0.918  54.015  1.00  0.00     0.012 A 
HETATM   22  C15 UNL     1      20.027  -1.156  53.947  1.00  0.00     0.004 A 
HETATM   23  C16 UNL     1      19.374  -0.499  52.938  1.00  0.00     0.037 A 
HETATM   24  C17 UNL     1      20.049   0.330  52.075  1.00  0.00     0.069 A 
HETATM   25  C26 UNL     1      21.402   0.518  52.208  1.00  0.00     0.049 A 
BRANCH  24  26
HETATM   26  O1  UNL     1      19.308   0.953  51.088  1.00  0.00    -0.349 OA
BRANCH  26  27
HETATM   27  C18 UNL     1      18.343   1.903  51.460  1.00  0.00     0.201 C 
BRANCH  27  28
HETATM   28  C19 UNL     1      19.022   3.257  51.701  1.00  0.00     0.195 C 
BRANCH  28  29
HETATM   29  O2  UNL     1      19.036   3.964  50.528  1.00  0.00    -0.379 OA
BRANCH  29  30
HETATM   30  C20 UNL     1      20.304   4.324  50.080  1.00  0.00     0.053 C 
HETATM   31  C21 UNL     1      21.313   4.056  51.187  1.00  0.00     0.045 C 
HETATM   32  C22 UNL     1      20.302   5.790  49.769  1.00  0.00     0.045 C 
BRANCH  30  33
HETATM   33  C23 UNL     1      20.707   3.563  48.839  1.00  0.00     0.037 C 
BRANCH  33  34
HETATM   34  C24 UNL     1      21.861   2.616  49.149  1.00  0.00    -0.002 C 
HETATM   35  C25 UNL     1      21.590   1.276  48.509  1.00  0.00     0.005 C 
ENDBRANCH  33  34
ENDBRANCH  30  33
ENDBRANCH  29  30
ENDBRANCH  28  29
ENDBRANCH  27  28
ENDBRANCH  26  27
ENDBRANCH  24  26
ENDBRANCH   2  20
TORSDOF 13
ENDMDL
MODEL 7
REMARK VINA RESULT:      -7.8      4.088      9.594
REMARK  13 active torsions:
REMARK  status: ('A' for Active; 'I' for Inactive)
REMARK    1  A    between atoms: C2_2  and  C3_3 
REMARK    2  A    between atoms: C2_2  and  C13_16 
REMARK    3  A    between atoms: C4_4  and  N1_5 
REMARK    4  A    between atoms: C5_6  and  N2_7 
REMARK    5  A    between atoms: C7_9  and  C8_10 
REMARK    6  A    between atoms: C8_10  and  N3_11 
REMARK    7  A    between atoms: C17_20  and  O1_21 
REMARK    8  A    between atoms: O1_21  and  C18_22 
REMARK    9  A    between atoms: C18_22  and  C19_23 
REMARK   10  A    between atoms: C19_23  and  O2_24 
REMARK   11  A    between atoms: O2_24  and  C20_25 
REMARK   12  A    between atoms: C20_25  and  C23_28 
REMARK   13  A    between atoms: C23_28  and  C24_29 
ROOT
HETATM    1  C1  UNL     1      30.268   5.096  47.789  1.00  0.00     0.025 C 
HETATM    2  C2  UNL     1      29.772   6.300  47.946  1.00  0.00    -0.026 C 
ENDROOT
BRANCH   2   3
HETATM    3  C3  UNL     1      30.887   7.218  47.858  1.00  0.00    -0.016 C 
HETATM    4  C4  UNL     1      31.226   8.041  48.819  1.00  0.00     0.050 C 
HETATM    5  C5  UNL     1      32.082   8.734  47.834  1.00  0.00     0.205 C 
HETATM    6  C6  UNL     1      33.535   8.595  47.895  1.00  0.00     0.055 C 
HETATM    7  C12 UNL     1      31.977   7.545  46.958  1.00  0.00     0.072 C 
HETATM    8  C7  UNL     1      33.379   7.212  47.237  1.00  0.00     0.028 C 
BRANCH   4   9
HETATM    9  N1  UNL     1      31.333   8.784  50.011  1.00  0.00    -0.400 N 
HETATM   10  H3  UNL     1      31.630   9.775  50.122  1.00  0.00     0.156 HD
HETATM   11  H4  UNL     1      31.142   8.490  51.001  1.00  0.00     0.156 HD
ENDBRANCH   4   9
BRANCH   5  12
HETATM   12  N2  UNL     1      31.547   9.955  47.263  1.00  0.00     0.094 N 
HETATM   13  H5  UNL     1      31.929  10.004  46.285  1.00  0.00     0.314 HD
HETATM   14  H6  UNL     1      31.869  10.756  47.822  1.00  0.00     0.314 HD
ENDBRANCH   5  12
BRANCH   8  15
HETATM   15  C8  UNL     1      33.798   6.105  48.128  1.00  0.00     0.277 C 
BRANCH  15  16
HETATM   16  N3  UNL     1      33.868   4.797  47.596  1.00  0.00     0.088 N 
HETATM   17  C9  UNL     1      34.911   3.892  47.916  1.00  0.00     0.274 C 
HETATM   18  C10 UNL     1      34.750   3.256  46.525  1.00  0.00     0.060 C 
HETATM   19  C11 UNL     1      34.171   4.625  46.207  1.00  0.00     0.274 C 
ENDBRANCH  15  16
ENDBRANCH   8  15
ENDBRANCH   2   3
BRANCH   2  20
HETATM   20  C13 UNL     1      28.345   6.353  48.151  1.00  0.00    -0.024 A 
HETATM   21  C14 UNL     1      27.539   7.428  47.887  1.00  0.00     0.012 A 
HETATM   22  C15 UNL     1      26.181   7.519  48.065  1.00  0.00     0.004 A 
HETATM   23  C16 UNL     1      25.587   6.390  48.565  1.00  0.00     0.037 A 
HETATM   24  C17 UNL     1      26.323   5.268  48.856  1.00  0.00     0.069 A 
HETATM   25  C26 UNL     1      27.680   5.254  48.650  1.00  0.00     0.049 A 
BRANCH  24  26
HETATM   26  O1  UNL     1      25.639   4.175  49.356  1.00  0.00    -0.349 OA
BRANCH  26  27
HETATM   27  C18 UNL     1      26.359   3.013  49.681  1.00  0.00     0.201 C 
BRANCH  27  28
HETATM   28  C19 UNL     1      26.052   2.608  51.128  1.00  0.00     0.195 C 
BRANCH  28  29
HETATM   29  O2  UNL     1      27.212   2.200  51.733  1.00  0.00    -0.379 OA
BRANCH  29  30
HETATM   30  C20 UNL     1      27.033   1.348  52.820  1.00  0.00     0.053 C 
HETATM   31  C21 UNL     1      26.354   0.073  52.342  1.00  0.00     0.045 C 
HETATM   32  C22 UNL     1      26.144   2.028  53.816  1.00  0.00     0.045 C 
BRANCH  30  33
HETATM   33  C23 UNL     1      28.340   0.999  53.491  1.00  0.00     0.037 C 
BRANCH  33  34
HETATM   34  C24 UNL     1      28.535  -0.513  53.521  1.00  0.00    -0.002 C 
HETATM   35  C25 UNL     1      30.011  -0.825  53.523  1.00  0.00     0.005 C 
ENDBRANCH  33  34
ENDBRANCH  30  33
ENDBRANCH  29  30
ENDBRANCH  28  29
ENDBRANCH  27  28
ENDBRANCH  26  27
ENDBRANCH  24  26
ENDBRANCH   2  20
TORSDOF 13
ENDMDL
MODEL 8
REMARK VINA RESULT:      -7.7      3.299      5.984
REMARK  13 active torsions:
REMARK  status: ('A' for Active; 'I' for Inactive)
REMARK    1  A    between atoms: C2_2  and  C3_3 
REMARK    2  A    between atoms: C2_2  and  C13_16 
REMARK    3  A    between atoms: C4_4  and  N1_5 
REMARK    4  A    between atoms: C5_6  and  N2_7 
REMARK    5  A    between atoms: C7_9  and  C8_10 
REMARK    6  A    between atoms: C8_10  and  N3_11 
REMARK    7  A    between atoms: C17_20  and  O1_21 
REMARK    8  A    between atoms: O1_21  and  C18_22 
REMARK    9  A    between atoms: C18_22  and  C19_23 
REMARK   10  A    between atoms: C19_23  and  O2_24 
REMARK   11  A    between atoms: O2_24  and  C20_25 
REMARK   12  A    between atoms: C20_25  and  C23_28 
REMARK   13  A    between atoms: C23_28  and  C24_29 
ROOT
HETATM    1  C1  UNL     1      24.135   2.181  50.918  1.00  0.00     0.025 C 
HETATM    2  C2  UNL     1      25.394   2.523  51.051  1.00  0.00    -0.026 C 
ENDROOT
BRANCH   2   3
HETATM    3  C3  UNL     1      25.979   1.579  51.978  1.00  0.00    -0.016 C 
HETATM    4  C4  UNL     1      26.586   1.931  53.085  1.00  0.00     0.050 C 
HETATM    5  C5  UNL     1      27.110   0.551  53.160  1.00  0.00     0.205 C 
HETATM    6  C6  UNL     1      26.577  -0.386  54.144  1.00  0.00     0.055 C 
HETATM    7  C12 UNL     1      26.082   0.145  52.175  1.00  0.00     0.072 C 
HETATM    8  C7  UNL     1      25.356  -0.578  53.227  1.00  0.00     0.028 C 
BRANCH   4   9
HETATM    9  N1  UNL     1      27.157   2.617  54.174  1.00  0.00    -0.400 N 
HETATM   10  H3  UNL     1      26.673   3.007  55.009  1.00  0.00     0.156 HD
HETATM   11  H4  UNL     1      28.161   2.870  54.353  1.00  0.00     0.156 HD
ENDBRANCH   4   9
BRANCH   5  12
HETATM   12  N2  UNL     1      28.479   0.358  52.719  1.00  0.00     0.094 N 
HETATM   13  H5  UNL     1      28.665  -0.673  52.807  1.00  0.00     0.314 HD
HETATM   14  H6  UNL     1      29.106   0.898  53.329  1.00  0.00     0.314 HD
ENDBRANCH   5  12
BRANCH   8  15
HETATM   15  C8  UNL     1      24.099  -0.091  53.840  1.00  0.00     0.277 C 
BRANCH  15  16
HETATM   16  N3  UNL     1      22.972  -0.945  53.844  1.00  0.00     0.088 N 
HETATM   17  C9  UNL     1      21.842  -0.730  53.016  1.00  0.00     0.274 C 
HETATM   18  C10 UNL     1      20.963  -1.393  54.090  1.00  0.00     0.060 C 
HETATM   19  C11 UNL     1      22.110  -0.957  54.987  1.00  0.00     0.274 C 
ENDBRANCH  15  16
ENDBRANCH   8  15
ENDBRANCH   2   3
BRANCH   2  20
HETATM   20  C13 UNL     1      25.802   3.673  50.283  1.00  0.00    -0.024 A 
HETATM   21  C14 UNL     1      26.871   3.727  49.430  1.00  0.00     0.012 A 
HETATM   22  C15 UNL     1      27.291   4.797  48.680  1.00  0.00     0.004 A 
HETATM   23  C16 UNL     1      26.535   5.931  48.819  1.00  0.00     0.037 A 
HETATM   24  C17 UNL     1      25.445   5.962  49.654  1.00  0.00     0.069 A 
HETATM   25  C26 UNL     1      25.087   4.848  50.372  1.00  0.00     0.049 A 
BRANCH  24  26
HETATM   26  O1  UNL     1      24.740   7.149  49.730  1.00  0.00    -0.349 OA
BRANCH  26  27
HETATM   27  C18 UNL     1      23.977   7.415  50.879  1.00  0.00     0.201 C 
BRANCH  27  28
HETATM   28  C19 UNL     1      22.515   7.650  50.481  1.00  0.00     0.195 C 
BRANCH  28  29
HETATM   29  O2  UNL     1      21.815   6.484  50.644  1.00  0.00    -0.379 OA
BRANCH  29  30
HETATM   30  C20 UNL     1      21.203   6.006  49.487  1.00  0.00     0.053 C 
HETATM   31  C21 UNL     1      21.701   6.812  48.296  1.00  0.00     0.045 C 
HETATM   32  C22 UNL     1      19.723   6.197  49.618  1.00  0.00     0.045 C 
BRANCH  30  33
HETATM   33  C23 UNL     1      21.488   4.541  49.256  1.00  0.00     0.037 C 
BRANCH  33  34
HETATM   34  C24 UNL     1      22.387   4.361  48.039  1.00  0.00    -0.002 C 
HETATM   35  C25 UNL     1      22.553   2.887  47.756  1.00  0.00     0.005 C 
ENDBRANCH  33  34
ENDBRANCH  30  33
ENDBRANCH  29  30
ENDBRANCH  28  29
ENDBRANCH  27  28
ENDBRANCH  26  27
ENDBRANCH  24  26
ENDBRANCH   2  20
TORSDOF 13
ENDMDL
MODEL 9
REMARK VINA RESULT:      -7.7      3.857      9.403
REMARK  13 active torsions:
REMARK  status: ('A' for Active; 'I' for Inactive)
REMARK    1  A    between atoms: C2_2  and  C3_3 
REMARK    2  A    between atoms: C2_2  and  C13_16 
REMARK    3  A    between atoms: C4_4  and  N1_5 
REMARK    4  A    between atoms: C5_6  and  N2_7 
REMARK    5  A    between atoms: C7_9  and  C8_10 
REMARK    6  A    between atoms: C8_10  and  N3_11 
REMARK    7  A    between atoms: C17_20  and  O1_21 
REMARK    8  A    between atoms: O1_21  and  C18_22 
REMARK    9  A    between atoms: C18_22  and  C19_23 
REMARK   10  A    between atoms: C19_23  and  O2_24 
REMARK   11  A    between atoms: O2_24  and  C20_25 
REMARK   12  A    between atoms: C20_25  and  C23_28 
REMARK   13  A    between atoms: C23_28  and  C24_29 
ROOT
HETATM    1  C1  UNL     1      29.208   5.845  47.882  1.00  0.00     0.025 C 
HETATM    2  C2  UNL     1      28.297   6.690  48.302  1.00  0.00    -0.026 C 
ENDROOT
BRANCH   2   3
HETATM    3  C3  UNL     1      28.941   7.983  48.378  1.00  0.00    -0.016 C 
HETATM    4  C4  UNL     1      28.691   8.864  49.316  1.00  0.00     0.050 C 
HETATM    5  C5  UNL     1      29.402   9.856  48.483  1.00  0.00     0.205 C 
HETATM    6  C6  UNL     1      30.732  10.321  48.867  1.00  0.00     0.055 C 
HETATM    7  C12 UNL     1      29.985   8.736  47.710  1.00  0.00     0.072 C 
HETATM    8  C7  UNL     1      31.298   9.002  48.311  1.00  0.00     0.028 C 
BRANCH   4   9
HETATM    9  N1  UNL     1      28.213   9.574  50.435  1.00  0.00    -0.400 N 
HETATM   10  H3  UNL     1      27.613   9.220  51.208  1.00  0.00     0.156 HD
HETATM   11  H4  UNL     1      28.362  10.579  50.702  1.00  0.00     0.156 HD
ENDBRANCH   4   9
BRANCH   5  12
HETATM   12  N2  UNL     1      28.572  10.758  47.708  1.00  0.00     0.094 N 
HETATM   13  H5  UNL     1      29.201  11.161  46.968  1.00  0.00     0.314 HD
HETATM   14  H6  UNL     1      28.213  11.497  48.326  1.00  0.00     0.314 HD
ENDBRANCH   5  12
BRANCH   8  15
HETATM   15  C8  UNL     1      31.906   8.152  49.363  1.00  0.00     0.277 C 
BRANCH  15  16
HETATM   16  N3  UNL     1      32.905   7.224  48.990  1.00  0.00     0.088 N 
HETATM   17  C9  UNL     1      33.401   7.121  47.667  1.00  0.00     0.274 C 
HETATM   18  C10 UNL     1      33.667   5.626  47.912  1.00  0.00     0.060 C 
HETATM   19  C11 UNL     1      32.585   5.829  48.959  1.00  0.00     0.274 C 
ENDBRANCH  15  16
ENDBRANCH   8  15
ENDBRANCH   2   3
BRANCH   2  20
HETATM   20  C13 UNL     1      26.998   6.116  48.554  1.00  0.00    -0.024 A 
HETATM   21  C14 UNL     1      25.795   6.720  48.309  1.00  0.00     0.012 A 
HETATM   22  C15 UNL     1      24.540   6.209  48.531  1.00  0.00     0.004 A 
HETATM   23  C16 UNL     1      24.517   4.946  49.060  1.00  0.00     0.037 A 
HETATM   24  C17 UNL     1      25.679   4.268  49.336  1.00  0.00     0.069 A 
HETATM   25  C26 UNL     1      26.898   4.847  49.085  1.00  0.00     0.049 A 
BRANCH  24  26
HETATM   26  O1  UNL     1      25.559   2.997  49.867  1.00  0.00    -0.349 OA
BRANCH  26  27
HETATM   27  C18 UNL     1      25.757   2.815  51.245  1.00  0.00     0.201 C 
BRANCH  27  28
HETATM   28  C19 UNL     1      26.419   1.454  51.493  1.00  0.00     0.195 C 
BRANCH  28  29
HETATM   29  O2  UNL     1      26.929   1.430  52.764  1.00  0.00    -0.379 OA
BRANCH  29  30
HETATM   30  C20 UNL     1      26.823   0.202  53.412  1.00  0.00     0.053 C 
HETATM   31  C21 UNL     1      26.785  -0.904  52.368  1.00  0.00     0.045 C 
HETATM   32  C22 UNL     1      25.540   0.182  54.187  1.00  0.00     0.045 C 
BRANCH  30  33
HETATM   33  C23 UNL     1      27.971  -0.043  54.361  1.00  0.00     0.037 C 
BRANCH  33  34
HETATM   34  C24 UNL     1      29.302   0.184  53.654  1.00  0.00    -0.002 C 
HETATM   35  C25 UNL     1      30.142  -1.066  53.761  1.00  0.00     0.005 C 
ENDBRANCH  33  34
ENDBRANCH  30  33
ENDBRANCH  29  30
ENDBRANCH  28  29
ENDBRANCH  27  28
ENDBRANCH  26  27
ENDBRANCH  24  26
ENDBRANCH   2  20
TORSDOF 13
ENDMDL
