MODEL 1
REMARK VINA RESULT:      -7.3      0.000      0.000
REMARK  4 active torsions:
REMARK  status: ('A' for Active; 'I' for Inactive)
REMARK    1  A    between atoms: N1_1  and  C1_2 
REMARK    2  A    between atoms: C4_7  and  N4_8 
REMARK    3  A    between atoms: N4_8  and  C5_9 
REMARK    4  A    between atoms: P1_18  and  N5_19 
ROOT
HETATM    1  C1  UNL     1      26.806  -0.575  54.079  1.00  0.00     0.316 C 
HETATM    2  C2  UNL     1      25.922  -0.071  52.995  1.00  0.00     0.057 C 
HETATM    3  N2  UNL     1      24.633   0.097  52.739  1.00  0.00    -0.248 NA
HETATM    4  C3  UNL     1      23.993   1.385  52.497  1.00  0.00     0.229 C 
HETATM    5  N3  UNL     1      24.477   2.412  51.840  1.00  0.00    -0.253 NA
HETATM    6  C4  UNL     1      25.853   2.873  51.663  1.00  0.00     0.237 C 
HETATM    7  C11 UNL     1      26.808   1.918  52.303  1.00  0.00    -0.029 C 
HETATM    8  C12 UNL     1      27.693   2.165  53.297  1.00  0.00     0.037 C 
HETATM    9  P1  UNL     1      28.205   0.652  54.245  1.00  0.00     0.040 P 
HETATM   10  C13 UNL     1      26.759   0.461  51.838  1.00  0.00     0.095 C 
ENDROOT
BRANCH   6  11
HETATM   11  N4  UNL     1      26.078   2.919  50.231  1.00  0.00    -0.364 N 
HETATM   12  H6  UNL     1      26.121   2.043  49.655  1.00  0.00     0.162 HD
BRANCH  11  13
HETATM   13  C5  UNL     1      26.245   4.141  49.564  1.00  0.00     0.031 A 
HETATM   14  C6  UNL     1      25.200   5.017  49.322  1.00  0.00     0.029 A 
HETATM   15  C7  UNL     1      25.346   6.236  48.661  1.00  0.00     0.004 A 
HETATM   16  C8  UNL     1      26.594   6.611  48.213  1.00  0.00     0.019 A 
HETATM   17  C9  UNL     1      27.683   5.775  48.426  1.00  0.00     0.013 A 
HETATM   18 BR1  UNL     1      29.404   6.295  47.806  1.00  0.00    -0.051 Br
HETATM   19  C10 UNL     1      27.454   4.592  49.084  1.00  0.00     0.048 A 
ENDBRANCH  11  13
ENDBRANCH   6  11
BRANCH   9  20
HETATM   20  N5  UNL     1      29.613  -0.038  53.413  1.00  0.00    -0.402 N 
HETATM   21  H12 UNL     1      30.325  -0.455  54.017  1.00  0.00     0.155 HD
HETATM   22  H13 UNL     1      29.964   0.517  52.605  1.00  0.00     0.155 HD
ENDBRANCH   9  20
BRANCH   1  23
HETATM   23  N1  UNL     1      26.056  -0.565  55.339  1.00  0.00     0.094 N 
HETATM   24  H1  UNL     1      25.229  -1.206  55.232  1.00  0.00     0.314 HD
HETATM   25  H2  UNL     1      25.668   0.378  55.542  1.00  0.00     0.314 HD
ENDBRANCH   1  23
TORSDOF 4
ENDMDL
MODEL 2
REMARK VINA RESULT:      -7.3      4.396      5.905
REMARK  4 active torsions:
REMARK  status: ('A' for Active; 'I' for Inactive)
REMARK    1  A    between atoms: N1_1  and  C1_2 
REMARK    2  A    between atoms: C4_7  and  N4_8 
REMARK    3  A    between atoms: N4_8  and  C5_9 
REMARK    4  A    between atoms: P1_18  and  N5_19 
ROOT
HETATM    1  C1  UNL     1      28.921  -0.308  54.035  1.00  0.00     0.316 C 
HETATM    2  C2  UNL     1      27.619   0.301  54.414  1.00  0.00     0.057 C 
HETATM    3  N2  UNL     1      27.099   1.490  54.678  1.00  0.00    -0.248 NA
HETATM    4  C3  UNL     1      26.037   2.125  53.906  1.00  0.00     0.229 C 
HETATM    5  N3  UNL     1      24.993   1.553  53.355  1.00  0.00    -0.253 NA
HETATM    6  C4  UNL     1      24.814   0.208  52.811  1.00  0.00     0.237 C 
HETATM    7  C11 UNL     1      26.046  -0.610  53.030  1.00  0.00    -0.029 C 
HETATM    8  C12 UNL     1      26.832  -1.197  52.098  1.00  0.00     0.037 C 
HETATM    9  P1  UNL     1      28.562  -1.543  52.680  1.00  0.00     0.040 P 
HETATM   10  C13 UNL     1      26.535  -0.768  54.472  1.00  0.00     0.095 C 
ENDROOT
BRANCH   6  11
HETATM   11  N4  UNL     1      23.697  -0.370  53.535  1.00  0.00    -0.364 N 
HETATM   12  H6  UNL     1      23.841  -0.916  54.419  1.00  0.00     0.162 HD
BRANCH  11  13
HETATM   13  C5  UNL     1      22.381  -0.216  53.076  1.00  0.00     0.031 A 
HETATM   14  C6  UNL     1      21.274  -0.572  53.827  1.00  0.00     0.029 A 
HETATM   15  C7  UNL     1      19.959  -0.428  53.389  1.00  0.00     0.004 A 
HETATM   16  C8  UNL     1      19.722   0.099  52.137  1.00  0.00     0.019 A 
HETATM   17  C9  UNL     1      20.793   0.476  51.335  1.00  0.00     0.013 A 
HETATM   18 BR1  UNL     1      20.464   1.202  49.608  1.00  0.00    -0.051 Br
HETATM   19  C10 UNL     1      22.057   0.300  51.842  1.00  0.00     0.048 A 
ENDBRANCH  11  13
ENDBRANCH   6  11
BRANCH   9  20
HETATM   20  N5  UNL     1      28.555  -3.154  53.423  1.00  0.00    -0.402 N 
HETATM   21  H12 UNL     1      29.352  -3.367  54.027  1.00  0.00     0.155 HD
HETATM   22  H13 UNL     1      28.230  -3.925  52.802  1.00  0.00     0.155 HD
ENDBRANCH   9  20
BRANCH   1  23
HETATM   23  N1  UNL     1      29.780   0.737  53.467  1.00  0.00     0.094 N 
HETATM   24  H1  UNL     1      30.502   0.993  54.188  1.00  0.00     0.314 HD
HETATM   25  H2  UNL     1      29.243   1.604  53.273  1.00  0.00     0.314 HD
ENDBRANCH   1  23
TORSDOF 4
ENDMDL
MODEL 3
REMARK VINA RESULT:      -7.3      1.566      1.897
REMARK  4 active torsions:
REMARK  status: ('A' for Active; 'I' for Inactive)
REMARK    1  A    between atoms: N1_1  and  C1_2 
REMARK    2  A    between atoms: C4_7  and  N4_8 
REMARK    3  A    between atoms: N4_8  and  C5_9 
REMARK    4  A    between atoms: P1_18  and  N5_19 
ROOT
HETATM    1  C1  UNL     1      25.915  -0.837  54.350  1.00  0.00     0.316 C 
HETATM    2  C2  UNL     1      24.882  -0.334  53.406  1.00  0.00     0.057 C 
HETATM    3  N2  UNL     1      23.565  -0.237  53.307  1.00  0.00    -0.248 NA
HETATM    4  C3  UNL     1      22.827   1.017  53.218  1.00  0.00     0.229 C 
HETATM    5  N3  UNL     1      23.170   2.107  52.575  1.00  0.00    -0.253 NA
HETATM    6  C4  UNL     1      24.487   2.666  52.272  1.00  0.00     0.237 C 
HETATM    7  C11 UNL     1      25.564   1.743  52.740  1.00  0.00    -0.029 C 
HETATM    8  C12 UNL     1      26.542   1.993  53.640  1.00  0.00     0.037 C 
HETATM    9  P1  UNL     1      27.250   0.468  54.431  1.00  0.00     0.040 P 
HETATM   10  C13 UNL     1      25.546   0.312  52.195  1.00  0.00     0.095 C 
ENDROOT
BRANCH   6  11
HETATM   11  N4  UNL     1      24.539   2.803  50.828  1.00  0.00    -0.364 N 
HETATM   12  H6  UNL     1      24.001   2.162  50.197  1.00  0.00     0.162 HD
BRANCH  11  13
HETATM   13  C5  UNL     1      25.315   3.804  50.225  1.00  0.00     0.031 A 
HETATM   14  C6  UNL     1      26.454   3.532  49.486  1.00  0.00     0.029 A 
HETATM   15  C7  UNL     1      27.238   4.512  48.880  1.00  0.00     0.004 A 
HETATM   16  C8  UNL     1      26.878   5.836  49.009  1.00  0.00     0.019 A 
HETATM   17  C9  UNL     1      25.745   6.173  49.739  1.00  0.00     0.013 A 
HETATM   18 BR1  UNL     1      25.250   8.000  49.917  1.00  0.00    -0.051 Br
HETATM   19  C10 UNL     1      25.028   5.148  50.305  1.00  0.00     0.048 A 
ENDBRANCH  11  13
ENDBRANCH   6  11
BRANCH   9  20
HETATM   20  N5  UNL     1      28.589  -0.084  53.404  1.00  0.00    -0.402 N 
HETATM   21  H12 UNL     1      28.358  -0.819  52.732  1.00  0.00     0.155 HD
HETATM   22  H13 UNL     1      29.507  -0.174  53.888  1.00  0.00     0.155 HD
ENDBRANCH   9  20
BRANCH   1  23
HETATM   23  N1  UNL     1      25.317  -0.943  55.685  1.00  0.00     0.094 N 
HETATM   24  H1  UNL     1      26.061  -1.278  56.350  1.00  0.00     0.314 HD
HETATM   25  H2  UNL     1      24.564  -1.658  55.707  1.00  0.00     0.314 HD
ENDBRANCH   1  23
TORSDOF 4
ENDMDL
MODEL 4
REMARK VINA RESULT:      -7.0      4.126      7.303
REMARK  4 active torsions:
REMARK  status: ('A' for Active; 'I' for Inactive)
REMARK    1  A    between atoms: N1_1  and  C1_2 
REMARK    2  A    between atoms: C4_7  and  N4_8 
REMARK    3  A    between atoms: N4_8  and  C5_9 
REMARK    4  A    between atoms: P1_18  and  N5_19 
ROOT
HETATM    1  C1  UNL     1      24.769   5.229  50.044  1.00  0.00     0.316 C 
HETATM    2  C2  UNL     1      25.348   3.874  50.249  1.00  0.00     0.057 C 
HETATM    3  N2  UNL     1      26.529   3.288  50.367  1.00  0.00    -0.248 NA
HETATM    4  C3  UNL     1      26.989   2.573  51.552  1.00  0.00     0.229 C 
HETATM    5  N3  UNL     1      26.288   1.802  52.348  1.00  0.00    -0.253 NA
HETATM    6  C4  UNL     1      24.872   1.838  52.713  1.00  0.00     0.237 C 
HETATM    7  C11 UNL     1      24.166   2.912  51.951  1.00  0.00    -0.029 C 
HETATM    8  C12 UNL     1      23.504   3.985  52.443  1.00  0.00     0.037 C 
HETATM    9  P1  UNL     1      23.342   5.390  51.239  1.00  0.00     0.040 P 
HETATM   10  C13 UNL     1      24.235   2.848  50.423  1.00  0.00     0.095 C 
ENDROOT
BRANCH   6  11
HETATM   11  N4  UNL     1      24.335   0.538  52.358  1.00  0.00    -0.364 N 
HETATM   12  H6  UNL     1      24.759  -0.038  51.591  1.00  0.00     0.162 HD
BRANCH  11  13
HETATM   13  C5  UNL     1      23.226   0.006  53.031  1.00  0.00     0.031 A 
HETATM   14  C6  UNL     1      23.331  -0.688  54.225  1.00  0.00     0.029 A 
HETATM   15  C7  UNL     1      22.241  -1.225  54.909  1.00  0.00     0.004 A 
HETATM   16  C8  UNL     1      20.976  -1.068  54.385  1.00  0.00     0.019 A 
HETATM   17  C9  UNL     1      20.806  -0.381  53.189  1.00  0.00     0.013 A 
HETATM   18 BR1  UNL     1      19.059  -0.166  52.468  1.00  0.00    -0.051 Br
HETATM   19  C10 UNL     1      21.931   0.116  52.579  1.00  0.00     0.048 A 
ENDBRANCH  11  13
ENDBRANCH   6  11
BRANCH   9  20
HETATM   20  N5  UNL     1      21.850   5.123  50.316  1.00  0.00    -0.402 N 
HETATM   21  H12 UNL     1      21.052   5.704  50.586  1.00  0.00     0.155 HD
HETATM   22  H13 UNL     1      21.639   4.127  50.095  1.00  0.00     0.155 HD
ENDBRANCH   9  20
BRANCH   1  23
HETATM   23  N1  UNL     1      25.775   6.229  50.416  1.00  0.00     0.094 N 
HETATM   24  H1  UNL     1      25.283   7.020  50.906  1.00  0.00     0.314 HD
HETATM   25  H2  UNL     1      26.227   6.643  49.577  1.00  0.00     0.314 HD
ENDBRANCH   1  23
TORSDOF 4
ENDMDL
MODEL 5
REMARK VINA RESULT:      -6.8      3.945      7.141
REMARK  4 active torsions:
REMARK  status: ('A' for Active; 'I' for Inactive)
REMARK    1  A    between atoms: N1_1  and  C1_2 
REMARK    2  A    between atoms: C4_7  and  N4_8 
REMARK    3  A    between atoms: N4_8  and  C5_9 
REMARK    4  A    between atoms: P1_18  and  N5_19 
ROOT
HETATM    1  C1  UNL     1      25.430   7.678  48.176  1.00  0.00     0.316 C 
HETATM    2  C2  UNL     1      24.613   6.702  48.944  1.00  0.00     0.057 C 
HETATM    3  N2  UNL     1      23.453   6.068  48.860  1.00  0.00    -0.248 NA
HETATM    4  C3  UNL     1      23.300   4.620  48.780  1.00  0.00     0.229 C 
HETATM    5  N3  UNL     1      24.000   3.702  49.402  1.00  0.00    -0.253 NA
HETATM    6  C4  UNL     1      25.393   3.699  49.847  1.00  0.00     0.237 C 
HETATM    7  C11 UNL     1      26.028   5.025  49.579  1.00  0.00    -0.029 C 
HETATM    8  C12 UNL     1      27.106   5.291  48.805  1.00  0.00     0.037 C 
HETATM    9  P1  UNL     1      27.187   7.046  48.202  1.00  0.00     0.040 P 
HETATM   10  C13 UNL     1      25.362   6.258  50.195  1.00  0.00     0.095 C 
ENDROOT
BRANCH   6  11
HETATM   11  N4  UNL     1      25.355   3.444  51.275  1.00  0.00    -0.364 N 
HETATM   12  H6  UNL     1      25.243   4.223  51.968  1.00  0.00     0.162 HD
BRANCH  11  13
HETATM   13  C5  UNL     1      25.468   2.140  51.780  1.00  0.00     0.031 A 
HETATM   14  C6  UNL     1      26.618   1.379  51.650  1.00  0.00     0.029 A 
HETATM   15  C7  UNL     1      26.749   0.082  52.144  1.00  0.00     0.004 A 
HETATM   16  C8  UNL     1      25.686  -0.497  52.803  1.00  0.00     0.019 A 
HETATM   17  C9  UNL     1      24.505   0.217  52.964  1.00  0.00     0.013 A 
HETATM   18 BR1  UNL     1      23.039  -0.585  53.873  1.00  0.00    -0.051 Br
HETATM   19  C10 UNL     1      24.457   1.488  52.448  1.00  0.00     0.048 A 
ENDBRANCH  11  13
ENDBRANCH   6  11
BRANCH   9  20
HETATM   20  N5  UNL     1      28.066   7.983  49.427  1.00  0.00    -0.402 N 
HETATM   21  H12 UNL     1      28.579   8.796  49.079  1.00  0.00     0.155 HD
HETATM   22  H13 UNL     1      28.545   7.415  50.157  1.00  0.00     0.155 HD
ENDBRANCH   9  20
BRANCH   1  23
HETATM   23  N1  UNL     1      24.977   7.673  46.781  1.00  0.00     0.094 N 
HETATM   24  H1  UNL     1      25.447   6.870  46.288  1.00  0.00     0.314 HD
HETATM   25  H2  UNL     1      25.276   8.534  46.282  1.00  0.00     0.314 HD
ENDBRANCH   1  23
TORSDOF 4
ENDMDL
MODEL 6
REMARK VINA RESULT:      -6.7      4.141      5.683
REMARK  4 active torsions:
REMARK  status: ('A' for Active; 'I' for Inactive)
REMARK    1  A    between atoms: N1_1  and  C1_2 
REMARK    2  A    between atoms: C4_7  and  N4_8 
REMARK    3  A    between atoms: N4_8  and  C5_9 
REMARK    4  A    between atoms: P1_18  and  N5_19 
ROOT
HETATM    1  C1  UNL     1      27.183   0.594  53.641  1.00  0.00     0.316 C 
HETATM    2  C2  UNL     1      26.090  -0.397  53.826  1.00  0.00     0.057 C 
HETATM    3  N2  UNL     1      25.645  -1.253  54.733  1.00  0.00    -0.248 NA
HETATM    4  C3  UNL     1      24.338  -1.182  55.375  1.00  0.00     0.229 C 
HETATM    5  N3  UNL     1      23.196  -0.831  54.835  1.00  0.00    -0.253 NA
HETATM    6  C4  UNL     1      22.897   0.095  53.744  1.00  0.00     0.237 C 
HETATM    7  C11 UNL     1      24.162   0.628  53.153  1.00  0.00    -0.029 C 
HETATM    8  C12 UNL     1      24.568   1.916  53.076  1.00  0.00     0.037 C 
HETATM    9  P1  UNL     1      26.405   2.119  52.892  1.00  0.00     0.040 P 
HETATM   10  C13 UNL     1      25.166  -0.394  52.613  1.00  0.00     0.095 C 
ENDROOT
BRANCH   6  11
HETATM   11  N4  UNL     1      22.168  -0.676  52.754  1.00  0.00    -0.364 N 
HETATM   12  H6  UNL     1      22.330  -1.705  52.634  1.00  0.00     0.162 HD
BRANCH  11  13
HETATM   13  C5  UNL     1      21.218  -0.068  51.920  1.00  0.00     0.031 A 
HETATM   14  C6  UNL     1      19.865  -0.045  52.212  1.00  0.00     0.029 A 
HETATM   15  C7  UNL     1      18.905   0.553  51.396  1.00  0.00     0.004 A 
HETATM   16  C8  UNL     1      19.304   1.163  50.227  1.00  0.00     0.019 A 
HETATM   17  C9  UNL     1      20.649   1.174  49.880  1.00  0.00     0.013 A 
HETATM   18 BR1  UNL     1      21.197   2.017  48.265  1.00  0.00    -0.051 Br
HETATM   19  C10 UNL     1      21.530   0.562  50.737  1.00  0.00     0.048 A 
ENDBRANCH  11  13
ENDBRANCH   6  11
BRANCH   9  20
HETATM   20  N5  UNL     1      26.766   2.095  51.154  1.00  0.00    -0.402 N 
HETATM   21  H12 UNL     1      26.686   2.993  50.672  1.00  0.00     0.155 HD
HETATM   22  H13 UNL     1      26.405   1.264  50.640  1.00  0.00     0.155 HD
ENDBRANCH   9  20
BRANCH   1  23
HETATM   23  N1  UNL     1      27.707   0.965  54.959  1.00  0.00     0.094 N 
HETATM   24  H1  UNL     1      27.218   1.845  55.269  1.00  0.00     0.314 HD
HETATM   25  H2  UNL     1      28.719   1.196  54.914  1.00  0.00     0.314 HD
ENDBRANCH   1  23
TORSDOF 4
ENDMDL
MODEL 7
REMARK VINA RESULT:      -6.5      3.872      6.545
REMARK  4 active torsions:
REMARK  status: ('A' for Active; 'I' for Inactive)
REMARK    1  A    between atoms: N1_1  and  C1_2 
REMARK    2  A    between atoms: C4_7  and  N4_8 
REMARK    3  A    between atoms: N4_8  and  C5_9 
REMARK    4  A    between atoms: P1_18  and  N5_19 
ROOT
HETATM    1  C1  UNL     1      22.322   6.285  50.987  1.00  0.00     0.316 C 
HETATM    2  C2  UNL     1      22.072   5.092  51.840  1.00  0.00     0.057 C 
HETATM    3  N2  UNL     1      21.109   4.221  52.101  1.00  0.00    -0.248 NA
HETATM    4  C3  UNL     1      21.195   2.787  51.853  1.00  0.00     0.229 C 
HETATM    5  N3  UNL     1      22.238   2.006  52.007  1.00  0.00    -0.253 NA
HETATM    6  C4  UNL     1      23.668   2.283  51.885  1.00  0.00     0.237 C 
HETATM    7  C11 UNL     1      23.895   3.735  51.612  1.00  0.00    -0.029 C 
HETATM    8  C12 UNL     1      24.502   4.296  50.542  1.00  0.00     0.037 C 
HETATM    9  P1  UNL     1      24.022   6.066  50.243  1.00  0.00     0.040 P 
HETATM   10  C13 UNL     1      23.328   4.734  52.624  1.00  0.00     0.095 C 
ENDROOT
BRANCH   6  11
HETATM   11  N4  UNL     1      24.257   1.916  53.159  1.00  0.00    -0.364 N 
HETATM   12  H6  UNL     1      23.732   2.035  54.059  1.00  0.00     0.162 HD
BRANCH  11  13
HETATM   13  C5  UNL     1      25.554   1.388  53.231  1.00  0.00     0.031 A 
HETATM   14  C6  UNL     1      26.654   2.140  53.606  1.00  0.00     0.029 A 
HETATM   15  C7  UNL     1      27.951   1.633  53.683  1.00  0.00     0.004 A 
HETATM   16  C8  UNL     1      28.174   0.309  53.372  1.00  0.00     0.019 A 
HETATM   17  C9  UNL     1      27.110  -0.497  52.989  1.00  0.00     0.013 A 
HETATM   18 BR1  UNL     1      27.420  -2.324  52.561  1.00  0.00    -0.051 Br
HETATM   19  C10 UNL     1      25.864   0.079  52.938  1.00  0.00     0.048 A 
ENDBRANCH  11  13
ENDBRANCH   6  11
BRANCH   9  20
HETATM   20  N5  UNL     1      25.140   7.080  51.177  1.00  0.00    -0.402 N 
HETATM   21  H12 UNL     1      24.734   7.563  51.982  1.00  0.00     0.155 HD
HETATM   22  H13 UNL     1      25.821   7.626  50.609  1.00  0.00     0.155 HD
ENDBRANCH   9  20
BRANCH   1  23
HETATM   23  N1  UNL     1      21.353   6.285  49.886  1.00  0.00     0.094 N 
HETATM   24  H1  UNL     1      20.499   6.812  50.203  1.00  0.00     0.314 HD
HETATM   25  H2  UNL     1      21.034   5.322  49.662  1.00  0.00     0.314 HD
ENDBRANCH   1  23
TORSDOF 4
ENDMDL
MODEL 8
REMARK VINA RESULT:      -6.5      4.342      7.297
REMARK  4 active torsions:
REMARK  status: ('A' for Active; 'I' for Inactive)
REMARK    1  A    between atoms: N1_1  and  C1_2 
REMARK    2  A    between atoms: C4_7  and  N4_8 
REMARK    3  A    between atoms: N4_8  and  C5_9 
REMARK    4  A    between atoms: P1_18  and  N5_19 
ROOT
HETATM    1  C1  UNL     1      25.204   6.704  49.754  1.00  0.00     0.316 C 
HETATM    2  C2  UNL     1      25.384   5.242  49.551  1.00  0.00     0.057 C 
HETATM    3  N2  UNL     1      26.356   4.347  49.454  1.00  0.00    -0.248 NA
HETATM    4  C3  UNL     1      26.558   3.234  50.374  1.00  0.00     0.229 C 
HETATM    5  N3  UNL     1      25.642   2.493  50.951  1.00  0.00    -0.253 NA
HETATM    6  C4  UNL     1      24.277   2.810  51.368  1.00  0.00     0.237 C 
HETATM    7  C11 UNL     1      23.920   4.203  50.964  1.00  0.00    -0.029 C 
HETATM    8  C12 UNL     1      23.556   5.234  51.761  1.00  0.00     0.037 C 
HETATM    9  P1  UNL     1      23.830   6.908  51.003  1.00  0.00     0.040 P 
HETATM   10  C13 UNL     1      24.028   4.550  49.477  1.00  0.00     0.095 C 
ENDROOT
BRANCH   6  11
HETATM   11  N4  UNL     1      23.420   1.857  50.687  1.00  0.00    -0.364 N 
HETATM   12  H6  UNL     1      23.513   1.675  49.659  1.00  0.00     0.162 HD
BRANCH  11  13
HETATM   13  C5  UNL     1      22.434   1.144  51.385  1.00  0.00     0.031 A 
HETATM   14  C6  UNL     1      21.115   1.083  50.972  1.00  0.00     0.029 A 
HETATM   15  C7  UNL     1      20.121   0.380  51.651  1.00  0.00     0.004 A 
HETATM   16  C8  UNL     1      20.448  -0.301  52.804  1.00  0.00     0.019 A 
HETATM   17  C9  UNL     1      21.757  -0.278  53.269  1.00  0.00     0.013 A 
HETATM   18 BR1  UNL     1      22.206  -1.218  54.860  1.00  0.00    -0.051 Br
HETATM   19  C10 UNL     1      22.675   0.438  52.542  1.00  0.00     0.048 A 
ENDBRANCH  11  13
ENDBRANCH   6  11
BRANCH   9  20
HETATM   20  N5  UNL     1      22.358   7.325  50.103  1.00  0.00    -0.402 N 
HETATM   21  H12 UNL     1      22.429   8.141  49.491  1.00  0.00     0.155 HD
HETATM   22  H13 UNL     1      21.471   7.229  50.640  1.00  0.00     0.155 HD
ENDBRANCH   9  20
BRANCH   1  23
HETATM   23  N1  UNL     1      26.429   7.248  50.350  1.00  0.00     0.094 N 
HETATM   24  H1  UNL     1      27.149   7.341  49.588  1.00  0.00     0.314 HD
HETATM   25  H2  UNL     1      26.832   6.596  51.052  1.00  0.00     0.314 HD
ENDBRANCH   1  23
TORSDOF 4
ENDMDL
MODEL 9
REMARK VINA RESULT:      -6.5      3.475      6.677
REMARK  4 active torsions:
REMARK  status: ('A' for Active; 'I' for Inactive)
REMARK    1  A    between atoms: N1_1  and  C1_2 
REMARK    2  A    between atoms: C4_7  and  N4_8 
REMARK    3  A    between atoms: N4_8  and  C5_9 
REMARK    4  A    between atoms: P1_18  and  N5_19 
ROOT
HETATM    1  C1  UNL     1      24.462   6.998  48.762  1.00  0.00     0.316 C 
HETATM    2  C2  UNL     1      23.923   5.895  49.601  1.00  0.00     0.057 C 
HETATM    3  N2  UNL     1      22.903   5.050  49.625  1.00  0.00    -0.248 NA
HETATM    4  C3  UNL     1      23.023   3.599  49.554  1.00  0.00     0.229 C 
HETATM    5  N3  UNL     1      23.942   2.841  50.104  1.00  0.00    -0.253 NA
HETATM    6  C4  UNL     1      25.345   3.110  50.414  1.00  0.00     0.237 C 
HETATM    7  C11 UNL     1      25.686   4.528  50.092  1.00  0.00    -0.029 C 
HETATM    8  C12 UNL     1      26.616   4.984  49.220  1.00  0.00     0.037 C 
HETATM    9  P1  UNL     1      26.303   6.714  48.619  1.00  0.00     0.040 P 
HETATM   10  C13 UNL     1      24.858   5.620  50.773  1.00  0.00     0.095 C 
ENDROOT
BRANCH   6  11
HETATM   11  N4  UNL     1      25.492   2.872  51.838  1.00  0.00    -0.364 N 
HETATM   12  H6  UNL     1      25.267   3.616  52.543  1.00  0.00     0.162 HD
BRANCH  11  13
HETATM   13  C5  UNL     1      25.940   1.635  52.323  1.00  0.00     0.031 A 
HETATM   14  C6  UNL     1      25.101   0.550  52.511  1.00  0.00     0.029 A 
HETATM   15  C7  UNL     1      25.527  -0.687  52.991  1.00  0.00     0.004 A 
HETATM   16  C8  UNL     1      26.858  -0.863  53.304  1.00  0.00     0.019 A 
HETATM   17  C9  UNL     1      27.750   0.188  53.136  1.00  0.00     0.013 A 
HETATM   18 BR1  UNL     1      29.586  -0.058  53.569  1.00  0.00    -0.051 Br
HETATM   19  C10 UNL     1      27.249   1.374  52.659  1.00  0.00     0.048 A 
ENDBRANCH  11  13
ENDBRANCH   6  11
BRANCH   9  20
HETATM   20  N5  UNL     1      27.097   7.818  49.758  1.00  0.00    -0.402 N 
HETATM   21  H12 UNL     1      28.115   7.880  49.679  1.00  0.00     0.155 HD
HETATM   22  H13 UNL     1      26.711   7.808  50.725  1.00  0.00     0.155 HD
ENDBRANCH   9  20
BRANCH   1  23
HETATM   23  N1  UNL     1      23.890   6.886  47.416  1.00  0.00     0.094 N 
HETATM   24  H1  UNL     1      24.453   6.178  46.880  1.00  0.00     0.314 HD
HETATM   25  H2  UNL     1      23.973   7.780  46.893  1.00  0.00     0.314 HD
ENDBRANCH   1  23
TORSDOF 4
ENDMDL
