MODEL 1
REMARK VINA RESULT:      -9.7      0.000      0.000
REMARK  5 active torsions:
REMARK  status: ('A' for Active; 'I' for Inactive)
REMARK    1  A    between atoms: N1_1  and  C1_2 
REMARK    2  A    between atoms: C10_14  and  N4_15 
REMARK    3  A    between atoms: N4_15  and  C11_16 
REMARK    4  A    between atoms: C11_16  and  C12_17 
REMARK    5  A    between atoms: C12_17  and  C13_18 
ROOT
HETATM    1  C1  UNL     1      23.073   2.751  48.960  1.00  0.00     0.720 A 
HETATM    2  N2  UNL     1      24.039   3.596  48.928  1.00  0.00    -0.065 NA
HETATM    3  C2  UNL     1      24.585   3.714  50.252  1.00  0.00     0.209 A 
HETATM    4  C3  UNL     1      24.696   5.121  50.759  1.00  0.00     0.106 C 
HETATM    5  C4  UNL     1      25.783   5.648  49.853  1.00  0.00    -0.025 A 
HETATM    6  C5  UNL     1      25.988   6.947  49.445  1.00  0.00     0.033 A 
HETATM    7  C6  UNL     1      27.048   7.169  48.590  1.00  0.00     0.034 A 
HETATM    8 CL1  UNL     1      27.321   8.817  48.064  1.00  0.00    -0.084 Cl
HETATM    9  C7  UNL     1      27.844   6.126  48.180  1.00  0.00     0.026 A 
HETATM   10  C8  UNL     1      27.600   4.837  48.617  1.00  0.00     0.031 A 
HETATM   11  C9  UNL     1      26.544   4.532  49.486  1.00  0.00     0.036 A 
HETATM   12  N3  UNL     1      26.000   3.364  50.142  1.00  0.00    -0.355 N 
HETATM   13  C10 UNL     1      23.792   2.828  51.081  1.00  0.00     0.171 A 
HETATM   14  N5  UNL     1      22.906   2.267  50.285  1.00  0.00    -0.045 NA
HETATM   15  H8  UNL     1      26.659   2.600  50.371  1.00  0.00     0.162 HD
ENDROOT
BRANCH  13  16
HETATM   16  N4  UNL     1      23.723   2.467  52.452  1.00  0.00    -0.374 N 
HETATM   17  H9  UNL     1      23.254   3.231  53.044  1.00  0.00     0.161 HD
BRANCH  16  18
HETATM   18  C11 UNL     1      24.223   1.232  53.071  1.00  0.00     0.126 C 
BRANCH  18  19
HETATM   19  C12 UNL     1      25.343   0.755  52.203  1.00  0.00     0.059 C 
BRANCH  19  20
HETATM   20  C13 UNL     1      26.686   0.897  52.749  1.00  0.00    -0.045 A 
HETATM   21  C14 UNL     1      27.239   2.112  53.127  1.00  0.00     0.008 A 
HETATM   22  C15 UNL     1      28.502   2.302  53.660  1.00  0.00     0.001 A 
HETATM   23  C16 UNL     1      29.269   1.160  53.821  1.00  0.00     0.012 A 
HETATM   24  C17 UNL     1      28.753  -0.070  53.456  1.00  0.00    -0.025 A 
HETATM   25  C18 UNL     1      29.561  -1.201  53.620  1.00  0.00     0.012 A 
HETATM   26  C22 UNL     1      27.485  -0.218  52.928  1.00  0.00    -0.020 A 
HETATM   27  C19 UNL     1      29.024  -2.412  53.233  1.00  0.00     0.001 A 
HETATM   28  C20 UNL     1      27.769  -2.606  52.701  1.00  0.00     0.001 A 
HETATM   29  C21 UNL     1      27.007  -1.468  52.557  1.00  0.00     0.013 A 
ENDBRANCH  19  20
ENDBRANCH  18  19
ENDBRANCH  16  18
ENDBRANCH  13  16
BRANCH   1  30
HETATM   30  N1  UNL     1      22.183   2.259  47.929  1.00  0.00    -0.231 N 
HETATM   31  H1  UNL     1      21.169   2.231  48.101  1.00  0.00     0.174 HD
HETATM   32  H2  UNL     1      22.578   1.932  47.002  1.00  0.00     0.174 HD
ENDBRANCH   1  30
TORSDOF 5
ENDMDL
MODEL 2
REMARK VINA RESULT:      -9.6      2.276      4.093
REMARK  5 active torsions:
REMARK  status: ('A' for Active; 'I' for Inactive)
REMARK    1  A    between atoms: N1_1  and  C1_2 
REMARK    2  A    between atoms: C10_14  and  N4_15 
REMARK    3  A    between atoms: N4_15  and  C11_16 
REMARK    4  A    between atoms: C11_16  and  C12_17 
REMARK    5  A    between atoms: C12_17  and  C13_18 
ROOT
HETATM    1  C1  UNL     1      23.627   4.881  52.622  1.00  0.00     0.720 A 
HETATM    2  N2  UNL     1      24.415   5.074  51.627  1.00  0.00    -0.065 NA
HETATM    3  C2  UNL     1      23.895   4.365  50.490  1.00  0.00     0.209 A 
HETATM    4  C3  UNL     1      24.882   3.464  49.810  1.00  0.00     0.106 C 
HETATM    5  C4  UNL     1      25.820   4.489  49.220  1.00  0.00    -0.025 A 
HETATM    6  C5  UNL     1      27.161   4.347  48.938  1.00  0.00     0.033 A 
HETATM    7  C6  UNL     1      27.807   5.449  48.419  1.00  0.00     0.034 A 
HETATM    8 CL1  UNL     1      29.511   5.281  48.055  1.00  0.00    -0.084 Cl
HETATM    9  C7  UNL     1      27.122   6.622  48.204  1.00  0.00     0.026 A 
HETATM   10  C8  UNL     1      25.775   6.718  48.502  1.00  0.00     0.031 A 
HETATM   11  C9  UNL     1      25.050   5.643  49.031  1.00  0.00     0.036 A 
HETATM   12  N3  UNL     1      23.693   5.366  49.444  1.00  0.00    -0.355 N 
HETATM   13  C10 UNL     1      22.691   3.709  50.958  1.00  0.00     0.171 A 
HETATM   14  N5  UNL     1      22.555   4.037  52.225  1.00  0.00    -0.045 NA
HETATM   15  H8  UNL     1      22.937   5.883  48.962  1.00  0.00     0.162 HD
ENDROOT
BRANCH  13  16
HETATM   16  N4  UNL     1      21.708   2.832  50.427  1.00  0.00    -0.374 N 
HETATM   17  H9  UNL     1      21.523   3.020  49.387  1.00  0.00     0.161 HD
BRANCH  16  18
HETATM   18  C11 UNL     1      20.973   1.784  51.148  1.00  0.00     0.126 C 
BRANCH  18  19
HETATM   19  C12 UNL     1      21.862   0.583  51.161  1.00  0.00     0.059 C 
BRANCH  19  20
HETATM   20  C13 UNL     1      22.107  -0.024  52.464  1.00  0.00    -0.045 A 
HETATM   21  C14 UNL     1      21.113  -0.596  53.244  1.00  0.00     0.008 A 
HETATM   22  C15 UNL     1      21.291  -1.195  54.480  1.00  0.00     0.001 A 
HETATM   23  C16 UNL     1      22.589  -1.211  54.962  1.00  0.00     0.012 A 
HETATM   24  C17 UNL     1      23.607  -0.651  54.213  1.00  0.00    -0.025 A 
HETATM   25  C18 UNL     1      24.904  -0.673  54.738  1.00  0.00     0.012 A 
HETATM   26  C22 UNL     1      23.388  -0.064  52.982  1.00  0.00    -0.020 A 
HETATM   27  C19 UNL     1      25.896  -0.093  53.975  1.00  0.00     0.001 A 
HETATM   28  C20 UNL     1      25.724   0.505  52.746  1.00  0.00     0.001 A 
HETATM   29  C21 UNL     1      24.434   0.505  52.266  1.00  0.00     0.013 A 
ENDBRANCH  19  20
ENDBRANCH  18  19
ENDBRANCH  16  18
ENDBRANCH  13  16
BRANCH   1  30
HETATM   30  N1  UNL     1      23.666   5.348  53.992  1.00  0.00    -0.231 N 
HETATM   31  H1  UNL     1      22.852   5.840  54.387  1.00  0.00     0.174 HD
HETATM   32  H2  UNL     1      24.529   5.181  54.583  1.00  0.00     0.174 HD
ENDBRANCH   1  30
TORSDOF 5
ENDMDL
MODEL 3
REMARK VINA RESULT:      -9.3      3.566      5.567
REMARK  5 active torsions:
REMARK  status: ('A' for Active; 'I' for Inactive)
REMARK    1  A    between atoms: N1_1  and  C1_2 
REMARK    2  A    between atoms: C10_14  and  N4_15 
REMARK    3  A    between atoms: N4_15  and  C11_16 
REMARK    4  A    between atoms: C11_16  and  C12_17 
REMARK    5  A    between atoms: C12_17  and  C13_18 
ROOT
HETATM    1  C1  UNL     1      22.406   4.816  51.656  1.00  0.00     0.720 A 
HETATM    2  N2  UNL     1      21.840   3.690  51.903  1.00  0.00    -0.065 NA
HETATM    3  C2  UNL     1      22.709   2.636  51.458  1.00  0.00     0.209 A 
HETATM    4  C3  UNL     1      22.061   1.628  50.557  1.00  0.00     0.106 C 
HETATM    5  C4  UNL     1      21.124   0.959  51.533  1.00  0.00    -0.025 A 
HETATM    6  C5  UNL     1      19.922   0.342  51.265  1.00  0.00     0.033 A 
HETATM    7  C6  UNL     1      19.237  -0.178  52.343  1.00  0.00     0.034 A 
HETATM    8 CL1  UNL     1      17.708  -0.967  52.015  1.00  0.00    -0.084 Cl
HETATM    9  C7  UNL     1      19.750  -0.072  53.613  1.00  0.00     0.026 A 
HETATM   10  C8  UNL     1      20.962   0.557  53.835  1.00  0.00     0.031 A 
HETATM   11  C9  UNL     1      21.717   1.110  52.791  1.00  0.00     0.036 A 
HETATM   12  N3  UNL     1      22.974   1.804  52.631  1.00  0.00    -0.355 N 
HETATM   13  C10 UNL     1      23.869   3.299  50.896  1.00  0.00     0.171 A 
HETATM   14  N5  UNL     1      23.663   4.592  51.033  1.00  0.00    -0.045 NA
HETATM   15  H8  UNL     1      23.724   1.591  53.312  1.00  0.00     0.162 HD
ENDROOT
BRANCH  13  16
HETATM   16  N4  UNL     1      25.076   2.920  50.250  1.00  0.00    -0.374 N 
HETATM   17  H9  UNL     1      24.929   2.737  49.203  1.00  0.00     0.161 HD
BRANCH  16  18
HETATM   18  C11 UNL     1      26.399   2.757  50.868  1.00  0.00     0.126 C 
BRANCH  18  19
HETATM   19  C12 UNL     1      26.176   2.009  52.142  1.00  0.00     0.059 C 
BRANCH  19  20
HETATM   20  C13 UNL     1      27.367   1.494  52.805  1.00  0.00    -0.045 A 
HETATM   21  C14 UNL     1      28.302   2.298  53.440  1.00  0.00     0.008 A 
HETATM   22  C15 UNL     1      29.442   1.862  54.093  1.00  0.00     0.001 A 
HETATM   23  C16 UNL     1      29.649   0.493  54.099  1.00  0.00     0.012 A 
HETATM   24  C17 UNL     1      28.739  -0.342  53.477  1.00  0.00    -0.025 A 
HETATM   25  C18 UNL     1      28.988  -1.719  53.491  1.00  0.00     0.012 A 
HETATM   26  C22 UNL     1      27.611   0.133  52.837  1.00  0.00    -0.020 A 
HETATM   27  C19 UNL     1      28.070  -2.525  52.850  1.00  0.00     0.001 A 
HETATM   28  C20 UNL     1      26.935  -2.096  52.197  1.00  0.00     0.001 A 
HETATM   29  C21 UNL     1      26.728  -0.735  52.208  1.00  0.00     0.013 A 
ENDBRANCH  19  20
ENDBRANCH  18  19
ENDBRANCH  16  18
ENDBRANCH  13  16
BRANCH   1  30
HETATM   30  N1  UNL     1      21.986   6.181  51.890  1.00  0.00    -0.231 N 
HETATM   31  H1  UNL     1      21.154   6.368  52.465  1.00  0.00     0.174 HD
HETATM   32  H2  UNL     1      22.538   6.983  51.472  1.00  0.00     0.174 HD
ENDBRANCH   1  30
TORSDOF 5
ENDMDL
MODEL 4
REMARK VINA RESULT:      -9.3      3.687      6.521
REMARK  5 active torsions:
REMARK  status: ('A' for Active; 'I' for Inactive)
REMARK    1  A    between atoms: N1_1  and  C1_2 
REMARK    2  A    between atoms: C10_14  and  N4_15 
REMARK    3  A    between atoms: N4_15  and  C11_16 
REMARK    4  A    between atoms: C11_16  and  C12_17 
REMARK    5  A    between atoms: C12_17  and  C13_18 
ROOT
HETATM    1  C1  UNL     1      25.102   4.538  50.354  1.00  0.00     0.720 A 
HETATM    2  N2  UNL     1      25.549   3.556  51.050  1.00  0.00    -0.065 NA
HETATM    3  C2  UNL     1      24.434   2.880  51.654  1.00  0.00     0.209 A 
HETATM    4  C3  UNL     1      24.550   2.681  53.136  1.00  0.00     0.106 C 
HETATM    5  C4  UNL     1      25.674   1.674  53.184  1.00  0.00    -0.025 A 
HETATM    6  C5  UNL     1      26.589   1.474  54.194  1.00  0.00     0.033 A 
HETATM    7  C6  UNL     1      27.540   0.497  53.985  1.00  0.00     0.034 A 
HETATM    8 CL1  UNL     1      28.708   0.232  55.263  1.00  0.00    -0.084 Cl
HETATM    9  C7  UNL     1      27.553  -0.226  52.817  1.00  0.00     0.026 A 
HETATM   10  C8  UNL     1      26.613   0.010  51.830  1.00  0.00     0.031 A 
HETATM   11  C9  UNL     1      25.615   0.984  51.967  1.00  0.00     0.036 A 
HETATM   12  N3  UNL     1      24.503   1.493  51.199  1.00  0.00    -0.355 N 
HETATM   13  C10 UNL     1      23.258   3.613  51.228  1.00  0.00     0.171 A 
HETATM   14  N5  UNL     1      23.686   4.588  50.453  1.00  0.00    -0.045 NA
HETATM   15  H8  UNL     1      24.036   0.837  50.549  1.00  0.00     0.162 HD
ENDROOT
BRANCH  13  16
HETATM   16  N4  UNL     1      21.857   3.558  51.452  1.00  0.00    -0.374 N 
HETATM   17  H9  UNL     1      21.585   3.997  52.393  1.00  0.00     0.161 HD
BRANCH  16  18
HETATM   18  C11 UNL     1      20.840   2.973  50.568  1.00  0.00     0.126 C 
BRANCH  18  19
HETATM   19  C12 UNL     1      21.095   1.501  50.554  1.00  0.00     0.059 C 
BRANCH  19  20
HETATM   20  C13 UNL     1      20.234   0.689  51.404  1.00  0.00    -0.045 A 
HETATM   21  C14 UNL     1      18.866   0.561  51.215  1.00  0.00     0.008 A 
HETATM   22  C15 UNL     1      18.005  -0.204  51.983  1.00  0.00     0.001 A 
HETATM   23  C16 UNL     1      18.585  -0.897  53.032  1.00  0.00     0.012 A 
HETATM   24  C17 UNL     1      19.946  -0.795  53.253  1.00  0.00    -0.025 A 
HETATM   25  C18 UNL     1      20.495  -1.498  54.331  1.00  0.00     0.012 A 
HETATM   26  C22 UNL     1      20.772  -0.021  52.462  1.00  0.00    -0.020 A 
HETATM   27  C19 UNL     1      21.854  -1.365  54.535  1.00  0.00     0.001 A 
HETATM   28  C20 UNL     1      22.714  -0.604  53.775  1.00  0.00     0.001 A 
HETATM   29  C21 UNL     1      22.133   0.070  52.724  1.00  0.00     0.013 A 
ENDBRANCH  19  20
ENDBRANCH  18  19
ENDBRANCH  16  18
ENDBRANCH  13  16
BRANCH   1  30
HETATM   30  N1  UNL     1      25.772   5.537  49.548  1.00  0.00    -0.231 N 
HETATM   31  H1  UNL     1      26.220   5.263  48.663  1.00  0.00     0.174 HD
HETATM   32  H2  UNL     1      25.796   6.546  49.870  1.00  0.00     0.174 HD
ENDBRANCH   1  30
TORSDOF 5
ENDMDL
MODEL 5
REMARK VINA RESULT:      -9.2      3.953      6.733
REMARK  5 active torsions:
REMARK  status: ('A' for Active; 'I' for Inactive)
REMARK    1  A    between atoms: N1_1  and  C1_2 
REMARK    2  A    between atoms: C10_14  and  N4_15 
REMARK    3  A    between atoms: N4_15  and  C11_16 
REMARK    4  A    between atoms: C11_16  and  C12_17 
REMARK    5  A    between atoms: C12_17  and  C13_18 
ROOT
HETATM    1  C1  UNL     1      25.397   4.424  50.065  1.00  0.00     0.720 A 
HETATM    2  N2  UNL     1      25.752   3.461  50.835  1.00  0.00    -0.065 NA
HETATM    3  C2  UNL     1      24.587   2.978  51.526  1.00  0.00     0.209 A 
HETATM    4  C3  UNL     1      24.733   2.896  53.016  1.00  0.00     0.106 C 
HETATM    5  C4  UNL     1      25.731   1.769  53.126  1.00  0.00    -0.025 A 
HETATM    6  C5  UNL     1      26.652   1.549  54.127  1.00  0.00     0.033 A 
HETATM    7  C6  UNL     1      27.474   0.451  53.983  1.00  0.00     0.034 A 
HETATM    8 CL1  UNL     1      28.649   0.160  55.249  1.00  0.00    -0.084 Cl
HETATM    9  C7  UNL     1      27.360  -0.367  52.885  1.00  0.00     0.026 A 
HETATM   10  C8  UNL     1      26.420  -0.107  51.905  1.00  0.00     0.031 A 
HETATM   11  C9  UNL     1      25.548   0.988  51.979  1.00  0.00     0.036 A 
HETATM   12  N3  UNL     1      24.477   1.558  51.196  1.00  0.00    -0.355 N 
HETATM   13  C10 UNL     1      23.490   3.807  51.065  1.00  0.00     0.171 A 
HETATM   14  N5  UNL     1      24.001   4.652  50.195  1.00  0.00    -0.045 NA
HETATM   15  H8  UNL     1      23.912   0.909  50.621  1.00  0.00     0.162 HD
ENDROOT
BRANCH  13  16
HETATM   16  N4  UNL     1      22.101   3.940  51.330  1.00  0.00    -0.374 N 
HETATM   17  H9  UNL     1      21.658   4.728  50.752  1.00  0.00     0.161 HD
BRANCH  16  18
HETATM   18  C11 UNL     1      21.299   3.152  52.275  1.00  0.00     0.126 C 
BRANCH  18  19
HETATM   19  C12 UNL     1      21.131   1.802  51.655  1.00  0.00     0.059 C 
BRANCH  19  20
HETATM   20  C13 UNL     1      21.051   0.675  52.576  1.00  0.00    -0.045 A 
HETATM   21  C14 UNL     1      22.102   0.267  53.384  1.00  0.00     0.008 A 
HETATM   22  C15 UNL     1      22.078  -0.786  54.282  1.00  0.00     0.001 A 
HETATM   23  C16 UNL     1      20.884  -1.483  54.365  1.00  0.00     0.012 A 
HETATM   24  C17 UNL     1      19.813  -1.106  53.575  1.00  0.00    -0.025 A 
HETATM   25  C18 UNL     1      18.627  -1.841  53.675  1.00  0.00     0.012 A 
HETATM   26  C22 UNL     1      19.878  -0.047  52.691  1.00  0.00    -0.020 A 
HETATM   27  C19 UNL     1      17.581  -1.450  52.864  1.00  0.00     0.001 A 
HETATM   28  C20 UNL     1      17.601  -0.404  51.968  1.00  0.00     0.001 A 
HETATM   29  C21 UNL     1      18.786   0.293  51.902  1.00  0.00     0.013 A 
ENDBRANCH  19  20
ENDBRANCH  18  19
ENDBRANCH  16  18
ENDBRANCH  13  16
BRANCH   1  30
HETATM   30  N1  UNL     1      26.150   5.262  49.155  1.00  0.00    -0.231 N 
HETATM   31  H1  UNL     1      26.936   5.824  49.510  1.00  0.00     0.174 HD
HETATM   32  H2  UNL     1      25.893   5.292  48.128  1.00  0.00     0.174 HD
ENDBRANCH   1  30
TORSDOF 5
ENDMDL
MODEL 6
REMARK VINA RESULT:      -9.2      2.800      7.218
REMARK  5 active torsions:
REMARK  status: ('A' for Active; 'I' for Inactive)
REMARK    1  A    between atoms: N1_1  and  C1_2 
REMARK    2  A    between atoms: C10_14  and  N4_15 
REMARK    3  A    between atoms: N4_15  and  C11_16 
REMARK    4  A    between atoms: C11_16  and  C12_17 
REMARK    5  A    between atoms: C12_17  and  C13_18 
ROOT
HETATM    1  C1  UNL     1      22.713   1.235  53.028  1.00  0.00     0.720 A 
HETATM    2  N2  UNL     1      23.950   0.945  53.212  1.00  0.00    -0.065 NA
HETATM    3  C2  UNL     1      24.753   1.924  52.531  1.00  0.00     0.209 A 
HETATM    4  C3  UNL     1      25.789   1.352  51.610  1.00  0.00     0.106 C 
HETATM    5  C4  UNL     1      26.726   0.728  52.616  1.00  0.00    -0.025 A 
HETATM    6  C5  UNL     1      27.557  -0.357  52.439  1.00  0.00     0.033 A 
HETATM    7  C6  UNL     1      28.304  -0.750  53.529  1.00  0.00     0.034 A 
HETATM    8 CL1  UNL     1      29.365  -2.128  53.317  1.00  0.00    -0.084 Cl
HETATM    9  C7  UNL     1      28.206  -0.076  54.723  1.00  0.00     0.026 A 
HETATM   10  C8  UNL     1      27.359   1.009  54.853  1.00  0.00     0.031 A 
HETATM   11  C9  UNL     1      26.568   1.469  53.792  1.00  0.00     0.036 A 
HETATM   12  N3  UNL     1      25.612   2.525  53.549  1.00  0.00    -0.355 N 
HETATM   13  C10 UNL     1      23.812   2.830  51.903  1.00  0.00     0.171 A 
HETATM   14  N5  UNL     1      22.609   2.398  52.220  1.00  0.00    -0.045 NA
HETATM   15  H8  UNL     1      25.723   3.399  54.093  1.00  0.00     0.162 HD
ENDROOT
BRANCH  13  16
HETATM   16  N4  UNL     1      23.867   3.972  51.060  1.00  0.00    -0.374 N 
HETATM   17  H9  UNL     1      23.717   4.882  51.609  1.00  0.00     0.161 HD
BRANCH  16  18
HETATM   18  C11 UNL     1      24.081   3.991  49.607  1.00  0.00     0.126 C 
BRANCH  18  19
HETATM   19  C12 UNL     1      25.507   4.384  49.399  1.00  0.00     0.059 C 
BRANCH  19  20
HETATM   20  C13 UNL     1      25.735   5.676  48.764  1.00  0.00    -0.045 A 
HETATM   21  C14 UNL     1      24.731   6.603  48.527  1.00  0.00     0.008 A 
HETATM   22  C15 UNL     1      24.892   7.847  47.939  1.00  0.00     0.001 A 
HETATM   23  C16 UNL     1      26.184   8.173  47.560  1.00  0.00     0.012 A 
HETATM   24  C17 UNL     1      27.211   7.274  47.779  1.00  0.00    -0.025 A 
HETATM   25  C18 UNL     1      28.501   7.631  47.370  1.00  0.00     0.012 A 
HETATM   26  C22 UNL     1      27.008   6.043  48.371  1.00  0.00    -0.020 A 
HETATM   27  C19 UNL     1      29.503   6.708  47.589  1.00  0.00     0.001 A 
HETATM   28  C20 UNL     1      29.347   5.470  48.172  1.00  0.00     0.001 A 
HETATM   29  C21 UNL     1      28.063   5.159  48.560  1.00  0.00     0.013 A 
ENDBRANCH  19  20
ENDBRANCH  18  19
ENDBRANCH  16  18
ENDBRANCH  13  16
BRANCH   1  30
HETATM   30  N1  UNL     1      21.493   0.597  53.479  1.00  0.00    -0.231 N 
HETATM   31  H1  UNL     1      21.333   0.456  54.486  1.00  0.00     0.174 HD
HETATM   32  H2  UNL     1      20.770   0.282  52.772  1.00  0.00     0.174 HD
ENDBRANCH   1  30
TORSDOF 5
ENDMDL
MODEL 7
REMARK VINA RESULT:      -9.1      2.684      4.265
REMARK  5 active torsions:
REMARK  status: ('A' for Active; 'I' for Inactive)
REMARK    1  A    between atoms: N1_1  and  C1_2 
REMARK    2  A    between atoms: C10_14  and  N4_15 
REMARK    3  A    between atoms: N4_15  and  C11_16 
REMARK    4  A    between atoms: C11_16  and  C12_17 
REMARK    5  A    between atoms: C12_17  and  C13_18 
ROOT
HETATM    1  C1  UNL     1      23.864   5.260  52.090  1.00  0.00     0.720 A 
HETATM    2  N2  UNL     1      24.738   5.459  51.171  1.00  0.00    -0.065 NA
HETATM    3  C2  UNL     1      24.301   4.792  49.975  1.00  0.00     0.209 A 
HETATM    4  C3  UNL     1      25.322   3.884  49.356  1.00  0.00     0.106 C 
HETATM    5  C4  UNL     1      26.330   4.900  48.876  1.00  0.00    -0.025 A 
HETATM    6  C5  UNL     1      27.686   4.731  48.705  1.00  0.00     0.033 A 
HETATM    7  C6  UNL     1      28.398   5.830  48.273  1.00  0.00     0.034 A 
HETATM    8 CL1  UNL     1      30.124   5.628  48.050  1.00  0.00    -0.084 Cl
HETATM    9  C7  UNL     1      27.762   7.025  48.033  1.00  0.00     0.026 A 
HETATM   10  C8  UNL     1      26.397   7.147  48.218  1.00  0.00     0.031 A 
HETATM   11  C9  UNL     1      25.605   6.077  48.654  1.00  0.00     0.036 A 
HETATM   12  N3  UNL     1      24.212   5.824  48.943  1.00  0.00    -0.355 N 
HETATM   13  C10 UNL     1      23.047   4.154  50.321  1.00  0.00     0.171 A 
HETATM   14  N5  UNL     1      22.811   4.454  51.581  1.00  0.00    -0.045 NA
HETATM   15  H8  UNL     1      23.511   6.372  48.414  1.00  0.00     0.162 HD
ENDROOT
BRANCH  13  16
HETATM   16  N4  UNL     1      22.093   3.316  49.685  1.00  0.00    -0.374 N 
HETATM   17  H9  UNL     1      21.251   3.873  49.320  1.00  0.00     0.161 HD
BRANCH  16  18
HETATM   18  C11 UNL     1      22.163   1.857  49.523  1.00  0.00     0.126 C 
BRANCH  18  19
HETATM   19  C12 UNL     1      21.651   1.270  50.798  1.00  0.00     0.059 C 
BRANCH  19  20
HETATM   20  C13 UNL     1      22.657   0.828  51.754  1.00  0.00    -0.045 A 
HETATM   21  C14 UNL     1      23.998   1.174  51.674  1.00  0.00     0.008 A 
HETATM   22  C15 UNL     1      24.993   0.792  52.559  1.00  0.00     0.001 A 
HETATM   23  C16 UNL     1      24.588  -0.009  53.614  1.00  0.00     0.012 A 
HETATM   24  C17 UNL     1      23.260  -0.375  53.728  1.00  0.00    -0.025 A 
HETATM   25  C18 UNL     1      22.890  -1.197  54.798  1.00  0.00     0.012 A 
HETATM   26  C22 UNL     1      22.297   0.028  52.823  1.00  0.00    -0.020 A 
HETATM   27  C19 UNL     1      21.560  -1.558  54.877  1.00  0.00     0.001 A 
HETATM   28  C20 UNL     1      20.568  -1.182  53.998  1.00  0.00     0.001 A 
HETATM   29  C21 UNL     1      20.975  -0.374  52.961  1.00  0.00     0.013 A 
ENDBRANCH  19  20
ENDBRANCH  18  19
ENDBRANCH  16  18
ENDBRANCH  13  16
BRANCH   1  30
HETATM   30  N1  UNL     1      23.796   5.692  53.470  1.00  0.00    -0.231 N 
HETATM   31  H1  UNL     1      24.658   5.964  53.963  1.00  0.00     0.174 HD
HETATM   32  H2  UNL     1      22.861   5.729  53.967  1.00  0.00     0.174 HD
ENDBRANCH   1  30
TORSDOF 5
ENDMDL
MODEL 8
REMARK VINA RESULT:      -9.0      2.859      7.131
REMARK  5 active torsions:
REMARK  status: ('A' for Active; 'I' for Inactive)
REMARK    1  A    between atoms: N1_1  and  C1_2 
REMARK    2  A    between atoms: C10_14  and  N4_15 
REMARK    3  A    between atoms: N4_15  and  C11_16 
REMARK    4  A    between atoms: C11_16  and  C12_17 
REMARK    5  A    between atoms: C12_17  and  C13_18 
ROOT
HETATM    1  C1  UNL     1      22.245  -0.013  53.871  1.00  0.00     0.720 A 
HETATM    2  N2  UNL     1      23.529  -0.022  53.853  1.00  0.00    -0.065 NA
HETATM    3  C2  UNL     1      23.979   1.019  52.969  1.00  0.00     0.209 A 
HETATM    4  C3  UNL     1      24.958   0.572  51.925  1.00  0.00     0.106 C 
HETATM    5  C4  UNL     1      26.156   0.268  52.792  1.00  0.00    -0.025 A 
HETATM    6  C5  UNL     1      27.166  -0.637  52.552  1.00  0.00     0.033 A 
HETATM    7  C6  UNL     1      28.144  -0.746  53.518  1.00  0.00     0.034 A 
HETATM    8 CL1  UNL     1      29.435  -1.893  53.225  1.00  0.00    -0.084 Cl
HETATM    9  C7  UNL     1      28.089   0.022  54.657  1.00  0.00     0.026 A 
HETATM   10  C8  UNL     1      27.055   0.919  54.854  1.00  0.00     0.031 A 
HETATM   11  C9  UNL     1      26.025   1.087  53.919  1.00  0.00     0.036 A 
HETATM   12  N3  UNL     1      24.834   1.892  53.771  1.00  0.00    -0.355 N 
HETATM   13  C10 UNL     1      22.775   1.638  52.452  1.00  0.00     0.171 A 
HETATM   14  N5  UNL     1      21.762   1.007  53.009  1.00  0.00    -0.045 NA
HETATM   15  H8  UNL     1      24.834   2.825  54.220  1.00  0.00     0.162 HD
ENDROOT
BRANCH  13  16
HETATM   16  N4  UNL     1      22.444   2.666  51.530  1.00  0.00    -0.374 N 
HETATM   17  H9  UNL     1      22.001   3.514  52.018  1.00  0.00     0.161 HD
BRANCH  16  18
HETATM   18  C11 UNL     1      22.634   2.646  50.074  1.00  0.00     0.126 C 
BRANCH  18  19
HETATM   19  C12 UNL     1      23.054   4.027  49.688  1.00  0.00     0.059 C 
BRANCH  19  20
HETATM   20  C13 UNL     1      24.479   4.226  49.453  1.00  0.00    -0.045 A 
HETATM   21  C14 UNL     1      25.444   3.267  49.724  1.00  0.00     0.008 A 
HETATM   22  C15 UNL     1      26.806   3.398  49.510  1.00  0.00     0.001 A 
HETATM   23  C16 UNL     1      27.220   4.608  48.977  1.00  0.00     0.012 A 
HETATM   24  C17 UNL     1      26.287   5.588  48.693  1.00  0.00    -0.025 A 
HETATM   25  C18 UNL     1      26.744   6.802  48.168  1.00  0.00     0.012 A 
HETATM   26  C22 UNL     1      24.936   5.417  48.920  1.00  0.00    -0.020 A 
HETATM   27  C19 UNL     1      25.792   7.767  47.909  1.00  0.00     0.001 A 
HETATM   28  C20 UNL     1      24.436   7.641  48.121  1.00  0.00     0.001 A 
HETATM   29  C21 UNL     1      24.030   6.432  48.638  1.00  0.00     0.013 A 
ENDBRANCH  19  20
ENDBRANCH  18  19
ENDBRANCH  16  18
ENDBRANCH  13  16
BRANCH   1  30
HETATM   30  N1  UNL     1      21.282  -0.832  54.577  1.00  0.00    -0.231 N 
HETATM   31  H1  UNL     1      20.619  -1.412  54.046  1.00  0.00     0.174 HD
HETATM   32  H2  UNL     1      21.266  -0.834  55.636  1.00  0.00     0.174 HD
ENDBRANCH   1  30
TORSDOF 5
ENDMDL
MODEL 9
REMARK VINA RESULT:      -8.8      3.195      5.684
REMARK  5 active torsions:
REMARK  status: ('A' for Active; 'I' for Inactive)
REMARK    1  A    between atoms: N1_1  and  C1_2 
REMARK    2  A    between atoms: C10_14  and  N4_15 
REMARK    3  A    between atoms: N4_15  and  C11_16 
REMARK    4  A    between atoms: C11_16  and  C12_17 
REMARK    5  A    between atoms: C12_17  and  C13_18 
ROOT
HETATM    1  C1  UNL     1      26.840   4.602  49.370  1.00  0.00     0.720 A 
HETATM    2  N2  UNL     1      25.603   4.923  49.490  1.00  0.00    -0.065 NA
HETATM    3  C2  UNL     1      24.964   3.961  50.345  1.00  0.00     0.209 A 
HETATM    4  C3  UNL     1      23.717   3.351  49.777  1.00  0.00     0.106 C 
HETATM    5  C4  UNL     1      22.797   4.548  49.801  1.00  0.00    -0.025 A 
HETATM    6  C5  UNL     1      21.727   4.810  48.974  1.00  0.00     0.033 A 
HETATM    7  C6  UNL     1      21.054   5.995  49.187  1.00  0.00     0.034 A 
HETATM    8 CL1  UNL     1      19.691   6.339  48.143  1.00  0.00    -0.084 Cl
HETATM    9  C7  UNL     1      21.452   6.855  50.183  1.00  0.00     0.026 A 
HETATM   10  C8  UNL     1      22.533   6.549  50.990  1.00  0.00     0.031 A 
HETATM   11  C9  UNL     1      23.267   5.365  50.836  1.00  0.00     0.036 A 
HETATM   12  N3  UNL     1      24.398   4.719  51.460  1.00  0.00    -0.355 N 
HETATM   13  C10 UNL     1      25.998   3.011  50.704  1.00  0.00     0.171 A 
HETATM   14  N5  UNL     1      27.102   3.421  50.115  1.00  0.00    -0.045 NA
HETATM   15  H8  UNL     1      24.558   4.909  52.464  1.00  0.00     0.162 HD
ENDROOT
BRANCH  13  16
HETATM   16  N4  UNL     1      26.097   1.812  51.458  1.00  0.00    -0.374 N 
HETATM   17  H9  UNL     1      26.880   1.174  51.095  1.00  0.00     0.161 HD
BRANCH  16  18
HETATM   18  C11 UNL     1      25.259   1.409  52.595  1.00  0.00     0.126 C 
BRANCH  18  19
HETATM   19  C12 UNL     1      23.963   0.942  52.015  1.00  0.00     0.059 C 
BRANCH  19  20
HETATM   20  C13 UNL     1      23.089   0.192  52.909  1.00  0.00    -0.045 A 
HETATM   21  C14 UNL     1      23.535  -0.469  54.044  1.00  0.00     0.008 A 
HETATM   22  C15 UNL     1      22.748  -1.184  54.931  1.00  0.00     0.001 A 
HETATM   23  C16 UNL     1      21.395  -1.231  54.639  1.00  0.00     0.012 A 
HETATM   24  C17 UNL     1      20.913  -0.584  53.516  1.00  0.00    -0.025 A 
HETATM   25  C18 UNL     1      19.543  -0.664  53.244  1.00  0.00     0.012 A 
HETATM   26  C22 UNL     1      21.732   0.121  52.655  1.00  0.00    -0.020 A 
HETATM   27  C19 UNL     1      19.094  -0.021  52.109  1.00  0.00     0.001 A 
HETATM   28  C20 UNL     1      19.872   0.691  51.222  1.00  0.00     0.001 A 
HETATM   29  C21 UNL     1      21.214   0.745  51.527  1.00  0.00     0.013 A 
ENDBRANCH  19  20
ENDBRANCH  18  19
ENDBRANCH  16  18
ENDBRANCH  13  16
BRANCH   1  30
HETATM   30  N1  UNL     1      27.931   5.210  48.637  1.00  0.00    -0.231 N 
HETATM   31  H1  UNL     1      28.792   5.478  49.133  1.00  0.00     0.174 HD
HETATM   32  H2  UNL     1      27.840   5.375  47.595  1.00  0.00     0.174 HD
ENDBRANCH   1  30
TORSDOF 5
ENDMDL
