MODEL 1
REMARK VINA RESULT:      -9.3      0.000      0.000
REMARK  7 active torsions:
REMARK  status: ('A' for Active; 'I' for Inactive)
REMARK    1  A    between atoms: O1_2  and  C2_3 
REMARK    2  A    between atoms: C6_9  and  N3_10 
REMARK    3  A    between atoms: N4_13  and  C9_14 
REMARK    4  A    between atoms: C9_14  and  N5_16 
REMARK    5  A    between atoms: N5_16  and  C10_17 
REMARK    6  A    between atoms: C10_17  and  C11_18 
REMARK    7  A    between atoms: C22_31  and  O4_32 
ROOT
HETATM    1  N3  UNL     1      23.006   2.812  51.701  1.00  0.00    -0.362 N 
HETATM    2  C7  UNL     1      23.116   3.019  50.262  1.00  0.00     0.144 C 
HETATM    3  C8  UNL     1      24.243   4.017  50.007  1.00  0.00     0.145 C 
HETATM    4  N4  UNL     1      23.881   5.342  50.430  1.00  0.00    -0.355 N 
HETATM    5  C18 UNL     1      23.577   5.207  51.807  1.00  0.00     0.145 C 
HETATM    6  C19 UNL     1      22.658   4.099  52.195  1.00  0.00     0.144 C 
ENDROOT
BRANCH   1   7
HETATM    7  C6  UNL     1      23.219   1.558  52.371  1.00  0.00     0.139 A 
HETATM    8  N2  UNL     1      22.233   0.648  52.297  1.00  0.00    -0.224 NA
HETATM    9  C5  UNL     1      22.349  -0.550  52.900  1.00  0.00     0.236 A 
HETATM   10  N1  UNL     1      23.464  -0.894  53.609  1.00  0.00    -0.241 NA
HETATM   11  C4  UNL     1      24.464  -0.002  53.698  1.00  0.00     0.075 A 
HETATM   12  C3  UNL     1      25.595  -0.339  54.408  1.00  0.00     0.072 A 
HETATM   13  C20 UNL     1      24.347   1.225  53.081  1.00  0.00     0.041 A 
HETATM   14  C2  UNL     1      26.636   0.558  54.511  1.00  0.00     0.103 A 
HETATM   15  C22 UNL     1      26.496   1.799  53.876  1.00  0.00     0.100 A 
HETATM   16  C21 UNL     1      25.363   2.153  53.158  1.00  0.00     0.057 A 
BRANCH  14  17
HETATM   17  O1  UNL     1      27.841   0.404  55.173  1.00  0.00    -0.353 OA
HETATM   18  C1  UNL     1      28.925  -0.200  54.510  1.00  0.00     0.210 C 
ENDBRANCH  14  17
BRANCH  15  19
HETATM   19  O4  UNL     1      27.490   2.768  53.923  1.00  0.00    -0.358 OA
HETATM   20  H23 UNL     1      27.352   3.486  54.637  1.00  0.00     0.217 HD
ENDBRANCH  15  19
ENDBRANCH   1   7
BRANCH   4  21
HETATM   21  C9  UNL     1      23.810   6.592  49.706  1.00  0.00     0.170 C 
HETATM   22  S1  UNL     1      22.751   7.663  50.334  1.00  0.00    -0.041 SA
BRANCH  21  23
HETATM   23  N5  UNL     1      24.611   6.825  48.560  1.00  0.00    -0.363 N 
HETATM   24  H10 UNL     1      24.372   6.188  47.738  1.00  0.00     0.162 HD
BRANCH  23  25
HETATM   25  C10 UNL     1      25.681   7.766  48.317  1.00  0.00     0.160 C 
BRANCH  25  26
HETATM   26  C11 UNL     1      27.000   7.118  48.182  1.00  0.00    -0.038 A 
HETATM   27  C12 UNL     1      26.978   5.773  48.568  1.00  0.00     0.012 A 
HETATM   28  C13 UNL     1      28.110   4.973  48.531  1.00  0.00     0.040 A 
HETATM   29  C14 UNL     1      29.322   5.460  48.111  1.00  0.00     0.105 A 
HETATM   30  C15 UNL     1      29.323   6.788  47.736  1.00  0.00     0.105 A 
HETATM   31  O3  UNL     1      30.606   4.968  47.953  1.00  0.00    -0.323 OA
HETATM   32  C16 UNL     1      28.205   7.597  47.767  1.00  0.00     0.048 A 
HETATM   33  O2  UNL     1      30.628   7.112  47.341  1.00  0.00    -0.323 OA
HETATM   34  C17 UNL     1      31.507   6.039  47.673  1.00  0.00     0.352 C 
ENDBRANCH  25  26
ENDBRANCH  23  25
ENDBRANCH  21  23
ENDBRANCH   4  21
TORSDOF 7
ENDMDL
MODEL 2
REMARK VINA RESULT:      -8.6      1.847      7.665
REMARK  7 active torsions:
REMARK  status: ('A' for Active; 'I' for Inactive)
REMARK    1  A    between atoms: O1_2  and  C2_3 
REMARK    2  A    between atoms: C6_9  and  N3_10 
REMARK    3  A    between atoms: N4_13  and  C9_14 
REMARK    4  A    between atoms: C9_14  and  N5_16 
REMARK    5  A    between atoms: N5_16  and  C10_17 
REMARK    6  A    between atoms: C10_17  and  C11_18 
REMARK    7  A    between atoms: C22_31  and  O4_32 
ROOT
HETATM    1  N3  UNL     1      23.765   4.709  49.947  1.00  0.00    -0.362 N 
HETATM    2  C7  UNL     1      23.339   3.399  49.471  1.00  0.00     0.144 C 
HETATM    3  C8  UNL     1      21.952   3.111  50.038  1.00  0.00     0.145 C 
HETATM    4  N4  UNL     1      22.000   2.866  51.453  1.00  0.00    -0.355 N 
HETATM    5  C18 UNL     1      22.576   4.039  52.000  1.00  0.00     0.145 C 
HETATM    6  C19 UNL     1      23.824   4.545  51.359  1.00  0.00     0.144 C 
ENDROOT
BRANCH   1   7
HETATM    7  C6  UNL     1      24.040   5.842  49.106  1.00  0.00     0.139 A 
HETATM    8  N2  UNL     1      22.990   6.586  48.718  1.00  0.00    -0.224 NA
HETATM    9  C5  UNL     1      23.159   7.662  47.927  1.00  0.00     0.236 A 
HETATM   10  N1  UNL     1      24.392   8.045  47.484  1.00  0.00    -0.241 NA
HETATM   11  C4  UNL     1      25.457   7.317  47.859  1.00  0.00     0.075 A 
HETATM   12  C3  UNL     1      26.708   7.696  47.421  1.00  0.00     0.072 A 
HETATM   13  C20 UNL     1      25.287   6.216  48.669  1.00  0.00     0.041 A 
HETATM   14  C2  UNL     1      27.817   6.967  47.795  1.00  0.00     0.103 A 
HETATM   15  C22 UNL     1      27.621   5.851  48.619  1.00  0.00     0.100 A 
HETATM   16  C21 UNL     1      26.368   5.459  49.067  1.00  0.00     0.057 A 
BRANCH  14  17
HETATM   17  O1  UNL     1      29.142   7.187  47.461  1.00  0.00    -0.353 OA
HETATM   18  C1  UNL     1      29.681   8.482  47.577  1.00  0.00     0.210 C 
ENDBRANCH  14  17
BRANCH  15  19
HETATM   19  O4  UNL     1      28.676   5.057  49.047  1.00  0.00    -0.358 OA
HETATM   20  H23 UNL     1      29.183   5.421  49.857  1.00  0.00     0.217 HD
ENDBRANCH  15  19
ENDBRANCH   1   7
BRANCH   4  21
HETATM   21  C9  UNL     1      21.583   1.728  52.241  1.00  0.00     0.170 C 
HETATM   22  S1  UNL     1      20.050   1.247  51.954  1.00  0.00    -0.041 SA
BRANCH  21  23
HETATM   23  N5  UNL     1      22.462   1.113  53.168  1.00  0.00    -0.363 N 
HETATM   24  H10 UNL     1      22.573   1.662  54.077  1.00  0.00     0.162 HD
BRANCH  23  25
HETATM   25  C10 UNL     1      23.222  -0.114  53.096  1.00  0.00     0.160 C 
BRANCH  25  26
HETATM   26  C11 UNL     1      24.677   0.100  53.217  1.00  0.00    -0.038 A 
HETATM   27  C12 UNL     1      25.188   0.896  52.185  1.00  0.00     0.012 A 
HETATM   28  C13 UNL     1      26.534   1.218  52.096  1.00  0.00     0.040 A 
HETATM   29  C14 UNL     1      27.444   0.770  53.019  1.00  0.00     0.105 A 
HETATM   30  C15 UNL     1      26.920  -0.013  54.027  1.00  0.00     0.105 A 
HETATM   31  O3  UNL     1      28.806   0.889  53.232  1.00  0.00    -0.323 OA
HETATM   32  C16 UNL     1      25.584  -0.342  54.130  1.00  0.00     0.048 A 
HETATM   33  O2  UNL     1      27.979  -0.377  54.869  1.00  0.00    -0.323 OA
HETATM   34  C17 UNL     1      29.217   0.000  54.271  1.00  0.00     0.352 C 
ENDBRANCH  25  26
ENDBRANCH  23  25
ENDBRANCH  21  23
ENDBRANCH   4  21
TORSDOF 7
ENDMDL
MODEL 3
REMARK VINA RESULT:      -8.5      1.560      2.046
REMARK  7 active torsions:
REMARK  status: ('A' for Active; 'I' for Inactive)
REMARK    1  A    between atoms: O1_2  and  C2_3 
REMARK    2  A    between atoms: C6_9  and  N3_10 
REMARK    3  A    between atoms: N4_13  and  C9_14 
REMARK    4  A    between atoms: C9_14  and  N5_16 
REMARK    5  A    between atoms: N5_16  and  C10_17 
REMARK    6  A    between atoms: C10_17  and  C11_18 
REMARK    7  A    between atoms: C22_31  and  O4_32 
ROOT
HETATM    1  N3  UNL     1      24.330   3.102  51.419  1.00  0.00    -0.362 N 
HETATM    2  C7  UNL     1      23.871   4.361  51.993  1.00  0.00     0.144 C 
HETATM    3  C8  UNL     1      22.605   4.789  51.257  1.00  0.00     0.145 C 
HETATM    4  N4  UNL     1      22.891   5.210  49.913  1.00  0.00    -0.355 N 
HETATM    5  C18 UNL     1      23.514   4.088  49.312  1.00  0.00     0.145 C 
HETATM    6  C19 UNL     1      24.624   3.441  50.069  1.00  0.00     0.144 C 
ENDROOT
BRANCH   1   7
HETATM    7  C6  UNL     1      24.429   1.859  52.133  1.00  0.00     0.139 A 
HETATM    8  N2  UNL     1      23.308   1.125  52.246  1.00  0.00    -0.224 NA
HETATM    9  C5  UNL     1      23.312  -0.049  52.903  1.00  0.00     0.236 A 
HETATM   10  N1  UNL     1      24.444  -0.547  53.481  1.00  0.00    -0.241 NA
HETATM   11  C4  UNL     1      25.577   0.167  53.382  1.00  0.00     0.075 A 
HETATM   12  C3  UNL     1      26.727  -0.327  53.960  1.00  0.00     0.072 A 
HETATM   13  C20 UNL     1      25.575   1.369  52.710  1.00  0.00     0.041 A 
HETATM   14  C2  UNL     1      27.904   0.386  53.869  1.00  0.00     0.103 A 
HETATM   15  C22 UNL     1      27.879   1.606  53.180  1.00  0.00     0.100 A 
HETATM   16  C21 UNL     1      26.729   2.115  52.595  1.00  0.00     0.057 A 
BRANCH  14  17
HETATM   17  O1  UNL     1      29.148   0.058  54.377  1.00  0.00    -0.353 OA
HETATM   18  C1  UNL     1      29.958  -0.864  53.687  1.00  0.00     0.210 C 
ENDBRANCH  14  17
BRANCH  15  19
HETATM   19  O4  UNL     1      29.013   2.394  53.036  1.00  0.00    -0.358 OA
HETATM   20  H23 UNL     1      29.719   2.262  53.764  1.00  0.00     0.217 HD
ENDBRANCH  15  19
ENDBRANCH   1   7
BRANCH   4  21
HETATM   21  C9  UNL     1      22.644   6.459  49.227  1.00  0.00     0.170 C 
HETATM   22  S1  UNL     1      21.152   6.574  48.577  1.00  0.00    -0.041 SA
BRANCH  21  23
HETATM   23  N5  UNL     1      23.637   7.468  49.154  1.00  0.00    -0.363 N 
HETATM   24  H10 UNL     1      23.726   7.906  48.185  1.00  0.00     0.162 HD
BRANCH  23  25
HETATM   25  C10 UNL     1      24.536   7.999  50.153  1.00  0.00     0.160 C 
BRANCH  25  26
HETATM   26  C11 UNL     1      25.939   8.049  49.698  1.00  0.00    -0.038 A 
HETATM   27  C12 UNL     1      26.259   6.998  48.831  1.00  0.00     0.012 A 
HETATM   28  C13 UNL     1      27.526   6.846  48.289  1.00  0.00     0.040 A 
HETATM   29  C14 UNL     1      28.543   7.721  48.576  1.00  0.00     0.105 A 
HETATM   30  C15 UNL     1      28.207   8.749  49.433  1.00  0.00     0.105 A 
HETATM   31  O3  UNL     1      29.874   7.868  48.230  1.00  0.00    -0.323 OA
HETATM   32  C16 UNL     1      26.951   8.915  49.980  1.00  0.00     0.048 A 
HETATM   33  O2  UNL     1      29.352   9.536  49.612  1.00  0.00    -0.323 OA
HETATM   34  C17 UNL     1      30.478   8.880  49.035  1.00  0.00     0.352 C 
ENDBRANCH  25  26
ENDBRANCH  23  25
ENDBRANCH  21  23
ENDBRANCH   4  21
TORSDOF 7
ENDMDL
MODEL 4
REMARK VINA RESULT:      -8.3      2.437      3.212
REMARK  7 active torsions:
REMARK  status: ('A' for Active; 'I' for Inactive)
REMARK    1  A    between atoms: O1_2  and  C2_3 
REMARK    2  A    between atoms: C6_9  and  N3_10 
REMARK    3  A    between atoms: N4_13  and  C9_14 
REMARK    4  A    between atoms: C9_14  and  N5_16 
REMARK    5  A    between atoms: N5_16  and  C10_17 
REMARK    6  A    between atoms: C10_17  and  C11_18 
REMARK    7  A    between atoms: C22_31  and  O4_32 
ROOT
HETATM    1  N3  UNL     1      22.779   2.639  51.580  1.00  0.00    -0.362 N 
HETATM    2  C7  UNL     1      21.958   3.738  52.072  1.00  0.00     0.144 C 
HETATM    3  C8  UNL     1      20.766   3.903  51.134  1.00  0.00     0.145 C 
HETATM    4  N4  UNL     1      21.166   4.434  49.860  1.00  0.00    -0.355 N 
HETATM    5  C18 UNL     1      22.118   3.506  49.369  1.00  0.00     0.145 C 
HETATM    6  C19 UNL     1      23.206   3.092  50.301  1.00  0.00     0.144 C 
ENDROOT
BRANCH   1   7
HETATM    7  C6  UNL     1      23.038   1.420  52.296  1.00  0.00     0.139 A 
HETATM    8  N2  UNL     1      22.092   0.467  52.249  1.00  0.00    -0.224 NA
HETATM    9  C5  UNL     1      22.254  -0.703  52.895  1.00  0.00     0.236 A 
HETATM   10  N1  UNL     1      23.376  -0.974  53.623  1.00  0.00    -0.241 NA
HETATM   11  C4  UNL     1      24.337  -0.038  53.685  1.00  0.00     0.075 A 
HETATM   12  C3  UNL     1      25.477  -0.302  54.414  1.00  0.00     0.072 A 
HETATM   13  C20 UNL     1      24.174   1.160  53.024  1.00  0.00     0.041 A 
HETATM   14  C2  UNL     1      26.479   0.642  54.491  1.00  0.00     0.103 A 
HETATM   15  C22 UNL     1      26.292   1.852  53.811  1.00  0.00     0.100 A 
HETATM   16  C21 UNL     1      25.150   2.132  53.074  1.00  0.00     0.057 A 
BRANCH  14  17
HETATM   17  O1  UNL     1      27.684   0.562  55.166  1.00  0.00    -0.353 OA
HETATM   18  C1  UNL     1      28.760  -0.133  54.584  1.00  0.00     0.210 C 
ENDBRANCH  14  17
BRANCH  15  19
HETATM   19  O4  UNL     1      27.243   2.862  53.829  1.00  0.00    -0.358 OA
HETATM   20  H23 UNL     1      27.093   3.577  54.544  1.00  0.00     0.217 HD
ENDBRANCH  15  19
ENDBRANCH   1   7
BRANCH   4  21
HETATM   21  C9  UNL     1      20.758   5.623  49.147  1.00  0.00     0.170 C 
HETATM   22  S1  UNL     1      20.432   5.372  47.568  1.00  0.00    -0.041 SA
BRANCH  21  23
HETATM   23  N5  UNL     1      20.659   6.877  49.802  1.00  0.00    -0.363 N 
HETATM   24  H10 UNL     1      19.815   7.453  49.491  1.00  0.00     0.162 HD
BRANCH  23  25
HETATM   25  C10 UNL     1      21.492   7.500  50.805  1.00  0.00     0.160 C 
BRANCH  25  26
HETATM   26  C11 UNL     1      22.888   7.681  50.366  1.00  0.00    -0.038 A 
HETATM   27  C12 UNL     1      23.768   6.794  50.997  1.00  0.00     0.012 A 
HETATM   28  C13 UNL     1      25.130   6.795  50.740  1.00  0.00     0.040 A 
HETATM   29  C14 UNL     1      25.695   7.671  49.848  1.00  0.00     0.105 A 
HETATM   30  C15 UNL     1      24.811   8.537  49.238  1.00  0.00     0.105 A 
HETATM   31  O3  UNL     1      26.964   7.943  49.367  1.00  0.00    -0.323 OA
HETATM   32  C16 UNL     1      23.453   8.549  49.482  1.00  0.00     0.048 A 
HETATM   33  O2  UNL     1      25.552   9.350  48.370  1.00  0.00    -0.323 OA
HETATM   34  C17 UNL     1      26.945   9.141  48.592  1.00  0.00     0.352 C 
ENDBRANCH  25  26
ENDBRANCH  23  25
ENDBRANCH  21  23
ENDBRANCH   4  21
TORSDOF 7
ENDMDL
MODEL 5
REMARK VINA RESULT:      -8.2      2.076      8.326
REMARK  7 active torsions:
REMARK  status: ('A' for Active; 'I' for Inactive)
REMARK    1  A    between atoms: O1_2  and  C2_3 
REMARK    2  A    between atoms: C6_9  and  N3_10 
REMARK    3  A    between atoms: N4_13  and  C9_14 
REMARK    4  A    between atoms: C9_14  and  N5_16 
REMARK    5  A    between atoms: N5_16  and  C10_17 
REMARK    6  A    between atoms: C10_17  and  C11_18 
REMARK    7  A    between atoms: C22_31  and  O4_32 
ROOT
HETATM    1  N3  UNL     1      26.989   5.973  48.708  1.00  0.00    -0.362 N 
HETATM    2  C7  UNL     1      25.547   6.186  48.755  1.00  0.00     0.144 C 
HETATM    3  C8  UNL     1      25.040   5.735  50.121  1.00  0.00     0.145 C 
HETATM    4  N4  UNL     1      25.092   4.306  50.259  1.00  0.00    -0.355 N 
HETATM    5  C18 UNL     1      26.454   3.976  50.051  1.00  0.00     0.145 C 
HETATM    6  C19 UNL     1      27.120   4.564  48.853  1.00  0.00     0.144 C 
ENDROOT
BRANCH   1   7
HETATM    7  C6  UNL     1      27.970   7.011  48.550  1.00  0.00     0.139 A 
HETATM    8  N2  UNL     1      27.560   8.277  48.735  1.00  0.00    -0.224 NA
HETATM    9  C5  UNL     1      28.415   9.308  48.601  1.00  0.00     0.236 A 
HETATM   10  N1  UNL     1      29.726   9.119  48.274  1.00  0.00    -0.241 NA
HETATM   11  C4  UNL     1      30.161   7.863  48.083  1.00  0.00     0.075 A 
HETATM   12  C3  UNL     1      31.484   7.659  47.754  1.00  0.00     0.072 A 
HETATM   13  C20 UNL     1      29.288   6.806  48.220  1.00  0.00     0.041 A 
HETATM   14  C2  UNL     1      31.955   6.379  47.557  1.00  0.00     0.103 A 
HETATM   15  C22 UNL     1      31.050   5.319  47.702  1.00  0.00     0.100 A 
HETATM   16  C21 UNL     1      29.716   5.509  48.031  1.00  0.00     0.057 A 
BRANCH  14  17
HETATM   17  O1  UNL     1      33.236   5.976  47.226  1.00  0.00    -0.353 OA
HETATM   18  C1  UNL     1      34.340   6.675  47.749  1.00  0.00     0.210 C 
ENDBRANCH  14  17
BRANCH  15  19
HETATM   19  O4  UNL     1      31.430   3.996  47.523  1.00  0.00    -0.358 OA
HETATM   20  H23 UNL     1      32.006   3.826  46.695  1.00  0.00     0.217 HD
ENDBRANCH  15  19
ENDBRANCH   1   7
BRANCH   4  21
HETATM   21  C9  UNL     1      24.060   3.334  50.546  1.00  0.00     0.170 C 
HETATM   22  S1  UNL     1      22.543   3.916  50.403  1.00  0.00    -0.041 SA
BRANCH  21  23
HETATM   23  N5  UNL     1      24.384   2.003  50.910  1.00  0.00    -0.363 N 
HETATM   24  H10 UNL     1      24.692   1.400  50.085  1.00  0.00     0.162 HD
BRANCH  23  25
HETATM   25  C10 UNL     1      24.369   1.331  52.190  1.00  0.00     0.160 C 
BRANCH  25  26
HETATM   26  C11 UNL     1      25.713   0.931  52.647  1.00  0.00    -0.038 A 
HETATM   27  C12 UNL     1      26.485   2.023  53.062  1.00  0.00     0.012 A 
HETATM   28  C13 UNL     1      27.785   1.878  53.523  1.00  0.00     0.040 A 
HETATM   29  C14 UNL     1      28.390   0.649  53.596  1.00  0.00     0.105 A 
HETATM   30  C15 UNL     1      27.614  -0.413  53.182  1.00  0.00     0.105 A 
HETATM   31  O3  UNL     1      29.622   0.154  53.988  1.00  0.00    -0.323 OA
HETATM   32  C16 UNL     1      26.319  -0.286  52.722  1.00  0.00     0.048 A 
HETATM   33  O2  UNL     1      28.382  -1.575  53.324  1.00  0.00    -0.323 OA
HETATM   34  C17 UNL     1      29.730  -1.222  53.628  1.00  0.00     0.352 C 
ENDBRANCH  25  26
ENDBRANCH  23  25
ENDBRANCH  21  23
ENDBRANCH   4  21
TORSDOF 7
ENDMDL
MODEL 6
REMARK VINA RESULT:      -8.2      2.548      8.568
REMARK  7 active torsions:
REMARK  status: ('A' for Active; 'I' for Inactive)
REMARK    1  A    between atoms: O1_2  and  C2_3 
REMARK    2  A    between atoms: C6_9  and  N3_10 
REMARK    3  A    between atoms: N4_13  and  C9_14 
REMARK    4  A    between atoms: C9_14  and  N5_16 
REMARK    5  A    between atoms: N5_16  and  C10_17 
REMARK    6  A    between atoms: C10_17  and  C11_18 
REMARK    7  A    between atoms: C22_31  and  O4_32 
ROOT
HETATM    1  N3  UNL     1      27.258   5.410  48.700  1.00  0.00    -0.362 N 
HETATM    2  C7  UNL     1      25.991   6.128  48.643  1.00  0.00     0.144 C 
HETATM    3  C8  UNL     1      25.359   6.097  50.031  1.00  0.00     0.145 C 
HETATM    4  N4  UNL     1      24.893   4.781  50.370  1.00  0.00    -0.355 N 
HETATM    5  C18 UNL     1      26.044   3.959  50.280  1.00  0.00     0.145 C 
HETATM    6  C19 UNL     1      26.874   4.086  49.048  1.00  0.00     0.144 C 
ENDROOT
BRANCH   1   7
HETATM    7  C6  UNL     1      28.548   5.994  48.448  1.00  0.00     0.139 A 
HETATM    8  N2  UNL     1      29.531   5.165  48.058  1.00  0.00    -0.224 NA
HETATM    9  C5  UNL     1      30.769   5.629  47.806  1.00  0.00     0.236 A 
HETATM   10  N1  UNL     1      31.082   6.952  47.933  1.00  0.00    -0.241 NA
HETATM   11  C4  UNL     1      30.116   7.801  48.322  1.00  0.00     0.075 A 
HETATM   12  C3  UNL     1      30.420   9.139  48.451  1.00  0.00     0.072 A 
HETATM   13  C20 UNL     1      28.849   7.328  48.580  1.00  0.00     0.041 A 
HETATM   14  C2  UNL     1      29.445  10.031  48.845  1.00  0.00     0.103 A 
HETATM   15  C22 UNL     1      28.163   9.528  49.102  1.00  0.00     0.100 A 
HETATM   16  C21 UNL     1      27.844   8.184  48.977  1.00  0.00     0.057 A 
BRANCH  14  17
HETATM   17  O1  UNL     1      29.555  11.397  49.028  1.00  0.00    -0.353 OA
HETATM   18  C1  UNL     1      29.747  12.234  47.913  1.00  0.00     0.210 C 
ENDBRANCH  14  17
BRANCH  15  19
HETATM   19  O4  UNL     1      27.117  10.347  49.504  1.00  0.00    -0.358 OA
HETATM   20  H23 UNL     1      27.359  11.020  50.235  1.00  0.00     0.217 HD
ENDBRANCH  15  19
ENDBRANCH   1   7
BRANCH   4  21
HETATM   21  C9  UNL     1      23.581   4.295  50.737  1.00  0.00     0.170 C 
HETATM   22  S1  UNL     1      22.372   5.343  50.418  1.00  0.00    -0.041 SA
BRANCH  21  23
HETATM   23  N5  UNL     1      23.406   3.013  51.316  1.00  0.00    -0.363 N 
HETATM   24  H10 UNL     1      23.311   2.231  50.595  1.00  0.00     0.162 HD
BRANCH  23  25
HETATM   25  C10 UNL     1      23.336   2.587  52.695  1.00  0.00     0.160 C 
BRANCH  25  26
HETATM   26  C11 UNL     1      24.508   1.796  53.116  1.00  0.00    -0.038 A 
HETATM   27  C12 UNL     1      24.312   0.420  52.954  1.00  0.00     0.012 A 
HETATM   28  C13 UNL     1      25.281  -0.511  53.294  1.00  0.00     0.040 A 
HETATM   29  C14 UNL     1      26.493  -0.133  53.813  1.00  0.00     0.105 A 
HETATM   30  C15 UNL     1      26.666   1.227  53.966  1.00  0.00     0.105 A 
HETATM   31  O3  UNL     1      27.645  -0.764  54.248  1.00  0.00    -0.323 OA
HETATM   32  C16 UNL     1      25.713   2.167  53.632  1.00  0.00     0.048 A 
HETATM   33  O2  UNL     1      27.945   1.430  54.502  1.00  0.00    -0.323 OA
HETATM   34  C17 UNL     1      28.503   0.177  54.892  1.00  0.00     0.352 C 
ENDBRANCH  25  26
ENDBRANCH  23  25
ENDBRANCH  21  23
ENDBRANCH   4  21
TORSDOF 7
ENDMDL
MODEL 7
REMARK VINA RESULT:      -8.1      2.768      8.133
REMARK  7 active torsions:
REMARK  status: ('A' for Active; 'I' for Inactive)
REMARK    1  A    between atoms: O1_2  and  C2_3 
REMARK    2  A    between atoms: C6_9  and  N3_10 
REMARK    3  A    between atoms: N4_13  and  C9_14 
REMARK    4  A    between atoms: C9_14  and  N5_16 
REMARK    5  A    between atoms: N5_16  and  C10_17 
REMARK    6  A    between atoms: C10_17  and  C11_18 
REMARK    7  A    between atoms: C22_31  and  O4_32 
ROOT
HETATM    1  N3  UNL     1      24.166   6.439  49.239  1.00  0.00    -0.362 N 
HETATM    2  C7  UNL     1      24.658   5.070  49.337  1.00  0.00     0.144 C 
HETATM    3  C8  UNL     1      23.485   4.123  49.108  1.00  0.00     0.145 C 
HETATM    4  N4  UNL     1      22.565   4.144  50.211  1.00  0.00    -0.355 N 
HETATM    5  C18 UNL     1      22.157   5.497  50.311  1.00  0.00     0.145 C 
HETATM    6  C19 UNL     1      23.230   6.532  50.306  1.00  0.00     0.144 C 
ENDROOT
BRANCH   1   7
HETATM    7  C6  UNL     1      24.591   7.399  48.257  1.00  0.00     0.139 A 
HETATM    8  N2  UNL     1      24.026   7.322  47.039  1.00  0.00    -0.224 NA
HETATM    9  C5  UNL     1      24.371   8.179  46.061  1.00  0.00     0.236 A 
HETATM   10  N1  UNL     1      25.301   9.159  46.255  1.00  0.00    -0.241 NA
HETATM   11  C4  UNL     1      25.880   9.257  47.464  1.00  0.00     0.075 A 
HETATM   12  C3  UNL     1      26.819  10.244  47.673  1.00  0.00     0.072 A 
HETATM   13  C20 UNL     1      25.529   8.380  48.467  1.00  0.00     0.041 A 
HETATM   14  C2  UNL     1      27.425  10.367  48.905  1.00  0.00     0.103 A 
HETATM   15  C22 UNL     1      27.052   9.465  49.911  1.00  0.00     0.100 A 
HETATM   16  C21 UNL     1      26.109   8.467  49.714  1.00  0.00     0.057 A 
BRANCH  14  17
HETATM   17  O1  UNL     1      28.380  11.284  49.305  1.00  0.00    -0.353 OA
HETATM   18  C1  UNL     1      28.307  12.610  48.838  1.00  0.00     0.210 C 
ENDBRANCH  14  17
BRANCH  15  19
HETATM   19  O4  UNL     1      27.607   9.510  51.183  1.00  0.00    -0.358 OA
HETATM   20  H23 UNL     1      26.929   9.629  51.940  1.00  0.00     0.217 HD
ENDBRANCH  15  19
ENDBRANCH   1   7
BRANCH   4  21
HETATM   21  C9  UNL     1      22.092   3.092  51.083  1.00  0.00     0.170 C 
HETATM   22  S1  UNL     1      20.731   3.470  51.901  1.00  0.00    -0.041 SA
BRANCH  21  23
HETATM   23  N5  UNL     1      22.778   1.856  51.185  1.00  0.00    -0.363 N 
HETATM   24  H10 UNL     1      22.957   1.390  50.241  1.00  0.00     0.162 HD
BRANCH  23  25
HETATM   25  C10 UNL     1      23.271   1.127  52.332  1.00  0.00     0.160 C 
BRANCH  25  26
HETATM   26  C11 UNL     1      24.702   1.367  52.597  1.00  0.00    -0.038 A 
HETATM   27  C12 UNL     1      25.342   2.015  51.534  1.00  0.00     0.012 A 
HETATM   28  C13 UNL     1      26.692   2.331  51.564  1.00  0.00     0.040 A 
HETATM   29  C14 UNL     1      27.480   2.024  52.645  1.00  0.00     0.105 A 
HETATM   30  C15 UNL     1      26.830   1.385  53.681  1.00  0.00     0.105 A 
HETATM   31  O3  UNL     1      28.807   2.182  53.002  1.00  0.00    -0.323 OA
HETATM   32  C16 UNL     1      25.488   1.064  53.667  1.00  0.00     0.048 A 
HETATM   33  O2  UNL     1      27.776   1.151  54.688  1.00  0.00    -0.323 OA
HETATM   34  C17 UNL     1      29.081   1.451  54.197  1.00  0.00     0.352 C 
ENDBRANCH  25  26
ENDBRANCH  23  25
ENDBRANCH  21  23
ENDBRANCH   4  21
TORSDOF 7
ENDMDL
MODEL 8
REMARK VINA RESULT:      -7.9      4.497      6.265
REMARK  7 active torsions:
REMARK  status: ('A' for Active; 'I' for Inactive)
REMARK    1  A    between atoms: O1_2  and  C2_3 
REMARK    2  A    between atoms: C6_9  and  N3_10 
REMARK    3  A    between atoms: N4_13  and  C9_14 
REMARK    4  A    between atoms: C9_14  and  N5_16 
REMARK    5  A    between atoms: N5_16  and  C10_17 
REMARK    6  A    between atoms: C10_17  and  C11_18 
REMARK    7  A    between atoms: C22_31  and  O4_32 
ROOT
HETATM    1  N3  UNL     1      24.697   1.123  53.087  1.00  0.00    -0.362 N 
HETATM    2  C7  UNL     1      24.912   2.509  53.484  1.00  0.00     0.144 C 
HETATM    3  C8  UNL     1      24.219   3.412  52.467  1.00  0.00     0.145 C 
HETATM    4  N4  UNL     1      24.898   3.399  51.200  1.00  0.00    -0.355 N 
HETATM    5  C18 UNL     1      24.897   2.038  50.807  1.00  0.00     0.145 C 
HETATM    6  C19 UNL     1      25.338   1.038  51.821  1.00  0.00     0.144 C 
ENDROOT
BRANCH   1   7
HETATM    7  C6  UNL     1      23.987   0.144  53.865  1.00  0.00     0.139 A 
HETATM    8  N2  UNL     1      24.693  -0.540  54.782  1.00  0.00    -0.224 NA
HETATM    9  C5  UNL     1      24.106  -1.477  55.549  1.00  0.00     0.236 A 
HETATM   10  N1  UNL     1      22.779  -1.775  55.434  1.00  0.00    -0.241 NA
HETATM   11  C4  UNL     1      22.052  -1.105  54.525  1.00  0.00     0.075 A 
HETATM   12  C3  UNL     1      20.710  -1.395  54.401  1.00  0.00     0.072 A 
HETATM   13  C20 UNL     1      22.650  -0.145  53.739  1.00  0.00     0.041 A 
HETATM   14  C2  UNL     1      19.942  -0.718  53.478  1.00  0.00     0.103 A 
HETATM   15  C22 UNL     1      20.571   0.254  52.690  1.00  0.00     0.100 A 
HETATM   16  C21 UNL     1      21.920   0.556  52.802  1.00  0.00     0.057 A 
BRANCH  14  17
HETATM   17  O1  UNL     1      18.593  -0.866  53.210  1.00  0.00    -0.353 OA
HETATM   18  C1  UNL     1      17.950  -2.076  53.531  1.00  0.00     0.210 C 
ENDBRANCH  14  17
BRANCH  15  19
HETATM   19  O4  UNL     1      19.881   0.987  51.734  1.00  0.00    -0.358 OA
HETATM   20  H23 UNL     1      20.381   1.807  51.382  1.00  0.00     0.217 HD
ENDBRANCH  15  19
ENDBRANCH   1   7
BRANCH   4  21
HETATM   21  C9  UNL     1      25.483   4.465  50.418  1.00  0.00     0.170 C 
HETATM   22  S1  UNL     1      26.725   3.989  49.472  1.00  0.00    -0.041 SA
BRANCH  21  23
HETATM   23  N5  UNL     1      24.988   5.791  50.492  1.00  0.00    -0.363 N 
HETATM   24  H10 UNL     1      25.503   6.397  51.205  1.00  0.00     0.162 HD
BRANCH  23  25
HETATM   25  C10 UNL     1      23.921   6.455  49.779  1.00  0.00     0.160 C 
BRANCH  25  26
HETATM   26  C11 UNL     1      22.891   5.523  49.282  1.00  0.00    -0.038 A 
HETATM   27  C12 UNL     1      22.957   5.342  47.895  1.00  0.00     0.012 A 
HETATM   28  C13 UNL     1      22.078   4.514  47.214  1.00  0.00     0.040 A 
HETATM   29  C14 UNL     1      21.088   3.824  47.865  1.00  0.00     0.105 A 
HETATM   30  C15 UNL     1      21.039   4.016  49.230  1.00  0.00     0.105 A 
HETATM   31  O3  UNL     1      20.075   2.946  47.519  1.00  0.00    -0.323 OA
HETATM   32  C16 UNL     1      21.907   4.835  49.923  1.00  0.00     0.048 A 
HETATM   33  O2  UNL     1      19.981   3.243  49.726  1.00  0.00    -0.323 OA
HETATM   34  C17 UNL     1      19.218   2.725  48.638  1.00  0.00     0.352 C 
ENDBRANCH  25  26
ENDBRANCH  23  25
ENDBRANCH  21  23
ENDBRANCH   4  21
TORSDOF 7
ENDMDL
MODEL 9
REMARK VINA RESULT:      -7.9      3.804      6.406
REMARK  7 active torsions:
REMARK  status: ('A' for Active; 'I' for Inactive)
REMARK    1  A    between atoms: O1_2  and  C2_3 
REMARK    2  A    between atoms: C6_9  and  N3_10 
REMARK    3  A    between atoms: N4_13  and  C9_14 
REMARK    4  A    between atoms: C9_14  and  N5_16 
REMARK    5  A    between atoms: N5_16  and  C10_17 
REMARK    6  A    between atoms: C10_17  and  C11_18 
REMARK    7  A    between atoms: C22_31  and  O4_32 
ROOT
HETATM    1  N3  UNL     1      23.310   2.476  51.920  1.00  0.00    -0.362 N 
HETATM    2  C7  UNL     1      23.175   2.443  50.469  1.00  0.00     0.144 C 
HETATM    3  C8  UNL     1      24.107   3.497  49.878  1.00  0.00     0.145 C 
HETATM    4  N4  UNL     1      23.638   4.828  50.148  1.00  0.00    -0.355 N 
HETATM    5  C18 UNL     1      23.564   4.901  51.561  1.00  0.00     0.145 C 
HETATM    6  C19 UNL     1      22.870   3.784  52.263  1.00  0.00     0.144 C 
ENDROOT
BRANCH   1   7
HETATM    7  C6  UNL     1      23.786   1.386  52.728  1.00  0.00     0.139 A 
HETATM    8  N2  UNL     1      22.874   0.497  53.159  1.00  0.00    -0.224 NA
HETATM    9  C5  UNL     1      23.235  -0.549  53.924  1.00  0.00     0.236 A 
HETATM   10  N1  UNL     1      24.532  -0.756  54.296  1.00  0.00    -0.241 NA
HETATM   11  C4  UNL     1      25.462   0.119  53.879  1.00  0.00     0.075 A 
HETATM   12  C3  UNL     1      26.776  -0.081  54.246  1.00  0.00     0.072 A 
HETATM   13  C20 UNL     1      25.095   1.190  53.095  1.00  0.00     0.041 A 
HETATM   14  C2  UNL     1      27.749   0.800  53.827  1.00  0.00     0.103 A 
HETATM   15  C22 UNL     1      27.353   1.883  53.031  1.00  0.00     0.100 A 
HETATM   16  C21 UNL     1      26.035   2.097  52.654  1.00  0.00     0.057 A 
BRANCH  14  17
HETATM   17  O1  UNL     1      29.107   0.768  54.089  1.00  0.00    -0.353 OA
HETATM   18  C1  UNL     1      29.879  -0.310  53.618  1.00  0.00     0.210 C 
ENDBRANCH  14  17
BRANCH  15  19
HETATM   19  O4  UNL     1      28.260   2.823  52.562  1.00  0.00    -0.358 OA
HETATM   20  H23 UNL     1      27.843   3.708  52.265  1.00  0.00     0.217 HD
ENDBRANCH  15  19
ENDBRANCH   1   7
BRANCH   4  21
HETATM   21  C9  UNL     1      23.294   5.919  49.264  1.00  0.00     0.170 C 
HETATM   22  S1  UNL     1      24.471   7.037  49.100  1.00  0.00    -0.041 SA
BRANCH  21  23
HETATM   23  N5  UNL     1      22.035   5.972  48.614  1.00  0.00    -0.363 N 
HETATM   24  H10 UNL     1      21.628   6.957  48.556  1.00  0.00     0.162 HD
BRANCH  23  25
HETATM   25  C10 UNL     1      21.219   4.935  48.024  1.00  0.00     0.160 C 
BRANCH  25  26
HETATM   26  C11 UNL     1      19.967   4.693  48.767  1.00  0.00    -0.038 A 
HETATM   27  C12 UNL     1      18.831   4.834  47.962  1.00  0.00     0.012 A 
HETATM   28  C13 UNL     1      17.547   4.660  48.456  1.00  0.00     0.040 A 
HETATM   29  C14 UNL     1      17.318   4.339  49.770  1.00  0.00     0.105 A 
HETATM   30  C15 UNL     1      18.451   4.205  50.546  1.00  0.00     0.105 A 
HETATM   31  O3  UNL     1      16.216   4.101  50.573  1.00  0.00    -0.323 OA
HETATM   32  C16 UNL     1      19.735   4.374  50.070  1.00  0.00     0.048 A 
HETATM   33  O2  UNL     1      18.034   3.880  51.844  1.00  0.00    -0.323 OA
HETATM   34  C17 UNL     1      16.618   4.020  51.940  1.00  0.00     0.352 C 
ENDBRANCH  25  26
ENDBRANCH  23  25
ENDBRANCH  21  23
ENDBRANCH   4  21
TORSDOF 7
ENDMDL
