MODEL 1
REMARK VINA RESULT:      -8.3      0.000      0.000
REMARK  7 active torsions:
REMARK  status: ('A' for Active; 'I' for Inactive)
REMARK    1  A    between atoms: C2_2  and  C3_3 
REMARK    2  A    between atoms: C4_4  and  N1_5 
REMARK       I    between atoms: N1_5  and  C5_6 
REMARK       I    between atoms: C5_6  and  N2_8 
REMARK    3  A    between atoms: N2_8  and  C6_9 
REMARK    4  A    between atoms: C9_12  and  O2_13 
REMARK    5  A    between atoms: O2_13  and  C10_14 
REMARK    6  A    between atoms: C14_20  and  O3_21 
REMARK    7  A    between atoms: C16_23  and  O4_24 
ROOT
HETATM    1  C6  UNL     1      25.629   4.404  49.917  1.00  0.00     0.036 A 
HETATM    2  C7  UNL     1      25.319   5.739  49.780  1.00  0.00     0.032 A 
HETATM    3  C8  UNL     1      26.178   6.570  49.056  1.00  0.00     0.039 A 
HETATM    4  C9  UNL     1      27.308   5.998  48.510  1.00  0.00     0.078 A 
HETATM    5  C20 UNL     1      27.641   4.667  48.631  1.00  0.00     0.039 A 
HETATM    6  C21 UNL     1      26.767   3.861  49.357  1.00  0.00     0.032 A 
ENDROOT
BRANCH   4   7
HETATM    7  O2  UNL     1      28.225   6.744  47.771  1.00  0.00    -0.291 OA
BRANCH   7   8
HETATM    8  C10 UNL     1      29.203   7.527  48.356  1.00  0.00     0.183 A 
HETATM    9  N3  UNL     1      28.824   8.752  48.762  1.00  0.00    -0.217 NA
HETATM   10  C11 UNL     1      29.740   9.549  49.335  1.00  0.00     0.236 A 
HETATM   11  N4  UNL     1      31.024   9.123  49.500  1.00  0.00    -0.241 NA
HETATM   12  C12 UNL     1      31.376   7.888  49.082  1.00  0.00     0.075 A 
HETATM   13  C13 UNL     1      32.692   7.484  49.264  1.00  0.00     0.072 A 
HETATM   14  C19 UNL     1      30.463   7.026  48.483  1.00  0.00     0.049 A 
HETATM   15  C14 UNL     1      33.028   6.220  48.831  1.00  0.00     0.103 A 
HETATM   16  C16 UNL     1      32.137   5.353  48.235  1.00  0.00     0.102 A 
HETATM   17  C18 UNL     1      30.818   5.760  48.053  1.00  0.00     0.057 A 
BRANCH  15  18
HETATM   18  O3  UNL     1      34.338   5.788  49.000  1.00  0.00    -0.353 OA
HETATM   19  C15 UNL     1      35.471   6.516  48.626  1.00  0.00     0.210 C 
ENDBRANCH  15  18
BRANCH  16  20
HETATM   20  O4  UNL     1      32.555   4.114  47.834  1.00  0.00    -0.353 OA
HETATM   21  C17 UNL     1      32.009   3.505  46.672  1.00  0.00     0.210 C 
ENDBRANCH  16  20
ENDBRANCH   7   8
ENDBRANCH   4   7
BRANCH   1  22
HETATM   22  N2  UNL     1      24.656   3.701  50.678  1.00  0.00    -0.309 N 
HETATM   23  C5  UNL     1      24.851   2.687  51.655  1.00  0.00     0.324 C 
HETATM   24  N1  UNL     1      23.637   2.208  52.214  1.00  0.00    -0.319 N 
HETATM   25  O1  UNL     1      25.985   2.255  51.991  1.00  0.00    -0.247 OA
HETATM   26  H6  UNL     1      22.684   2.547  51.953  1.00  0.00     0.170 HD
HETATM   27  H7  UNL     1      23.728   4.073  50.383  1.00  0.00     0.170 HD
BRANCH  24  28
HETATM   28  C4  UNL     1      23.651   1.190  53.208  1.00  0.00     0.092 C 
HETATM   29  C3  UNL     1      22.653   0.295  53.286  1.00  0.00     0.016 C 
BRANCH  29  30
HETATM   30  C2  UNL     1      22.501  -0.812  54.234  1.00  0.00    -0.009 C 
HETATM   31  C1  UNL     1      21.349  -1.367  54.564  1.00  0.00     0.011 C 
ENDBRANCH  29  30
ENDBRANCH  24  28
ENDBRANCH   1  22
TORSDOF 7
ENDMDL
MODEL 2
REMARK VINA RESULT:      -7.9      6.908      9.746
REMARK  7 active torsions:
REMARK  status: ('A' for Active; 'I' for Inactive)
REMARK    1  A    between atoms: C2_2  and  C3_3 
REMARK    2  A    between atoms: C4_4  and  N1_5 
REMARK       I    between atoms: N1_5  and  C5_6 
REMARK       I    between atoms: C5_6  and  N2_8 
REMARK    3  A    between atoms: N2_8  and  C6_9 
REMARK    4  A    between atoms: C9_12  and  O2_13 
REMARK    5  A    between atoms: O2_13  and  C10_14 
REMARK    6  A    between atoms: C14_20  and  O3_21 
REMARK    7  A    between atoms: C16_23  and  O4_24 
ROOT
HETATM    1  C6  UNL     1      18.220  -0.271  52.196  1.00  0.00     0.036 A 
HETATM    2  C7  UNL     1      19.153  -0.510  53.180  1.00  0.00     0.032 A 
HETATM    3  C8  UNL     1      20.499  -0.226  52.931  1.00  0.00     0.039 A 
HETATM    4  C9  UNL     1      20.823   0.287  51.691  1.00  0.00     0.078 A 
HETATM    5  C20 UNL     1      19.909   0.536  50.690  1.00  0.00     0.039 A 
HETATM    6  C21 UNL     1      18.575   0.243  50.967  1.00  0.00     0.032 A 
ENDROOT
BRANCH   4   7
HETATM    7  O2  UNL     1      22.136   0.602  51.348  1.00  0.00    -0.291 OA
BRANCH   7   8
HETATM    8  C10 UNL     1      22.836   1.645  51.926  1.00  0.00     0.183 A 
HETATM    9  N3  UNL     1      22.317   2.875  51.764  1.00  0.00    -0.217 NA
HETATM   10  C11 UNL     1      22.963   3.919  52.308  1.00  0.00     0.236 A 
HETATM   11  N4  UNL     1      24.117   3.732  53.009  1.00  0.00    -0.241 NA
HETATM   12  C12 UNL     1      24.614   2.485  53.156  1.00  0.00     0.075 A 
HETATM   13  C13 UNL     1      25.791   2.329  53.876  1.00  0.00     0.072 A 
HETATM   14  C19 UNL     1      23.981   1.372  52.610  1.00  0.00     0.049 A 
HETATM   15  C14 UNL     1      26.279   1.048  54.013  1.00  0.00     0.103 A 
HETATM   16  C16 UNL     1      25.667  -0.067  53.479  1.00  0.00     0.102 A 
HETATM   17  C18 UNL     1      24.485   0.093  52.758  1.00  0.00     0.057 A 
BRANCH  15  18
HETATM   18  O3  UNL     1      27.456   0.860  54.728  1.00  0.00    -0.353 OA
HETATM   19  C15 UNL     1      28.741   1.044  54.209  1.00  0.00     0.210 C 
ENDBRANCH  15  18
BRANCH  16  20
HETATM   20  O4  UNL     1      26.219  -1.304  53.664  1.00  0.00    -0.353 OA
HETATM   21  C17 UNL     1      26.856  -1.981  52.590  1.00  0.00     0.210 C 
ENDBRANCH  16  20
ENDBRANCH   7   8
ENDBRANCH   4   7
BRANCH   1  22
HETATM   22  N2  UNL     1      16.903  -0.613  52.609  1.00  0.00    -0.309 N 
HETATM   23  C5  UNL     1      15.747   0.212  52.675  1.00  0.00     0.324 C 
HETATM   24  N1  UNL     1      14.595  -0.476  53.139  1.00  0.00    -0.319 N 
HETATM   25  O1  UNL     1      15.745   1.429  52.354  1.00  0.00    -0.247 OA
HETATM   26  H6  UNL     1      14.570  -1.483  53.412  1.00  0.00     0.170 HD
HETATM   27  H7  UNL     1      16.930  -1.622  52.870  1.00  0.00     0.170 HD
BRANCH  24  28
HETATM   28  C4  UNL     1      13.351   0.202  53.264  1.00  0.00     0.092 C 
HETATM   29  C3  UNL     1      12.538  -0.044  54.304  1.00  0.00     0.016 C 
BRANCH  29  30
HETATM   30  C2  UNL     1      11.232   0.554  54.596  1.00  0.00    -0.009 C 
HETATM   31  C1  UNL     1      10.791   1.686  54.078  1.00  0.00     0.011 C 
ENDBRANCH  29  30
ENDBRANCH  24  28
ENDBRANCH   1  22
TORSDOF 7
ENDMDL
MODEL 3
REMARK VINA RESULT:      -7.5      3.743      9.910
REMARK  7 active torsions:
REMARK  status: ('A' for Active; 'I' for Inactive)
REMARK    1  A    between atoms: C2_2  and  C3_3 
REMARK    2  A    between atoms: C4_4  and  N1_5 
REMARK       I    between atoms: N1_5  and  C5_6 
REMARK       I    between atoms: C5_6  and  N2_8 
REMARK    3  A    between atoms: N2_8  and  C6_9 
REMARK    4  A    between atoms: C9_12  and  O2_13 
REMARK    5  A    between atoms: O2_13  and  C10_14 
REMARK    6  A    between atoms: C14_20  and  O3_21 
REMARK    7  A    between atoms: C16_23  and  O4_24 
ROOT
HETATM    1  C6  UNL     1      25.271   5.779  50.442  1.00  0.00     0.036 A 
HETATM    2  C7  UNL     1      24.061   5.715  51.096  1.00  0.00     0.032 A 
HETATM    3  C8  UNL     1      23.274   4.567  50.968  1.00  0.00     0.039 A 
HETATM    4  C9  UNL     1      23.761   3.545  50.179  1.00  0.00     0.078 A 
HETATM    5  C20 UNL     1      24.968   3.584  49.515  1.00  0.00     0.039 A 
HETATM    6  C21 UNL     1      25.732   4.740  49.661  1.00  0.00     0.032 A 
ENDROOT
BRANCH   4   7
HETATM    7  O2  UNL     1      23.051   2.361  49.990  1.00  0.00    -0.291 OA
BRANCH   7   8
HETATM    8  C10 UNL     1      22.438   1.677  51.024  1.00  0.00     0.183 A 
HETATM    9  N3  UNL     1      21.094   1.718  51.053  1.00  0.00    -0.217 NA
HETATM   10  C11 UNL     1      20.455   1.068  52.039  1.00  0.00     0.236 A 
HETATM   11  N4  UNL     1      21.156   0.384  52.987  1.00  0.00    -0.241 NA
HETATM   12  C12 UNL     1      22.505   0.361  52.933  1.00  0.00     0.075 A 
HETATM   13  C13 UNL     1      23.189  -0.345  53.913  1.00  0.00     0.072 A 
HETATM   14  C19 UNL     1      23.212   1.019  51.931  1.00  0.00     0.049 A 
HETATM   15  C14 UNL     1      24.565  -0.356  53.837  1.00  0.00     0.103 A 
HETATM   16  C16 UNL     1      25.282   0.291  52.853  1.00  0.00     0.102 A 
HETATM   17  C18 UNL     1      24.593   0.998  51.870  1.00  0.00     0.057 A 
BRANCH  15  18
HETATM   18  O3  UNL     1      25.276  -1.053  54.806  1.00  0.00    -0.353 OA
HETATM   19  C15 UNL     1      24.921  -1.129  56.155  1.00  0.00     0.210 C 
ENDBRANCH  15  18
BRANCH  16  20
HETATM   20  O4  UNL     1      26.648   0.229  52.851  1.00  0.00    -0.353 OA
HETATM   21  C17 UNL     1      27.423   1.286  53.400  1.00  0.00     0.210 C 
ENDBRANCH  16  20
ENDBRANCH   7   8
ENDBRANCH   4   7
BRANCH   1  22
HETATM   22  N2  UNL     1      25.945   7.009  50.676  1.00  0.00    -0.309 N 
HETATM   23  C5  UNL     1      26.604   7.856  49.744  1.00  0.00     0.324 C 
HETATM   24  N1  UNL     1      27.170   9.013  50.342  1.00  0.00    -0.319 N 
HETATM   25  O1  UNL     1      26.679   7.606  48.512  1.00  0.00    -0.247 OA
HETATM   26  H6  UNL     1      27.123   9.243  51.360  1.00  0.00     0.170 HD
HETATM   27  H7  UNL     1      25.870   7.194  51.699  1.00  0.00     0.170 HD
BRANCH  24  28
HETATM   28  C4  UNL     1      27.867   9.967  49.551  1.00  0.00     0.092 C 
HETATM   29  C3  UNL     1      29.193   9.865  49.365  1.00  0.00     0.016 C 
BRANCH  29  30
HETATM   30  C2  UNL     1      30.070  10.747  48.589  1.00  0.00    -0.009 C 
HETATM   31  C1  UNL     1      30.750  11.763  49.090  1.00  0.00     0.011 C 
ENDBRANCH  29  30
ENDBRANCH  24  28
ENDBRANCH   1  22
TORSDOF 7
ENDMDL
MODEL 4
REMARK VINA RESULT:      -7.4      5.842      8.754
REMARK  7 active torsions:
REMARK  status: ('A' for Active; 'I' for Inactive)
REMARK    1  A    between atoms: C2_2  and  C3_3 
REMARK    2  A    between atoms: C4_4  and  N1_5 
REMARK       I    between atoms: N1_5  and  C5_6 
REMARK       I    between atoms: C5_6  and  N2_8 
REMARK    3  A    between atoms: N2_8  and  C6_9 
REMARK    4  A    between atoms: C9_12  and  O2_13 
REMARK    5  A    between atoms: O2_13  and  C10_14 
REMARK    6  A    between atoms: C14_20  and  O3_21 
REMARK    7  A    between atoms: C16_23  and  O4_24 
ROOT
HETATM    1  C6  UNL     1      19.928   1.321  50.659  1.00  0.00     0.036 A 
HETATM    2  C7  UNL     1      21.060   0.551  50.514  1.00  0.00     0.032 A 
HETATM    3  C8  UNL     1      22.224   0.908  51.200  1.00  0.00     0.039 A 
HETATM    4  C9  UNL     1      22.173   2.033  51.998  1.00  0.00     0.078 A 
HETATM    5  C20 UNL     1      21.054   2.820  52.161  1.00  0.00     0.039 A 
HETATM    6  C21 UNL     1      19.909   2.440  51.466  1.00  0.00     0.032 A 
ENDROOT
BRANCH   4   7
HETATM    7  O2  UNL     1      23.281   2.469  52.722  1.00  0.00    -0.291 OA
BRANCH   7   8
HETATM    8  C10 UNL     1      24.567   2.454  52.214  1.00  0.00     0.183 A 
HETATM    9  N3  UNL     1      24.819   3.303  51.201  1.00  0.00    -0.217 NA
HETATM   10  C11 UNL     1      26.053   3.323  50.675  1.00  0.00     0.236 A 
HETATM   11  N4  UNL     1      27.027   2.501  51.159  1.00  0.00    -0.241 NA
HETATM   12  C12 UNL     1      26.745   1.659  52.177  1.00  0.00     0.075 A 
HETATM   13  C13 UNL     1      27.759   0.836  52.647  1.00  0.00     0.072 A 
HETATM   14  C19 UNL     1      25.481   1.602  52.755  1.00  0.00     0.049 A 
HETATM   15  C14 UNL     1      27.449  -0.014  53.686  1.00  0.00     0.103 A 
HETATM   16  C16 UNL     1      26.202  -0.086  54.270  1.00  0.00     0.102 A 
HETATM   17  C18 UNL     1      25.186   0.742  53.797  1.00  0.00     0.057 A 
BRANCH  15  18
HETATM   18  O3  UNL     1      28.444  -0.851  54.177  1.00  0.00    -0.353 OA
HETATM   19  C15 UNL     1      29.808  -0.709  53.910  1.00  0.00     0.210 C 
ENDBRANCH  15  18
BRANCH  16  20
HETATM   20  O4  UNL     1      25.979  -0.959  55.299  1.00  0.00    -0.353 OA
HETATM   21  C17 UNL     1      24.660  -1.213  55.762  1.00  0.00     0.210 C 
ENDBRANCH  16  20
ENDBRANCH   7   8
ENDBRANCH   4   7
BRANCH   1  22
HETATM   22  N2  UNL     1      18.836   0.823  49.897  1.00  0.00    -0.309 N 
HETATM   23  C5  UNL     1      17.648   0.189  50.351  1.00  0.00     0.324 C 
HETATM   24  N1  UNL     1      16.772  -0.179  49.296  1.00  0.00    -0.319 N 
HETATM   25  O1  UNL     1      17.397  -0.026  51.566  1.00  0.00    -0.247 OA
HETATM   26  H6  UNL     1      16.956  -0.014  48.282  1.00  0.00     0.170 HD
HETATM   27  H7  UNL     1      19.066   1.011  48.898  1.00  0.00     0.170 HD
BRANCH  24  28
HETATM   28  C4  UNL     1      15.536  -0.825  49.576  1.00  0.00     0.092 C 
HETATM   29  C3  UNL     1      14.385  -0.134  49.570  1.00  0.00     0.016 C 
BRANCH  29  30
HETATM   30  C2  UNL     1      13.030  -0.627  49.833  1.00  0.00    -0.009 C 
HETATM   31  C1  UNL     1      12.749  -1.758  50.455  1.00  0.00     0.011 C 
ENDBRANCH  29  30
ENDBRANCH  24  28
ENDBRANCH   1  22
TORSDOF 7
ENDMDL
MODEL 5
REMARK VINA RESULT:      -7.4      2.723     10.228
REMARK  7 active torsions:
REMARK  status: ('A' for Active; 'I' for Inactive)
REMARK    1  A    between atoms: C2_2  and  C3_3 
REMARK    2  A    between atoms: C4_4  and  N1_5 
REMARK       I    between atoms: N1_5  and  C5_6 
REMARK       I    between atoms: C5_6  and  N2_8 
REMARK    3  A    between atoms: N2_8  and  C6_9 
REMARK    4  A    between atoms: C9_12  and  O2_13 
REMARK    5  A    between atoms: O2_13  and  C10_14 
REMARK    6  A    between atoms: C14_20  and  O3_21 
REMARK    7  A    between atoms: C16_23  and  O4_24 
ROOT
HETATM    1  C6  UNL     1      27.142   6.563  48.890  1.00  0.00     0.036 A 
HETATM    2  C7  UNL     1      26.028   6.693  49.688  1.00  0.00     0.032 A 
HETATM    3  C8  UNL     1      25.383   5.545  50.156  1.00  0.00     0.039 A 
HETATM    4  C9  UNL     1      25.908   4.323  49.787  1.00  0.00     0.078 A 
HETATM    5  C20 UNL     1      27.022   4.166  48.991  1.00  0.00     0.039 A 
HETATM    6  C21 UNL     1      27.644   5.327  48.538  1.00  0.00     0.032 A 
ENDROOT
BRANCH   4   7
HETATM    7  O2  UNL     1      25.338   3.123  50.203  1.00  0.00    -0.291 OA
BRANCH   7   8
HETATM    8  C10 UNL     1      25.806   2.402  51.286  1.00  0.00     0.183 A 
HETATM    9  N3  UNL     1      27.106   2.561  51.592  1.00  0.00    -0.217 NA
HETATM   10  C11 UNL     1      27.607   1.881  52.636  1.00  0.00     0.236 A 
HETATM   11  N4  UNL     1      26.811   1.049  53.367  1.00  0.00    -0.241 NA
HETATM   12  C12 UNL     1      25.510   0.909  53.036  1.00  0.00     0.075 A 
HETATM   13  C13 UNL     1      24.727   0.054  53.801  1.00  0.00     0.072 A 
HETATM   14  C19 UNL     1      24.946   1.592  51.963  1.00  0.00     0.049 A 
HETATM   15  C14 UNL     1      23.402  -0.073  53.446  1.00  0.00     0.103 A 
HETATM   16  C16 UNL     1      22.826   0.595  52.386  1.00  0.00     0.102 A 
HETATM   17  C18 UNL     1      23.613   1.453  51.620  1.00  0.00     0.057 A 
BRANCH  15  18
HETATM   18  O3  UNL     1      22.594  -0.922  54.192  1.00  0.00    -0.353 OA
HETATM   19  C15 UNL     1      22.941  -1.467  55.432  1.00  0.00     0.210 C 
ENDBRANCH  15  18
BRANCH  16  20
HETATM   20  O4  UNL     1      21.501   0.412  52.101  1.00  0.00    -0.353 OA
HETATM   21  C17 UNL     1      21.046   0.371  50.756  1.00  0.00     0.210 C 
ENDBRANCH  16  20
ENDBRANCH   7   8
ENDBRANCH   4   7
BRANCH   1  22
HETATM   22  N2  UNL     1      27.676   7.822  48.501  1.00  0.00    -0.309 N 
HETATM   23  C5  UNL     1      29.033   8.242  48.464  1.00  0.00     0.324 C 
HETATM   24  N1  UNL     1      29.193   9.581  48.018  1.00  0.00    -0.319 N 
HETATM   25  O1  UNL     1      29.997   7.503  48.794  1.00  0.00    -0.247 OA
HETATM   26  H6  UNL     1      28.411  10.214  47.740  1.00  0.00     0.170 HD
HETATM   27  H7  UNL     1      26.861   8.415  48.234  1.00  0.00     0.170 HD
BRANCH  24  28
HETATM   28  C4  UNL     1      30.488  10.160  47.922  1.00  0.00     0.092 C 
HETATM   29  C3  UNL     1      31.295   9.867  46.890  1.00  0.00     0.016 C 
BRANCH  29  30
HETATM   30  C2  UNL     1      32.648  10.365  46.628  1.00  0.00    -0.009 C 
HETATM   31  C1  UNL     1      32.956  11.632  46.416  1.00  0.00     0.011 C 
ENDBRANCH  29  30
ENDBRANCH  24  28
ENDBRANCH   1  22
TORSDOF 7
ENDMDL
MODEL 6
REMARK VINA RESULT:      -7.3      4.159     10.314
REMARK  7 active torsions:
REMARK  status: ('A' for Active; 'I' for Inactive)
REMARK    1  A    between atoms: C2_2  and  C3_3 
REMARK    2  A    between atoms: C4_4  and  N1_5 
REMARK       I    between atoms: N1_5  and  C5_6 
REMARK       I    between atoms: C5_6  and  N2_8 
REMARK    3  A    between atoms: N2_8  and  C6_9 
REMARK    4  A    between atoms: C9_12  and  O2_13 
REMARK    5  A    between atoms: O2_13  and  C10_14 
REMARK    6  A    between atoms: C14_20  and  O3_21 
REMARK    7  A    between atoms: C16_23  and  O4_24 
ROOT
HETATM    1  C6  UNL     1      26.201   7.256  49.565  1.00  0.00     0.036 A 
HETATM    2  C7  UNL     1      25.195   6.882  50.426  1.00  0.00     0.032 A 
HETATM    3  C8  UNL     1      24.890   5.526  50.575  1.00  0.00     0.039 A 
HETATM    4  C9  UNL     1      25.627   4.622  49.838  1.00  0.00     0.078 A 
HETATM    5  C20 UNL     1      26.639   4.970  48.970  1.00  0.00     0.039 A 
HETATM    6  C21 UNL     1      26.922   6.328  48.841  1.00  0.00     0.032 A 
ENDROOT
BRANCH   4   7
HETATM    7  O2  UNL     1      25.399   3.250  49.919  1.00  0.00    -0.291 OA
BRANCH   7   8
HETATM    8  C10 UNL     1      25.733   2.495  51.028  1.00  0.00     0.183 A 
HETATM    9  N3  UNL     1      27.009   2.577  51.444  1.00  0.00    -0.217 NA
HETATM   10  C11 UNL     1      27.380   1.861  52.517  1.00  0.00     0.236 A 
HETATM   11  N4  UNL     1      26.481   1.070  53.167  1.00  0.00    -0.241 NA
HETATM   12  C12 UNL     1      25.206   1.006  52.727  1.00  0.00     0.075 A 
HETATM   13  C13 UNL     1      24.315   0.191  53.411  1.00  0.00     0.072 A 
HETATM   14  C19 UNL     1      24.774   1.730  51.619  1.00  0.00     0.049 A 
HETATM   15  C14 UNL     1      23.019   0.143  52.944  1.00  0.00     0.103 A 
HETATM   16  C16 UNL     1      22.574   0.852  51.849  1.00  0.00     0.102 A 
HETATM   17  C18 UNL     1      23.470   1.669  51.164  1.00  0.00     0.057 A 
BRANCH  15  18
HETATM   18  O3  UNL     1      22.105  -0.665  53.609  1.00  0.00    -0.353 OA
HETATM   19  C15 UNL     1      21.344  -0.267  54.711  1.00  0.00     0.210 C 
ENDBRANCH  15  18
BRANCH  16  20
HETATM   20  O4  UNL     1      21.270   0.746  51.452  1.00  0.00    -0.353 OA
HETATM   21  C17 UNL     1      20.373   1.837  51.607  1.00  0.00     0.210 C 
ENDBRANCH  16  20
ENDBRANCH   7   8
ENDBRANCH   4   7
BRANCH   1  22
HETATM   22  N2  UNL     1      26.384   8.665  49.529  1.00  0.00    -0.309 N 
HETATM   23  C5  UNL     1      26.067   9.580  48.488  1.00  0.00     0.324 C 
HETATM   24  N1  UNL     1      26.392  10.925  48.807  1.00  0.00    -0.319 N 
HETATM   25  O1  UNL     1      25.551   9.233  47.394  1.00  0.00    -0.247 OA
HETATM   26  H6  UNL     1      26.821  11.239  49.705  1.00  0.00     0.170 HD
HETATM   27  H7  UNL     1      26.812   8.928  50.443  1.00  0.00     0.170 HD
BRANCH  24  28
HETATM   28  C4  UNL     1      26.140  11.969  47.874  1.00  0.00     0.092 C 
HETATM   29  C3  UNL     1      26.867  13.098  47.898  1.00  0.00     0.016 C 
BRANCH  29  30
HETATM   30  C2  UNL     1      26.750  14.269  47.023  1.00  0.00    -0.009 C 
HETATM   31  C1  UNL     1      27.664  15.216  46.909  1.00  0.00     0.011 C 
ENDBRANCH  29  30
ENDBRANCH  24  28
ENDBRANCH   1  22
TORSDOF 7
ENDMDL
MODEL 7
REMARK VINA RESULT:      -7.2      7.622     13.822
REMARK  7 active torsions:
REMARK  status: ('A' for Active; 'I' for Inactive)
REMARK    1  A    between atoms: C2_2  and  C3_3 
REMARK    2  A    between atoms: C4_4  and  N1_5 
REMARK       I    between atoms: N1_5  and  C5_6 
REMARK       I    between atoms: C5_6  and  N2_8 
REMARK    3  A    between atoms: N2_8  and  C6_9 
REMARK    4  A    between atoms: C9_12  and  O2_13 
REMARK    5  A    between atoms: O2_13  and  C10_14 
REMARK    6  A    between atoms: C14_20  and  O3_21 
REMARK    7  A    between atoms: C16_23  and  O4_24 
ROOT
HETATM    1  C6  UNL     1      22.546   0.928  52.597  1.00  0.00     0.036 A 
HETATM    2  C7  UNL     1      21.646   0.522  53.556  1.00  0.00     0.032 A 
HETATM    3  C8  UNL     1      20.351   0.163  53.171  1.00  0.00     0.039 A 
HETATM    4  C9  UNL     1      20.042   0.238  51.829  1.00  0.00     0.078 A 
HETATM    5  C20 UNL     1      20.924   0.640  50.849  1.00  0.00     0.039 A 
HETATM    6  C21 UNL     1      22.207   0.992  51.262  1.00  0.00     0.032 A 
ENDROOT
BRANCH   4   7
HETATM    7  O2  UNL     1      18.779  -0.099  51.346  1.00  0.00    -0.291 OA
BRANCH   7   8
HETATM    8  C10 UNL     1      17.663   0.695  51.539  1.00  0.00     0.183 A 
HETATM    9  N3  UNL     1      17.845   2.022  51.417  1.00  0.00    -0.217 NA
HETATM   10  C11 UNL     1      16.790   2.832  51.596  1.00  0.00     0.236 A 
HETATM   11  N4  UNL     1      15.563   2.319  51.893  1.00  0.00    -0.241 NA
HETATM   12  C12 UNL     1      15.410   0.982  52.010  1.00  0.00     0.075 A 
HETATM   13  C13 UNL     1      14.147   0.491  52.314  1.00  0.00     0.072 A 
HETATM   14  C19 UNL     1      16.473   0.102  51.834  1.00  0.00     0.049 A 
HETATM   15  C14 UNL     1      14.014  -0.876  52.427  1.00  0.00     0.103 A 
HETATM   16  C16 UNL     1      15.056  -1.763  52.257  1.00  0.00     0.102 A 
HETATM   17  C18 UNL     1      16.322  -1.268  51.951  1.00  0.00     0.057 A 
BRANCH  15  18
HETATM   18  O3  UNL     1      12.762  -1.397  52.731  1.00  0.00    -0.353 OA
HETATM   19  C15 UNL     1      12.168  -1.354  53.995  1.00  0.00     0.210 C 
ENDBRANCH  15  18
BRANCH  16  20
HETATM   20  O4  UNL     1      14.837  -3.107  52.387  1.00  0.00    -0.353 OA
HETATM   21  C17 UNL     1      15.816  -3.948  52.980  1.00  0.00     0.210 C 
ENDBRANCH  16  20
ENDBRANCH   7   8
ENDBRANCH   4   7
BRANCH   1  22
HETATM   22  N2  UNL     1      23.813   1.256  53.153  1.00  0.00    -0.309 N 
HETATM   23  C5  UNL     1      24.905   0.396  53.452  1.00  0.00     0.324 C 
HETATM   24  N1  UNL     1      26.021   1.080  54.004  1.00  0.00    -0.319 N 
HETATM   25  O1  UNL     1      24.885  -0.846  53.250  1.00  0.00    -0.247 OA
HETATM   26  H6  UNL     1      26.063   2.107  54.182  1.00  0.00     0.170 HD
HETATM   27  H7  UNL     1      23.806   2.286  53.312  1.00  0.00     0.170 HD
BRANCH  24  28
HETATM   28  C4  UNL     1      27.199   0.368  54.361  1.00  0.00     0.092 C 
HETATM   29  C3  UNL     1      28.259   0.341  53.537  1.00  0.00     0.016 C 
BRANCH  29  30
HETATM   30  C2  UNL     1      29.545  -0.334  53.737  1.00  0.00    -0.009 C 
HETATM   31  C1  UNL     1      29.794  -1.590  53.413  1.00  0.00     0.011 C 
ENDBRANCH  29  30
ENDBRANCH  24  28
ENDBRANCH   1  22
TORSDOF 7
ENDMDL
MODEL 8
REMARK VINA RESULT:      -7.2      6.079      9.870
REMARK  7 active torsions:
REMARK  status: ('A' for Active; 'I' for Inactive)
REMARK    1  A    between atoms: C2_2  and  C3_3 
REMARK    2  A    between atoms: C4_4  and  N1_5 
REMARK       I    between atoms: N1_5  and  C5_6 
REMARK       I    between atoms: C5_6  and  N2_8 
REMARK    3  A    between atoms: N2_8  and  C6_9 
REMARK    4  A    between atoms: C9_12  and  O2_13 
REMARK    5  A    between atoms: O2_13  and  C10_14 
REMARK    6  A    between atoms: C14_20  and  O3_21 
REMARK    7  A    between atoms: C16_23  and  O4_24 
ROOT
HETATM    1  C6  UNL     1      18.050   2.147  51.188  1.00  0.00     0.036 A 
HETATM    2  C7  UNL     1      18.433   0.998  50.533  1.00  0.00     0.032 A 
HETATM    3  C8  UNL     1      19.779   0.622  50.541  1.00  0.00     0.039 A 
HETATM    4  C9  UNL     1      20.664   1.435  51.217  1.00  0.00     0.078 A 
HETATM    5  C20 UNL     1      20.307   2.589  51.882  1.00  0.00     0.039 A 
HETATM    6  C21 UNL     1      18.959   2.940  51.857  1.00  0.00     0.032 A 
ENDROOT
BRANCH   4   7
HETATM    7  O2  UNL     1      22.025   1.145  51.284  1.00  0.00    -0.291 OA
BRANCH   7   8
HETATM    8  C10 UNL     1      22.598   0.460  52.340  1.00  0.00     0.183 A 
HETATM    9  N3  UNL     1      21.774  -0.312  53.069  1.00  0.00    -0.217 NA
HETATM   10  C11 UNL     1      22.285  -0.995  54.105  1.00  0.00     0.236 A 
HETATM   11  N4  UNL     1      23.611  -0.906  54.408  1.00  0.00    -0.241 NA
HETATM   12  C12 UNL     1      24.416  -0.122  53.658  1.00  0.00     0.075 A 
HETATM   13  C13 UNL     1      25.761  -0.052  53.993  1.00  0.00     0.072 A 
HETATM   14  C19 UNL     1      23.932   0.605  52.575  1.00  0.00     0.049 A 
HETATM   15  C14 UNL     1      26.563   0.753  53.213  1.00  0.00     0.103 A 
HETATM   16  C16 UNL     1      26.101   1.481  52.137  1.00  0.00     0.102 A 
HETATM   17  C18 UNL     1      24.751   1.410  51.803  1.00  0.00     0.057 A 
BRANCH  15  18
HETATM   18  O3  UNL     1      27.914   0.843  53.525  1.00  0.00    -0.353 OA
HETATM   19  C15 UNL     1      28.507   0.298  54.667  1.00  0.00     0.210 C 
ENDBRANCH  15  18
BRANCH  16  20
HETATM   20  O4  UNL     1      26.966   2.257  51.416  1.00  0.00    -0.353 OA
HETATM   21  C17 UNL     1      26.490   3.104  50.379  1.00  0.00     0.210 C 
ENDBRANCH  16  20
ENDBRANCH   7   8
ENDBRANCH   4   7
BRANCH   1  22
HETATM   22  N2  UNL     1      16.652   2.386  51.084  1.00  0.00    -0.309 N 
HETATM   23  C5  UNL     1      15.602   1.910  51.913  1.00  0.00     0.324 C 
HETATM   24  N1  UNL     1      14.318   2.357  51.503  1.00  0.00    -0.319 N 
HETATM   25  O1  UNL     1      15.789   1.166  52.912  1.00  0.00    -0.247 OA
HETATM   26  H6  UNL     1      14.135   2.972  50.680  1.00  0.00     0.170 HD
HETATM   27  H7  UNL     1      16.522   3.002  50.252  1.00  0.00     0.170 HD
BRANCH  24  28
HETATM   28  C4  UNL     1      13.154   1.971  52.225  1.00  0.00     0.092 C 
HETATM   29  C3  UNL     1      12.690   2.729  53.232  1.00  0.00     0.016 C 
BRANCH  29  30
HETATM   30  C2  UNL     1      11.517   2.492  54.078  1.00  0.00    -0.009 C 
HETATM   31  C1  UNL     1      11.554   1.938  55.276  1.00  0.00     0.011 C 
ENDBRANCH  29  30
ENDBRANCH  24  28
ENDBRANCH   1  22
TORSDOF 7
ENDMDL
MODEL 9
REMARK VINA RESULT:      -7.1      3.870     11.121
REMARK  7 active torsions:
REMARK  status: ('A' for Active; 'I' for Inactive)
REMARK    1  A    between atoms: C2_2  and  C3_3 
REMARK    2  A    between atoms: C4_4  and  N1_5 
REMARK       I    between atoms: N1_5  and  C5_6 
REMARK       I    between atoms: C5_6  and  N2_8 
REMARK    3  A    between atoms: N2_8  and  C6_9 
REMARK    4  A    between atoms: C9_12  and  O2_13 
REMARK    5  A    between atoms: O2_13  and  C10_14 
REMARK    6  A    between atoms: C14_20  and  O3_21 
REMARK    7  A    between atoms: C16_23  and  O4_24 
ROOT
HETATM    1  C6  UNL     1      26.280   5.621  49.507  1.00  0.00     0.036 A 
HETATM    2  C7  UNL     1      26.801   4.376  49.232  1.00  0.00     0.032 A 
HETATM    3  C8  UNL     1      26.124   3.238  49.679  1.00  0.00     0.039 A 
HETATM    4  C9  UNL     1      24.952   3.427  50.382  1.00  0.00     0.078 A 
HETATM    5  C20 UNL     1      24.409   4.661  50.669  1.00  0.00     0.039 A 
HETATM    6  C21 UNL     1      25.104   5.778  50.212  1.00  0.00     0.032 A 
ENDROOT
BRANCH   4   7
HETATM    7  O2  UNL     1      24.206   2.356  50.867  1.00  0.00    -0.291 OA
BRANCH   7   8
HETATM    8  C10 UNL     1      23.005   1.959  50.308  1.00  0.00     0.183 A 
HETATM    9  N3  UNL     1      22.835   2.234  49.003  1.00  0.00    -0.217 NA
HETATM   10  C11 UNL     1      21.684   1.868  48.417  1.00  0.00     0.236 A 
HETATM   11  N4  UNL     1      20.713   1.233  49.131  1.00  0.00    -0.241 NA
HETATM   12  C12 UNL     1      20.912   0.970  50.441  1.00  0.00     0.075 A 
HETATM   13  C13 UNL     1      19.903   0.321  51.140  1.00  0.00     0.072 A 
HETATM   14  C19 UNL     1      22.088   1.329  51.093  1.00  0.00     0.049 A 
HETATM   15  C14 UNL     1      20.128   0.063  52.475  1.00  0.00     0.103 A 
HETATM   16  C16 UNL     1      21.286   0.412  53.138  1.00  0.00     0.102 A 
HETATM   17  C18 UNL     1      22.297   1.062  52.434  1.00  0.00     0.057 A 
BRANCH  15  18
HETATM   18  O3  UNL     1      19.136  -0.585  53.202  1.00  0.00    -0.353 OA
HETATM   19  C15 UNL     1      17.821  -0.769  52.765  1.00  0.00     0.210 C 
ENDBRANCH  15  18
BRANCH  16  20
HETATM   20  O4  UNL     1      21.429   0.117  54.465  1.00  0.00    -0.353 OA
HETATM   21  C17 UNL     1      22.226  -0.982  54.884  1.00  0.00     0.210 C 
ENDBRANCH  16  20
ENDBRANCH   7   8
ENDBRANCH   4   7
BRANCH   1  22
HETATM   22  N2  UNL     1      27.086   6.669  48.984  1.00  0.00    -0.309 N 
HETATM   23  C5  UNL     1      27.229   8.003  49.455  1.00  0.00     0.324 C 
HETATM   24  N1  UNL     1      28.130   8.777  48.677  1.00  0.00    -0.319 N 
HETATM   25  O1  UNL     1      26.619   8.453  50.460  1.00  0.00    -0.247 OA
HETATM   26  H6  UNL     1      28.647   8.429  47.839  1.00  0.00     0.170 HD
HETATM   27  H7  UNL     1      27.579   6.274  48.155  1.00  0.00     0.170 HD
BRANCH  24  28
HETATM   28  C4  UNL     1      28.389  10.136  49.010  1.00  0.00     0.092 C 
HETATM   29  C3  UNL     1      27.800  11.132  48.329  1.00  0.00     0.016 C 
BRANCH  29  30
HETATM   30  C2  UNL     1      27.946  12.576  48.530  1.00  0.00    -0.009 C 
HETATM   31  C1  UNL     1      28.945  13.303  48.063  1.00  0.00     0.011 C 
ENDBRANCH  29  30
ENDBRANCH  24  28
ENDBRANCH   1  22
TORSDOF 7
ENDMDL
