MODEL 1
REMARK VINA RESULT:      -8.5      0.000      0.000
REMARK  2 active torsions:
REMARK  status: ('A' for Active; 'I' for Inactive)
REMARK       I    between atoms: C1_2  and  N1_3 
REMARK       I    between atoms: C1_2  and  N5_17 
REMARK    1  A    between atoms: N1_3  and  C2_4 
REMARK    2  A    between atoms: N5_17  and  C11_18 
ROOT
HETATM    1  C2  UNL     1      22.393  -0.539  53.902  1.00  0.00     0.107 C 
HETATM    2  C3  UNL     1      21.330  -1.303  54.245  1.00  0.00     0.048 C 
HETATM    3  C4  UNL     1      19.906  -1.436  53.866  1.00  0.00     0.000 C 
HETATM    4  C5  UNL     1      18.905  -1.003  53.074  1.00  0.00    -0.017 C 
HETATM    5  C6  UNL     1      18.451  -0.061  51.960  1.00  0.00     0.130 C 
HETATM    6  C7  UNL     1      19.679   0.686  51.620  1.00  0.00     0.226 C 
HETATM    7  O2  UNL     1      20.091   0.283  52.666  1.00  0.00    -0.273 OA
HETATM    8  N2  UNL     1      20.821   1.394  51.278  1.00  0.00    -0.304 N 
HETATM    9  C8  UNL     1      21.229   2.315  50.275  1.00  0.00     0.160 C 
HETATM   10  C9  UNL     1      21.827   3.505  51.057  1.00  0.00     0.294 C 
HETATM   11  N3  UNL     1      22.221   2.867  52.285  1.00  0.00     0.127 N 
HETATM   12  C10 UNL     1      22.149   1.495  51.961  1.00  0.00     0.430 C 
HETATM   13  N4  UNL     1      22.251   0.528  52.983  1.00  0.00    -0.331 N 
HETATM   14  H11 UNL     1      23.108   3.178  52.666  1.00  0.00     0.321 HD
HETATM   15  H13 UNL     1      21.976   1.101  53.814  1.00  0.00     0.165 HD
ENDROOT
BRANCH   1  16
HETATM   16  N1  UNL     1      23.683  -0.668  54.459  1.00  0.00    -0.295 N 
HETATM   17  C1  UNL     1      24.999  -0.426  54.022  1.00  0.00     0.327 C 
HETATM   18  O1  UNL     1      24.996  -0.061  52.848  1.00  0.00    -0.247 OA
HETATM   19  N5  UNL     1      26.169  -0.568  54.801  1.00  0.00    -0.293 N 
HETATM   20  H14 UNL     1      25.969  -0.887  55.764  1.00  0.00     0.172 HD
HETATM   21  H1  UNL     1      23.691  -1.040  55.463  1.00  0.00     0.172 HD
BRANCH  19  22
HETATM   22  C11 UNL     1      27.462  -0.304  54.317  1.00  0.00     0.131 A 
HETATM   23  C12 UNL     1      28.158   0.863  54.363  1.00  0.00     0.050 A 
HETATM   24  C13 UNL     1      29.465   0.976  53.898  1.00  0.00     0.005 A 
HETATM   25  C14 UNL     1      30.010  -0.170  53.387  1.00  0.00     0.019 A 
HETATM   26  C15 UNL     1      29.335  -1.397  53.319  1.00  0.00     0.119 A 
HETATM   27  N6  UNL     1      28.079  -1.369  53.801  1.00  0.00    -0.243 NA
ENDBRANCH  19  22
ENDBRANCH   1  16
TORSDOF 2
ENDMDL
MODEL 2
REMARK VINA RESULT:      -8.3      3.838      6.344
REMARK  2 active torsions:
REMARK  status: ('A' for Active; 'I' for Inactive)
REMARK       I    between atoms: C1_2  and  N1_3 
REMARK       I    between atoms: C1_2  and  N5_17 
REMARK    1  A    between atoms: N1_3  and  C2_4 
REMARK    2  A    between atoms: N5_17  and  C11_18 
ROOT
HETATM    1  C2  UNL     1      24.034   1.439  51.894  1.00  0.00     0.107 C 
HETATM    2  C3  UNL     1      22.828   0.962  52.280  1.00  0.00     0.048 C 
HETATM    3  C4  UNL     1      22.288   0.038  53.303  1.00  0.00     0.000 C 
HETATM    4  C5  UNL     1      22.560  -0.770  54.346  1.00  0.00    -0.017 C 
HETATM    5  C6  UNL     1      23.608  -1.362  55.287  1.00  0.00     0.130 C 
HETATM    6  C7  UNL     1      24.870  -0.749  54.825  1.00  0.00     0.226 C 
HETATM    7  O2  UNL     1      24.257  -0.481  53.835  1.00  0.00    -0.273 OA
HETATM    8  N2  UNL     1      26.065  -0.180  54.413  1.00  0.00    -0.304 N 
HETATM    9  C8  UNL     1      27.414  -0.122  54.860  1.00  0.00     0.160 C 
HETATM   10  C9  UNL     1      28.250  -0.552  53.635  1.00  0.00     0.294 C 
HETATM   11  N3  UNL     1      27.363  -0.213  52.553  1.00  0.00     0.127 N 
HETATM   12  C10 UNL     1      26.402   0.606  53.184  1.00  0.00     0.430 C 
HETATM   13  N4  UNL     1      25.225   0.964  52.493  1.00  0.00    -0.331 N 
HETATM   14  H11 UNL     1      27.813   0.192  51.739  1.00  0.00     0.321 HD
HETATM   15  H13 UNL     1      25.183   0.199  51.781  1.00  0.00     0.165 HD
ENDROOT
BRANCH   1  16
HETATM   16  N1  UNL     1      24.230   2.360  50.844  1.00  0.00    -0.295 N 
HETATM   17  C1  UNL     1      25.227   3.290  50.491  1.00  0.00     0.327 C 
HETATM   18  O1  UNL     1      26.104   3.318  51.351  1.00  0.00    -0.247 OA
HETATM   19  N5  UNL     1      25.243   4.081  49.320  1.00  0.00    -0.293 N 
HETATM   20  H14 UNL     1      24.418   3.918  48.718  1.00  0.00     0.172 HD
HETATM   21  H1  UNL     1      23.438   2.377  50.122  1.00  0.00     0.172 HD
BRANCH  19  22
HETATM   22  C11 UNL     1      26.270   4.989  49.010  1.00  0.00     0.131 A 
HETATM   23  C12 UNL     1      27.557   4.721  48.664  1.00  0.00     0.050 A 
HETATM   24  C13 UNL     1      28.464   5.719  48.320  1.00  0.00     0.005 A 
HETATM   25  C14 UNL     1      27.977   6.997  48.353  1.00  0.00     0.019 A 
HETATM   26  C15 UNL     1      26.658   7.324  48.702  1.00  0.00     0.119 A 
HETATM   27  N6  UNL     1      25.886   6.267  49.013  1.00  0.00    -0.243 NA
ENDBRANCH  19  22
ENDBRANCH   1  16
TORSDOF 2
ENDMDL
MODEL 3
REMARK VINA RESULT:      -8.1      1.414      1.859
REMARK  2 active torsions:
REMARK  status: ('A' for Active; 'I' for Inactive)
REMARK       I    between atoms: C1_2  and  N1_3 
REMARK       I    between atoms: C1_2  and  N5_17 
REMARK    1  A    between atoms: N1_3  and  C2_4 
REMARK    2  A    between atoms: N5_17  and  C11_18 
ROOT
HETATM    1  C2  UNL     1      22.607   0.602  52.696  1.00  0.00     0.107 C 
HETATM    2  C3  UNL     1      21.445  -0.059  52.486  1.00  0.00     0.048 C 
HETATM    3  C4  UNL     1      20.155   0.177  51.802  1.00  0.00     0.000 C 
HETATM    4  C5  UNL     1      19.414   1.018  51.055  1.00  0.00    -0.017 C 
HETATM    5  C6  UNL     1      19.313   2.360  50.329  1.00  0.00     0.130 C 
HETATM    6  C7  UNL     1      20.632   2.979  50.569  1.00  0.00     0.226 C 
HETATM    7  O2  UNL     1      20.744   2.164  51.435  1.00  0.00    -0.273 OA
HETATM    8  N2  UNL     1      21.866   3.577  50.774  1.00  0.00    -0.304 N 
HETATM    9  C8  UNL     1      22.571   4.725  50.317  1.00  0.00     0.160 C 
HETATM   10  C9  UNL     1      23.030   5.440  51.606  1.00  0.00     0.294 C 
HETATM   11  N3  UNL     1      23.062   4.346  52.541  1.00  0.00     0.127 N 
HETATM   12  C10 UNL     1      22.986   3.215  51.699  1.00  0.00     0.430 C 
HETATM   13  N4  UNL     1      22.767   1.939  52.259  1.00  0.00    -0.331 N 
HETATM   14  H11 UNL     1      23.844   4.355  53.187  1.00  0.00     0.321 HD
HETATM   15  H13 UNL     1      22.331   2.205  53.172  1.00  0.00     0.165 HD
ENDROOT
BRANCH   1  16
HETATM   16  N1  UNL     1      23.706   0.081  53.411  1.00  0.00    -0.295 N 
HETATM   17  C1  UNL     1      25.101   0.041  53.228  1.00  0.00     0.327 C 
HETATM   18  O1  UNL     1      25.402   0.549  52.150  1.00  0.00    -0.247 OA
HETATM   19  N5  UNL     1      26.041  -0.492  54.139  1.00  0.00    -0.293 N 
HETATM   20  H14 UNL     1      25.595  -0.876  54.990  1.00  0.00     0.172 HD
HETATM   21  H1  UNL     1      23.440  -0.412  54.324  1.00  0.00     0.172 HD
BRANCH  19  22
HETATM   22  C11 UNL     1      27.427  -0.498  53.911  1.00  0.00     0.131 A 
HETATM   23  C12 UNL     1      28.319   0.508  54.109  1.00  0.00     0.050 A 
HETATM   24  C13 UNL     1      29.686   0.351  53.899  1.00  0.00     0.005 A 
HETATM   25  C14 UNL     1      30.080  -0.889  53.476  1.00  0.00     0.019 A 
HETATM   26  C15 UNL     1      29.199  -1.959  53.258  1.00  0.00     0.119 A 
HETATM   27  N6  UNL     1      27.906  -1.674  53.498  1.00  0.00    -0.243 NA
ENDBRANCH  19  22
ENDBRANCH   1  16
TORSDOF 2
ENDMDL
MODEL 4
REMARK VINA RESULT:      -7.9      4.900      6.748
REMARK  2 active torsions:
REMARK  status: ('A' for Active; 'I' for Inactive)
REMARK       I    between atoms: C1_2  and  N1_3 
REMARK       I    between atoms: C1_2  and  N5_17 
REMARK    1  A    between atoms: N1_3  and  C2_4 
REMARK    2  A    between atoms: N5_17  and  C11_18 
ROOT
HETATM    1  C2  UNL     1      24.609   4.771  50.088  1.00  0.00     0.107 C 
HETATM    2  C3  UNL     1      23.533   4.594  49.286  1.00  0.00     0.048 C 
HETATM    3  C4  UNL     1      22.927   5.243  48.103  1.00  0.00     0.000 C 
HETATM    4  C5  UNL     1      23.018   6.229  47.189  1.00  0.00    -0.017 C 
HETATM    5  C6  UNL     1      23.799   7.426  46.648  1.00  0.00     0.130 C 
HETATM    6  C7  UNL     1      24.969   7.507  47.547  1.00  0.00     0.226 C 
HETATM    7  O2  UNL     1      24.333   6.801  48.271  1.00  0.00    -0.273 OA
HETATM    8  N2  UNL     1      26.079   7.597  48.373  1.00  0.00    -0.304 N 
HETATM    9  C8  UNL     1      27.295   8.332  48.428  1.00  0.00     0.160 C 
HETATM   10  C9  UNL     1      27.322   8.936  49.849  1.00  0.00     0.294 C 
HETATM   11  N3  UNL     1      26.484   8.011  50.566  1.00  0.00     0.127 N 
HETATM   12  C10 UNL     1      26.388   6.923  49.673  1.00  0.00     0.430 C 
HETATM   13  N4  UNL     1      25.457   5.892  49.924  1.00  0.00    -0.331 N 
HETATM   14  H11 UNL     1      26.801   7.781  51.501  1.00  0.00     0.321 HD
HETATM   15  H13 UNL     1      24.782   6.394  50.545  1.00  0.00     0.165 HD
ENDROOT
BRANCH   1  16
HETATM   16  N1  UNL     1      24.939   3.938  51.178  1.00  0.00    -0.295 N 
HETATM   17  C1  UNL     1      26.032   3.123  51.529  1.00  0.00     0.327 C 
HETATM   18  O1  UNL     1      26.865   3.118  50.625  1.00  0.00    -0.247 OA
HETATM   19  N5  UNL     1      26.178   2.411  52.742  1.00  0.00    -0.293 N 
HETATM   20  H14 UNL     1      25.371   2.538  53.377  1.00  0.00     0.172 HD
HETATM   21  H1  UNL     1      24.188   3.896  51.942  1.00  0.00     0.172 HD
BRANCH  19  22
HETATM   22  C11 UNL     1      27.297   1.617  53.047  1.00  0.00     0.131 A 
HETATM   23  C12 UNL     1      28.481   2.003  53.593  1.00  0.00     0.050 A 
HETATM   24  C13 UNL     1      29.492   1.099  53.904  1.00  0.00     0.005 A 
HETATM   25  C14 UNL     1      29.221  -0.212  53.622  1.00  0.00     0.019 A 
HETATM   26  C15 UNL     1      28.016  -0.659  53.060  1.00  0.00     0.119 A 
HETATM   27  N6  UNL     1      27.123   0.316  52.808  1.00  0.00    -0.243 NA
ENDBRANCH  19  22
ENDBRANCH   1  16
TORSDOF 2
ENDMDL
MODEL 5
REMARK VINA RESULT:      -7.8      4.033      7.465
REMARK  2 active torsions:
REMARK  status: ('A' for Active; 'I' for Inactive)
REMARK       I    between atoms: C1_2  and  N1_3 
REMARK       I    between atoms: C1_2  and  N5_17 
REMARK    1  A    between atoms: N1_3  and  C2_4 
REMARK    2  A    between atoms: N5_17  and  C11_18 
ROOT
HETATM    1  C2  UNL     1      23.955   3.475  52.771  1.00  0.00     0.107 C 
HETATM    2  C3  UNL     1      22.801   2.799  52.565  1.00  0.00     0.048 C 
HETATM    3  C4  UNL     1      22.312   1.406  52.657  1.00  0.00     0.000 C 
HETATM    4  C5  UNL     1      22.605   0.127  52.966  1.00  0.00    -0.017 C 
HETATM    5  C6  UNL     1      23.642  -0.880  53.462  1.00  0.00     0.130 C 
HETATM    6  C7  UNL     1      24.838  -0.049  53.706  1.00  0.00     0.226 C 
HETATM    7  O2  UNL     1      24.282   0.768  53.037  1.00  0.00    -0.273 OA
HETATM    8  N2  UNL     1      25.971   0.711  53.951  1.00  0.00    -0.304 N 
HETATM    9  C8  UNL     1      27.254   0.534  54.538  1.00  0.00     0.160 C 
HETATM   10  C9  UNL     1      28.246   1.053  53.474  1.00  0.00     0.294 C 
HETATM   11  N3  UNL     1      27.416   1.970  52.737  1.00  0.00     0.127 N 
HETATM   12  C10 UNL     1      26.297   2.125  53.584  1.00  0.00     0.430 C 
HETATM   13  N4  UNL     1      25.146   2.786  53.106  1.00  0.00    -0.331 N 
HETATM   14  H11 UNL     1      27.872   2.831  52.456  1.00  0.00     0.321 HD
HETATM   15  H13 UNL     1      25.275   2.672  52.075  1.00  0.00     0.165 HD
ENDROOT
BRANCH   1  16
HETATM   16  N1  UNL     1      24.108   4.867  52.602  1.00  0.00    -0.295 N 
HETATM   17  C1  UNL     1      24.192   5.747  51.506  1.00  0.00     0.327 C 
HETATM   18  O1  UNL     1      24.172   5.115  50.452  1.00  0.00    -0.247 OA
HETATM   19  N5  UNL     1      24.278   7.156  51.581  1.00  0.00    -0.293 N 
HETATM   20  H14 UNL     1      24.283   7.503  52.555  1.00  0.00     0.172 HD
HETATM   21  H1  UNL     1      24.182   5.414  53.520  1.00  0.00     0.172 HD
BRANCH  19  22
HETATM   22  C11 UNL     1      24.350   7.990  50.452  1.00  0.00     0.131 A 
HETATM   23  C12 UNL     1      23.343   8.383  49.628  1.00  0.00     0.050 A 
HETATM   24  C13 UNL     1      23.540   9.269  48.573  1.00  0.00     0.005 A 
HETATM   25  C14 UNL     1      24.821   9.722  48.414  1.00  0.00     0.019 A 
HETATM   26  C15 UNL     1      25.892   9.348  49.238  1.00  0.00     0.119 A 
HETATM   27  N6  UNL     1      25.566   8.488  50.219  1.00  0.00    -0.243 NA
ENDBRANCH  19  22
ENDBRANCH   1  16
TORSDOF 2
ENDMDL
MODEL 6
REMARK VINA RESULT:      -7.8      6.774      9.361
REMARK  2 active torsions:
REMARK  status: ('A' for Active; 'I' for Inactive)
REMARK       I    between atoms: C1_2  and  N1_3 
REMARK       I    between atoms: C1_2  and  N5_17 
REMARK    1  A    between atoms: N1_3  and  C2_4 
REMARK    2  A    between atoms: N5_17  and  C11_18 
ROOT
HETATM    1  C2  UNL     1      26.790   6.168  48.876  1.00  0.00     0.107 C 
HETATM    2  C3  UNL     1      26.095   7.040  48.110  1.00  0.00     0.048 C 
HETATM    3  C4  UNL     1      26.356   7.963  46.983  1.00  0.00     0.000 C 
HETATM    4  C5  UNL     1      27.262   8.449  46.112  1.00  0.00    -0.017 C 
HETATM    5  C6  UNL     1      28.701   8.436  45.598  1.00  0.00     0.130 C 
HETATM    6  C7  UNL     1      29.361   7.428  46.452  1.00  0.00     0.226 C 
HETATM    7  O2  UNL     1      28.414   7.562  47.167  1.00  0.00    -0.273 OA
HETATM    8  N2  UNL     1      30.000   6.480  47.236  1.00  0.00    -0.304 N 
HETATM    9  C8  UNL     1      31.260   5.821  47.277  1.00  0.00     0.160 C 
HETATM   10  C9  UNL     1      31.763   6.029  48.722  1.00  0.00     0.294 C 
HETATM   11  N3  UNL     1      30.523   6.223  49.428  1.00  0.00     0.127 N 
HETATM   12  C10 UNL     1      29.561   5.792  48.490  1.00  0.00     0.430 C 
HETATM   13  N4  UNL     1      28.192   6.036  48.730  1.00  0.00    -0.331 N 
HETATM   14  H11 UNL     1      30.474   5.778  50.339  1.00  0.00     0.321 HD
HETATM   15  H13 UNL     1      28.257   6.836  49.400  1.00  0.00     0.165 HD
ENDROOT
BRANCH   1  16
HETATM   16  N1  UNL     1      26.230   5.391  49.912  1.00  0.00    -0.295 N 
HETATM   17  C1  UNL     1      26.285   4.039  50.300  1.00  0.00     0.327 C 
HETATM   18  O1  UNL     1      26.951   3.393  49.494  1.00  0.00    -0.247 OA
HETATM   19  N5  UNL     1      25.678   3.483  51.449  1.00  0.00    -0.293 N 
HETATM   20  H14 UNL     1      25.158   4.184  52.003  1.00  0.00     0.172 HD
HETATM   21  H1  UNL     1      25.603   5.942  50.583  1.00  0.00     0.172 HD
BRANCH  19  22
HETATM   22  C11 UNL     1      25.772   2.124  51.797  1.00  0.00     0.131 A 
HETATM   23  C12 UNL     1      26.868   1.321  51.771  1.00  0.00     0.050 A 
HETATM   24  C13 UNL     1      26.839  -0.002  52.202  1.00  0.00     0.005 A 
HETATM   25  C14 UNL     1      25.628  -0.448  52.658  1.00  0.00     0.019 A 
HETATM   26  C15 UNL     1      24.470   0.342  52.706  1.00  0.00     0.119 A 
HETATM   27  N6  UNL     1      24.634   1.600  52.259  1.00  0.00    -0.243 NA
ENDBRANCH  19  22
ENDBRANCH   1  16
TORSDOF 2
ENDMDL
MODEL 7
REMARK VINA RESULT:      -7.8      3.639      5.140
REMARK  2 active torsions:
REMARK  status: ('A' for Active; 'I' for Inactive)
REMARK       I    between atoms: C1_2  and  N1_3 
REMARK       I    between atoms: C1_2  and  N5_17 
REMARK    1  A    between atoms: N1_3  and  C2_4 
REMARK    2  A    between atoms: N5_17  and  C11_18 
ROOT
HETATM    1  C2  UNL     1      23.812   2.827  50.401  1.00  0.00     0.107 C 
HETATM    2  C3  UNL     1      22.806   2.469  49.570  1.00  0.00     0.048 C 
HETATM    3  C4  UNL     1      22.089   3.034  48.405  1.00  0.00     0.000 C 
HETATM    4  C5  UNL     1      21.981   4.061  47.539  1.00  0.00    -0.017 C 
HETATM    5  C6  UNL     1      22.498   5.421  47.072  1.00  0.00     0.130 C 
HETATM    6  C7  UNL     1      23.614   5.701  47.997  1.00  0.00     0.226 C 
HETATM    7  O2  UNL     1      23.134   4.842  48.674  1.00  0.00    -0.273 OA
HETATM    8  N2  UNL     1      24.671   5.981  48.849  1.00  0.00    -0.304 N 
HETATM    9  C8  UNL     1      25.705   6.951  48.964  1.00  0.00     0.160 C 
HETATM   10  C9  UNL     1      25.589   7.476  50.411  1.00  0.00     0.294 C 
HETATM   11  N3  UNL     1      24.957   6.362  51.067  1.00  0.00     0.127 N 
HETATM   12  C10 UNL     1      25.102   5.322  50.123  1.00  0.00     0.430 C 
HETATM   13  N4  UNL     1      24.407   4.108  50.307  1.00  0.00    -0.331 N 
HETATM   14  H11 UNL     1      25.305   6.156  51.997  1.00  0.00     0.321 HD
HETATM   15  H13 UNL     1      23.634   4.426  50.936  1.00  0.00     0.165 HD
ENDROOT
BRANCH   1  16
HETATM   16  N1  UNL     1      24.299   2.029  51.458  1.00  0.00    -0.295 N 
HETATM   17  C1  UNL     1      25.554   1.523  51.844  1.00  0.00     0.327 C 
HETATM   18  O1  UNL     1      26.407   1.827  51.013  1.00  0.00    -0.247 OA
HETATM   19  N5  UNL     1      25.823   0.779  53.015  1.00  0.00    -0.293 N 
HETATM   20  H14 UNL     1      24.976   0.623  53.589  1.00  0.00     0.172 HD
HETATM   21  H1  UNL     1      23.546   1.716  52.153  1.00  0.00     0.172 HD
BRANCH  19  22
HETATM   22  C11 UNL     1      27.100   0.305  53.359  1.00  0.00     0.131 A 
HETATM   23  C12 UNL     1      27.709  -0.843  52.960  1.00  0.00     0.050 A 
HETATM   24  C13 UNL     1      29.011  -1.168  53.327  1.00  0.00     0.005 A 
HETATM   25  C14 UNL     1      29.646  -0.253  54.123  1.00  0.00     0.019 A 
HETATM   26  C15 UNL     1      29.062   0.945  54.559  1.00  0.00     0.119 A 
HETATM   27  N6  UNL     1      27.800   1.137  54.133  1.00  0.00    -0.243 NA
ENDBRANCH  19  22
ENDBRANCH   1  16
TORSDOF 2
ENDMDL
MODEL 8
REMARK VINA RESULT:      -7.7      4.140      7.204
REMARK  2 active torsions:
REMARK  status: ('A' for Active; 'I' for Inactive)
REMARK       I    between atoms: C1_2  and  N1_3 
REMARK       I    between atoms: C1_2  and  N5_17 
REMARK    1  A    between atoms: N1_3  and  C2_4 
REMARK    2  A    between atoms: N5_17  and  C11_18 
ROOT
HETATM    1  C2  UNL     1      25.863   3.596  50.489  1.00  0.00     0.107 C 
HETATM    2  C3  UNL     1      26.890   3.712  49.615  1.00  0.00     0.048 C 
HETATM    3  C4  UNL     1      27.464   4.746  48.726  1.00  0.00     0.000 C 
HETATM    4  C5  UNL     1      27.394   6.017  48.285  1.00  0.00    -0.017 C 
HETATM    5  C6  UNL     1      26.695   7.374  48.350  1.00  0.00     0.130 C 
HETATM    6  C7  UNL     1      25.634   7.166  49.357  1.00  0.00     0.226 C 
HETATM    7  O2  UNL     1      25.837   6.002  49.180  1.00  0.00    -0.273 OA
HETATM    8  N2  UNL     1      24.637   6.996  50.304  1.00  0.00    -0.304 N 
HETATM    9  C8  UNL     1      23.693   7.802  50.998  1.00  0.00     0.160 C 
HETATM   10  C9  UNL     1      22.337   7.098  50.772  1.00  0.00     0.294 C 
HETATM   11  N3  UNL     1      22.759   5.743  50.528  1.00  0.00     0.127 N 
HETATM   12  C10 UNL     1      24.105   5.756  50.952  1.00  0.00     0.430 C 
HETATM   13  N4  UNL     1      24.940   4.655  50.665  1.00  0.00    -0.331 N 
HETATM   14  H11 UNL     1      22.176   5.029  50.950  1.00  0.00     0.321 HD
HETATM   15  H13 UNL     1      24.431   4.239  49.851  1.00  0.00     0.165 HD
ENDROOT
BRANCH   1  16
HETATM   16  N1  UNL     1      25.569   2.431  51.227  1.00  0.00    -0.295 N 
HETATM   17  C1  UNL     1      24.417   1.871  51.812  1.00  0.00     0.327 C 
HETATM   18  O1  UNL     1      23.459   2.629  51.670  1.00  0.00    -0.247 OA
HETATM   19  N5  UNL     1      24.344   0.620  52.465  1.00  0.00    -0.293 N 
HETATM   20  H14 UNL     1      25.254   0.129  52.485  1.00  0.00     0.172 HD
HETATM   21  H1  UNL     1      26.415   1.797  51.401  1.00  0.00     0.172 HD
BRANCH  19  22
HETATM   22  C11 UNL     1      23.163   0.103  53.024  1.00  0.00     0.131 A 
HETATM   23  C12 UNL     1      21.914   0.083  52.488  1.00  0.00     0.050 A 
HETATM   24  C13 UNL     1      20.834  -0.520  53.126  1.00  0.00     0.005 A 
HETATM   25  C14 UNL     1      21.109  -1.094  54.337  1.00  0.00     0.019 A 
HETATM   26  C15 UNL     1      22.379  -1.101  54.931  1.00  0.00     0.119 A 
HETATM   27  N6  UNL     1      23.334  -0.485  54.210  1.00  0.00    -0.243 NA
ENDBRANCH  19  22
ENDBRANCH   1  16
TORSDOF 2
ENDMDL
MODEL 9
REMARK VINA RESULT:      -7.7      2.532      3.675
REMARK  2 active torsions:
REMARK  status: ('A' for Active; 'I' for Inactive)
REMARK       I    between atoms: C1_2  and  N1_3 
REMARK       I    between atoms: C1_2  and  N5_17 
REMARK    1  A    between atoms: N1_3  and  C2_4 
REMARK    2  A    between atoms: N5_17  and  C11_18 
ROOT
HETATM    1  C2  UNL     1      22.586   2.520  52.356  1.00  0.00     0.107 C 
HETATM    2  C3  UNL     1      21.294   2.204  52.108  1.00  0.00     0.048 C 
HETATM    3  C4  UNL     1      20.152   2.763  51.351  1.00  0.00     0.000 C 
HETATM    4  C5  UNL     1      19.711   3.745  50.541  1.00  0.00    -0.017 C 
HETATM    5  C6  UNL     1      20.024   5.027  49.769  1.00  0.00     0.130 C 
HETATM    6  C7  UNL     1      21.454   5.260  50.057  1.00  0.00     0.226 C 
HETATM    7  O2  UNL     1      21.295   4.485  50.952  1.00  0.00    -0.273 OA
HETATM    8  N2  UNL     1      22.797   5.494  50.306  1.00  0.00    -0.304 N 
HETATM    9  C8  UNL     1      23.816   6.375  49.851  1.00  0.00     0.160 C 
HETATM   10  C9  UNL     1      24.407   6.989  51.139  1.00  0.00     0.294 C 
HETATM   11  N3  UNL     1      24.090   5.972  52.107  1.00  0.00     0.127 N 
HETATM   12  C10 UNL     1      23.730   4.873  51.298  1.00  0.00     0.430 C 
HETATM   13  N4  UNL     1      23.136   3.737  51.886  1.00  0.00    -0.331 N 
HETATM   14  H11 UNL     1      24.816   5.790  52.792  1.00  0.00     0.321 HD
HETATM   15  H13 UNL     1      22.757   4.155  52.766  1.00  0.00     0.165 HD
ENDROOT
BRANCH   1  16
HETATM   16  N1  UNL     1      23.462   1.742  53.142  1.00  0.00    -0.295 N 
HETATM   17  C1  UNL     1      24.811   1.347  53.058  1.00  0.00     0.327 C 
HETATM   18  O1  UNL     1      25.307   1.752  52.009  1.00  0.00    -0.247 OA
HETATM   19  N5  UNL     1      25.516   0.600  54.029  1.00  0.00    -0.293 N 
HETATM   20  H14 UNL     1      24.928   0.349  54.842  1.00  0.00     0.172 HD
HETATM   21  H1  UNL     1      23.015   1.341  54.029  1.00  0.00     0.172 HD
BRANCH  19  22
HETATM   22  C11 UNL     1      26.868   0.239  53.899  1.00  0.00     0.131 A 
HETATM   23  C12 UNL     1      27.397  -0.830  53.247  1.00  0.00     0.050 A 
HETATM   24  C13 UNL     1      28.769  -1.040  53.142  1.00  0.00     0.005 A 
HETATM   25  C14 UNL     1      29.559  -0.098  53.742  1.00  0.00     0.019 A 
HETATM   26  C15 UNL     1      29.061   1.021  54.425  1.00  0.00     0.119 A 
HETATM   27  N6  UNL     1      27.719   1.106  54.453  1.00  0.00    -0.243 NA
ENDBRANCH  19  22
ENDBRANCH   1  16
TORSDOF 2
ENDMDL
