MODEL 1
REMARK VINA RESULT:      -8.2      0.000      0.000
REMARK  4 active torsions:
REMARK  status: ('A' for Active; 'I' for Inactive)
REMARK    1  A    between atoms: C5_5  and  S1_6 
REMARK    2  A    between atoms: S1_6  and  N1_9 
REMARK       I    between atoms: N1_9  and  C6_10 
REMARK    3  A    between atoms: C6_10  and  C7_12 
REMARK    4  A    between atoms: C7_12  and  C8_13 
ROOT
HETATM    1  N1  UNL     1      23.618   1.283  51.507  1.00  0.00    -0.250 N 
HETATM    2  C6  UNL     1      24.167   1.503  52.797  1.00  0.00     0.235 C 
HETATM    3  O3  UNL     1      24.399   2.637  53.278  1.00  0.00    -0.272 OA
HETATM    4  H6  UNL     1      23.421   0.342  51.097  1.00  0.00     0.181 HD
ENDROOT
BRANCH   1   5
HETATM    5  S1  UNL     1      23.193   2.533  50.423  1.00  0.00     0.265 S 
HETATM    6  O1  UNL     1      22.209   3.508  51.053  1.00  0.00    -0.200 OA
HETATM    7  O2  UNL     1      22.456   1.933  49.250  1.00  0.00    -0.200 OA
BRANCH   5   8
HETATM    8  C5  UNL     1      24.562   3.466  49.862  1.00  0.00     0.080 A 
HETATM    9  C4  UNL     1      24.298   4.736  49.362  1.00  0.00     0.026 A 
HETATM   10  C3  UNL     1      25.363   5.503  48.908  1.00  0.00     0.008 A 
HETATM   11  C2  UNL     1      26.683   5.086  48.920  1.00  0.00    -0.062 A 
HETATM   12  C1  UNL     1      27.768   5.956  48.422  1.00  0.00     0.048 C 
HETATM   13  C15 UNL     1      26.886   3.802  49.433  1.00  0.00     0.008 A 
HETATM   14  C14 UNL     1      25.862   3.004  49.896  1.00  0.00     0.026 A 
ENDBRANCH   5   8
ENDBRANCH   1   5
BRANCH   2  15
HETATM   15  C7  UNL     1      24.451   0.273  53.542  1.00  0.00     0.142 C 
BRANCH  15  16
HETATM   16  C8  UNL     1      25.906   0.006  53.682  1.00  0.00    -0.049 A 
HETATM   17  C9  UNL     1      26.492  -0.771  52.700  1.00  0.00     0.011 A 
HETATM   18  C10 UNL     1      27.850  -1.059  52.770  1.00  0.00     0.043 A 
HETATM   19  C11 UNL     1      28.593  -0.555  53.837  1.00  0.00     0.116 A 
HETATM   20  F1  UNL     1      29.924  -0.837  53.905  1.00  0.00    -0.206 F 
HETATM   21  C12 UNL     1      28.007   0.219  54.815  1.00  0.00     0.043 A 
HETATM   22  C13 UNL     1      26.653   0.509  54.749  1.00  0.00     0.011 A 
ENDBRANCH  15  16
ENDBRANCH   2  15
TORSDOF 4
ENDMDL
MODEL 2
REMARK VINA RESULT:      -8.2      3.080      4.981
REMARK  4 active torsions:
REMARK  status: ('A' for Active; 'I' for Inactive)
REMARK    1  A    between atoms: C5_5  and  S1_6 
REMARK    2  A    between atoms: S1_6  and  N1_9 
REMARK       I    between atoms: N1_9  and  C6_10 
REMARK    3  A    between atoms: C6_10  and  C7_12 
REMARK    4  A    between atoms: C7_12  and  C8_13 
ROOT
HETATM    1  N1  UNL     1      25.756   2.623  52.086  1.00  0.00    -0.250 N 
HETATM    2  C6  UNL     1      26.521   2.408  53.262  1.00  0.00     0.235 C 
HETATM    3  O3  UNL     1      26.048   2.433  54.423  1.00  0.00    -0.272 OA
HETATM    4  H6  UNL     1      26.141   2.604  51.115  1.00  0.00     0.181 HD
ENDROOT
BRANCH   1   5
HETATM    5  S1  UNL     1      24.078   2.945  52.083  1.00  0.00     0.265 S 
HETATM    6  O1  UNL     1      23.570   3.249  50.681  1.00  0.00    -0.200 OA
HETATM    7  O2  UNL     1      23.822   4.204  52.876  1.00  0.00    -0.200 OA
BRANCH   5   8
HETATM    8  C5  UNL     1      23.113   1.629  52.712  1.00  0.00     0.080 A 
HETATM    9  C4  UNL     1      23.775   0.438  52.988  1.00  0.00     0.026 A 
HETATM   10  C3  UNL     1      23.037  -0.627  53.489  1.00  0.00     0.008 A 
HETATM   11  C2  UNL     1      21.676  -0.584  53.735  1.00  0.00    -0.062 A 
HETATM   12  C1  UNL     1      20.954  -1.756  54.269  1.00  0.00     0.048 C 
HETATM   13  C15 UNL     1      21.066   0.638  53.438  1.00  0.00     0.008 A 
HETATM   14  C14 UNL     1      21.755   1.724  52.940  1.00  0.00     0.026 A 
ENDBRANCH   5   8
ENDBRANCH   1   5
BRANCH   2  15
HETATM   15  C7  UNL     1      27.942   2.150  53.011  1.00  0.00     0.142 C 
BRANCH  15  16
HETATM   16  C8  UNL     1      28.298   0.713  53.135  1.00  0.00    -0.049 A 
HETATM   17  C9  UNL     1      29.561   0.424  53.617  1.00  0.00     0.011 A 
HETATM   18  C10 UNL     1      29.959  -0.900  53.757  1.00  0.00     0.043 A 
HETATM   19  C11 UNL     1      29.067  -1.913  53.405  1.00  0.00     0.116 A 
HETATM   20  F1  UNL     1      29.456  -3.211  53.544  1.00  0.00    -0.206 F 
HETATM   21  C12 UNL     1      27.807  -1.624  52.925  1.00  0.00     0.043 A 
HETATM   22  C13 UNL     1      27.408  -0.304  52.783  1.00  0.00     0.011 A 
ENDBRANCH  15  16
ENDBRANCH   2  15
TORSDOF 4
ENDMDL
MODEL 3
REMARK VINA RESULT:      -8.1      0.171      1.484
REMARK  4 active torsions:
REMARK  status: ('A' for Active; 'I' for Inactive)
REMARK    1  A    between atoms: C5_5  and  S1_6 
REMARK    2  A    between atoms: S1_6  and  N1_9 
REMARK       I    between atoms: N1_9  and  C6_10 
REMARK    3  A    between atoms: C6_10  and  C7_12 
REMARK    4  A    between atoms: C7_12  and  C8_13 
ROOT
HETATM    1  N1  UNL     1      23.530   1.377  51.467  1.00  0.00    -0.250 N 
HETATM    2  C6  UNL     1      24.091   1.560  52.758  1.00  0.00     0.235 C 
HETATM    3  O3  UNL     1      24.338   2.680  53.265  1.00  0.00    -0.272 OA
HETATM    4  H6  UNL     1      23.321   0.449  51.036  1.00  0.00     0.181 HD
ENDROOT
BRANCH   1   5
HETATM    5  S1  UNL     1      23.109   2.658  50.418  1.00  0.00     0.265 S 
HETATM    6  O1  UNL     1      22.164   3.644  51.091  1.00  0.00    -0.200 OA
HETATM    7  O2  UNL     1      22.329   2.098  49.253  1.00  0.00    -0.200 OA
BRANCH   5   8
HETATM    8  C5  UNL     1      24.486   3.569  49.841  1.00  0.00     0.080 A 
HETATM    9  C4  UNL     1      25.726   2.944  49.900  1.00  0.00     0.026 A 
HETATM   10  C3  UNL     1      26.840   3.640  49.450  1.00  0.00     0.008 A 
HETATM   11  C2  UNL     1      26.800   4.926  48.940  1.00  0.00    -0.062 A 
HETATM   12  C1  UNL     1      28.026   5.607  48.477  1.00  0.00     0.048 C 
HETATM   13  C15 UNL     1      25.528   5.503  48.906  1.00  0.00     0.008 A 
HETATM   14  C14 UNL     1      24.393   4.852  49.341  1.00  0.00     0.026 A 
ENDBRANCH   5   8
ENDBRANCH   1   5
BRANCH   2  15
HETATM   15  C7  UNL     1      24.368   0.309  53.470  1.00  0.00     0.142 C 
BRANCH  15  16
HETATM   16  C8  UNL     1      25.820   0.006  53.560  1.00  0.00    -0.049 A 
HETATM   17  C9  UNL     1      26.498   0.523  54.647  1.00  0.00     0.011 A 
HETATM   18  C10 UNL     1      27.858   0.278  54.791  1.00  0.00     0.043 A 
HETATM   19  C11 UNL     1      28.512  -0.491  53.827  1.00  0.00     0.116 A 
HETATM   20  F1  UNL     1      29.844  -0.732  53.969  1.00  0.00    -0.206 F 
HETATM   21  C12 UNL     1      27.834  -1.006  52.743  1.00  0.00     0.043 A 
HETATM   22  C13 UNL     1      26.477  -0.763  52.596  1.00  0.00     0.011 A 
ENDBRANCH  15  16
ENDBRANCH   2  15
TORSDOF 4
ENDMDL
MODEL 4
REMARK VINA RESULT:      -7.8      4.225      6.251
REMARK  4 active torsions:
REMARK  status: ('A' for Active; 'I' for Inactive)
REMARK    1  A    between atoms: C5_5  and  S1_6 
REMARK    2  A    between atoms: S1_6  and  N1_9 
REMARK       I    between atoms: N1_9  and  C6_10 
REMARK    3  A    between atoms: C6_10  and  C7_12 
REMARK    4  A    between atoms: C7_12  and  C8_13 
ROOT
HETATM    1  N1  UNL     1      22.939  -0.217  53.173  1.00  0.00    -0.250 N 
HETATM    2  C6  UNL     1      24.274  -0.329  53.642  1.00  0.00     0.235 C 
HETATM    3  O3  UNL     1      24.588  -0.789  54.765  1.00  0.00    -0.272 OA
HETATM    4  H6  UNL     1      22.668   0.164  52.239  1.00  0.00     0.181 HD
ENDROOT
BRANCH   1   5
HETATM    5  S1  UNL     1      21.567  -0.693  54.072  1.00  0.00     0.265 S 
HETATM    6  O1  UNL     1      21.385   0.169  55.312  1.00  0.00    -0.200 OA
HETATM    7  O2  UNL     1      21.787  -2.093  54.595  1.00  0.00    -0.200 OA
BRANCH   5   8
HETATM    8  C5  UNL     1      20.075  -0.617  53.162  1.00  0.00     0.080 A 
HETATM    9  C4  UNL     1      19.009  -1.374  53.633  1.00  0.00     0.026 A 
HETATM   10  C3  UNL     1      17.810  -1.336  52.933  1.00  0.00     0.008 A 
HETATM   11  C2  UNL     1      17.601  -0.588  51.787  1.00  0.00    -0.062 A 
HETATM   12  C1  UNL     1      16.298  -0.594  51.093  1.00  0.00     0.048 C 
HETATM   13  C15 UNL     1      18.708   0.152  51.362  1.00  0.00     0.008 A 
HETATM   14  C14 UNL     1      19.918   0.147  52.023  1.00  0.00     0.026 A 
ENDBRANCH   5   8
ENDBRANCH   1   5
BRANCH   2  15
HETATM   15  C7  UNL     1      25.283   0.146  52.691  1.00  0.00     0.142 C 
BRANCH  15  16
HETATM   16  C8  UNL     1      26.669  -0.206  53.096  1.00  0.00    -0.049 A 
HETATM   17  C9  UNL     1      27.139  -1.443  52.696  1.00  0.00     0.011 A 
HETATM   18  C10 UNL     1      28.426  -1.835  53.042  1.00  0.00     0.043 A 
HETATM   19  C11 UNL     1      29.219  -0.964  53.790  1.00  0.00     0.116 A 
HETATM   20  F1  UNL     1      30.481  -1.348  54.128  1.00  0.00    -0.206 F 
HETATM   21  C12 UNL     1      28.749   0.269  54.188  1.00  0.00     0.043 A 
HETATM   22  C13 UNL     1      27.465   0.663  53.845  1.00  0.00     0.011 A 
ENDBRANCH  15  16
ENDBRANCH   2  15
TORSDOF 4
ENDMDL
MODEL 5
REMARK VINA RESULT:      -7.7      1.812      2.244
REMARK  4 active torsions:
REMARK  status: ('A' for Active; 'I' for Inactive)
REMARK    1  A    between atoms: C5_5  and  S1_6 
REMARK    2  A    between atoms: S1_6  and  N1_9 
REMARK       I    between atoms: N1_9  and  C6_10 
REMARK    3  A    between atoms: C6_10  and  C7_12 
REMARK    4  A    between atoms: C7_12  and  C8_13 
ROOT
HETATM    1  N1  UNL     1      25.195   3.429  51.922  1.00  0.00    -0.250 N 
HETATM    2  C6  UNL     1      26.142   2.372  51.963  1.00  0.00     0.235 C 
HETATM    3  O3  UNL     1      26.699   1.888  50.950  1.00  0.00    -0.272 OA
HETATM    4  H6  UNL     1      24.726   3.839  52.761  1.00  0.00     0.181 HD
ENDROOT
BRANCH   1   5
HETATM    5  S1  UNL     1      24.678   4.194  50.485  1.00  0.00     0.265 S 
HETATM    6  O1  UNL     1      23.590   5.221  50.759  1.00  0.00    -0.200 OA
HETATM    7  O2  UNL     1      24.032   3.164  49.589  1.00  0.00    -0.200 OA
BRANCH   5   8
HETATM    8  C5  UNL     1      25.965   5.015  49.630  1.00  0.00     0.080 A 
HETATM    9  C4  UNL     1      25.863   6.396  49.513  1.00  0.00     0.026 A 
HETATM   10  C3  UNL     1      26.869   7.079  48.840  1.00  0.00     0.008 A 
HETATM   11  C2  UNL     1      27.976   6.472  48.272  1.00  0.00    -0.062 A 
HETATM   12  C1  UNL     1      29.008   7.261  47.571  1.00  0.00     0.048 C 
HETATM   13  C15 UNL     1      28.022   5.083  48.422  1.00  0.00     0.008 A 
HETATM   14  C14 UNL     1      27.050   4.362  49.081  1.00  0.00     0.026 A 
ENDBRANCH   5   8
ENDBRANCH   1   5
BRANCH   2  15
HETATM   15  C7  UNL     1      26.425   1.877  53.313  1.00  0.00     0.142 C 
BRANCH  15  16
HETATM   16  C8  UNL     1      27.237   0.632  53.312  1.00  0.00    -0.049 A 
HETATM   17  C9  UNL     1      28.549   0.744  53.732  1.00  0.00     0.011 A 
HETATM   18  C10 UNL     1      29.363  -0.381  53.755  1.00  0.00     0.043 A 
HETATM   19  C11 UNL     1      28.833  -1.607  53.351  1.00  0.00     0.116 A 
HETATM   20  F1  UNL     1      29.631  -2.710  53.375  1.00  0.00    -0.206 F 
HETATM   21  C12 UNL     1      27.524  -1.718  52.933  1.00  0.00     0.043 A 
HETATM   22  C13 UNL     1      26.709  -0.596  52.908  1.00  0.00     0.011 A 
ENDBRANCH  15  16
ENDBRANCH   2  15
TORSDOF 4
ENDMDL
MODEL 6
REMARK VINA RESULT:      -7.6      2.989      6.830
REMARK  4 active torsions:
REMARK  status: ('A' for Active; 'I' for Inactive)
REMARK    1  A    between atoms: C5_5  and  S1_6 
REMARK    2  A    between atoms: S1_6  and  N1_9 
REMARK       I    between atoms: N1_9  and  C6_10 
REMARK    3  A    between atoms: C6_10  and  C7_12 
REMARK    4  A    between atoms: C7_12  and  C8_13 
ROOT
HETATM    1  N1  UNL     1      24.919   2.510  51.305  1.00  0.00    -0.250 N 
HETATM    2  C6  UNL     1      26.057   3.031  50.636  1.00  0.00     0.235 C 
HETATM    3  O3  UNL     1      27.220   3.006  51.103  1.00  0.00    -0.272 OA
HETATM    4  H6  UNL     1      23.946   2.526  50.924  1.00  0.00     0.181 HD
ENDROOT
BRANCH   1   5
HETATM    5  S1  UNL     1      24.971   1.769  52.844  1.00  0.00     0.265 S 
HETATM    6  O1  UNL     1      23.734   0.921  53.098  1.00  0.00    -0.200 OA
HETATM    7  O2  UNL     1      24.936   2.844  53.904  1.00  0.00    -0.200 OA
BRANCH   5   8
HETATM    8  C5  UNL     1      26.365   0.738  53.076  1.00  0.00     0.080 A 
HETATM    9  C4  UNL     1      27.377   1.221  53.899  1.00  0.00     0.026 A 
HETATM   10  C3  UNL     1      28.497   0.426  54.104  1.00  0.00     0.008 A 
HETATM   11  C2  UNL     1      28.678  -0.825  53.540  1.00  0.00    -0.062 A 
HETATM   12  C1  UNL     1      29.897  -1.616  53.802  1.00  0.00     0.048 C 
HETATM   13  C15 UNL     1      27.629  -1.255  52.723  1.00  0.00     0.008 A 
HETATM   14  C14 UNL     1      26.497  -0.504  52.489  1.00  0.00     0.026 A 
ENDBRANCH   5   8
ENDBRANCH   1   5
BRANCH   2  15
HETATM   15  C7  UNL     1      25.762   3.619  49.326  1.00  0.00     0.142 C 
BRANCH  15  16
HETATM   16  C8  UNL     1      26.417   4.937  49.124  1.00  0.00    -0.049 A 
HETATM   17  C9  UNL     1      25.746   6.046  49.606  1.00  0.00     0.011 A 
HETATM   18  C10 UNL     1      26.303   7.309  49.450  1.00  0.00     0.043 A 
HETATM   19  C11 UNL     1      27.535   7.429  48.806  1.00  0.00     0.116 A 
HETATM   20  F1  UNL     1      28.081   8.668  48.654  1.00  0.00    -0.206 F 
HETATM   21  C12 UNL     1      28.203   6.323  48.327  1.00  0.00     0.043 A 
HETATM   22  C13 UNL     1      27.650   5.061  48.480  1.00  0.00     0.011 A 
ENDBRANCH  15  16
ENDBRANCH   2  15
TORSDOF 4
ENDMDL
MODEL 7
REMARK VINA RESULT:      -7.4      4.124      6.491
REMARK  4 active torsions:
REMARK  status: ('A' for Active; 'I' for Inactive)
REMARK    1  A    between atoms: C5_5  and  S1_6 
REMARK    2  A    between atoms: S1_6  and  N1_9 
REMARK       I    between atoms: N1_9  and  C6_10 
REMARK    3  A    between atoms: C6_10  and  C7_12 
REMARK    4  A    between atoms: C7_12  and  C8_13 
ROOT
HETATM    1  N1  UNL     1      23.874   1.468  51.335  1.00  0.00    -0.250 N 
HETATM    2  C6  UNL     1      22.495   1.806  51.348  1.00  0.00     0.235 C 
HETATM    3  O3  UNL     1      22.028   2.832  51.897  1.00  0.00    -0.272 OA
HETATM    4  H6  UNL     1      24.272   0.616  50.881  1.00  0.00     0.181 HD
ENDROOT
BRANCH   1   5
HETATM    5  S1  UNL     1      25.096   2.414  52.063  1.00  0.00     0.265 S 
HETATM    6  O1  UNL     1      24.581   3.140  53.297  1.00  0.00    -0.200 OA
HETATM    7  O2  UNL     1      25.503   3.507  51.105  1.00  0.00    -0.200 OA
BRANCH   5   8
HETATM    8  C5  UNL     1      26.497   1.487  52.552  1.00  0.00     0.080 A 
HETATM    9  C4  UNL     1      26.411   0.105  52.435  1.00  0.00     0.026 A 
HETATM   10  C3  UNL     1      27.506  -0.660  52.814  1.00  0.00     0.008 A 
HETATM   11  C2  UNL     1      28.689  -0.136  53.305  1.00  0.00    -0.062 A 
HETATM   12  C1  UNL     1      29.816  -1.010  53.689  1.00  0.00     0.048 C 
HETATM   13  C15 UNL     1      28.716   1.258  53.400  1.00  0.00     0.008 A 
HETATM   14  C14 UNL     1      27.656   2.060  53.035  1.00  0.00     0.026 A 
ENDBRANCH   5   8
ENDBRANCH   1   5
BRANCH   2  15
HETATM   15  C7  UNL     1      21.637   0.839  50.657  1.00  0.00     0.142 C 
BRANCH  15  16
HETATM   16  C8  UNL     1      20.581   0.273  51.537  1.00  0.00    -0.049 A 
HETATM   17  C9  UNL     1      19.293   0.264  51.035  1.00  0.00     0.011 A 
HETATM   18  C10 UNL     1      18.258  -0.251  51.806  1.00  0.00     0.043 A 
HETATM   19  C11 UNL     1      18.546  -0.751  53.076  1.00  0.00     0.116 A 
HETATM   20  F1  UNL     1      17.531  -1.256  53.831  1.00  0.00    -0.206 F 
HETATM   21  C12 UNL     1      19.831  -0.741  53.575  1.00  0.00     0.043 A 
HETATM   22  C13 UNL     1      20.866  -0.228  52.809  1.00  0.00     0.011 A 
ENDBRANCH  15  16
ENDBRANCH   2  15
TORSDOF 4
ENDMDL
MODEL 8
REMARK VINA RESULT:      -7.4      2.940      3.810
REMARK  4 active torsions:
REMARK  status: ('A' for Active; 'I' for Inactive)
REMARK    1  A    between atoms: C5_5  and  S1_6 
REMARK    2  A    between atoms: S1_6  and  N1_9 
REMARK       I    between atoms: N1_9  and  C6_10 
REMARK    3  A    between atoms: C6_10  and  C7_12 
REMARK    4  A    between atoms: C7_12  and  C8_13 
ROOT
HETATM    1  N1  UNL     1      22.851   3.140  50.900  1.00  0.00    -0.250 N 
HETATM    2  C6  UNL     1      21.739   2.664  51.642  1.00  0.00     0.235 C 
HETATM    3  O3  UNL     1      21.018   3.386  52.369  1.00  0.00    -0.272 OA
HETATM    4  H6  UNL     1      23.458   2.546  50.291  1.00  0.00     0.181 HD
ENDROOT
BRANCH   1   5
HETATM    5  S1  UNL     1      23.367   4.769  50.891  1.00  0.00     0.265 S 
HETATM    6  O1  UNL     1      23.507   5.319  52.303  1.00  0.00    -0.200 OA
HETATM    7  O2  UNL     1      22.298   5.616  50.244  1.00  0.00    -0.200 OA
BRANCH   5   8
HETATM    8  C5  UNL     1      24.900   5.011  50.084  1.00  0.00     0.080 A 
HETATM    9  C4  UNL     1      25.719   3.898  49.938  1.00  0.00     0.026 A 
HETATM   10  C3  UNL     1      26.943   4.056  49.302  1.00  0.00     0.008 A 
HETATM   11  C2  UNL     1      27.408   5.258  48.797  1.00  0.00    -0.062 A 
HETATM   12  C1  UNL     1      28.722   5.354  48.130  1.00  0.00     0.048 C 
HETATM   13  C15 UNL     1      26.542   6.341  48.973  1.00  0.00     0.008 A 
HETATM   14  C14 UNL     1      25.317   6.234  49.598  1.00  0.00     0.026 A 
ENDBRANCH   5   8
ENDBRANCH   1   5
BRANCH   2  15
HETATM   15  C7  UNL     1      21.492   1.227  51.490  1.00  0.00     0.142 C 
BRANCH  15  16
HETATM   16  C8  UNL     1      21.910   0.441  52.680  1.00  0.00    -0.049 A 
HETATM   17  C9  UNL     1      23.262   0.188  52.815  1.00  0.00     0.011 A 
HETATM   18  C10 UNL     1      23.721  -0.542  53.905  1.00  0.00     0.043 A 
HETATM   19  C11 UNL     1      22.798  -1.006  54.843  1.00  0.00     0.116 A 
HETATM   20  F1  UNL     1      23.248  -1.720  55.911  1.00  0.00    -0.206 F 
HETATM   21  C12 UNL     1      21.450  -0.753  54.707  1.00  0.00     0.043 A 
HETATM   22  C13 UNL     1      20.989  -0.025  53.621  1.00  0.00     0.011 A 
ENDBRANCH  15  16
ENDBRANCH   2  15
TORSDOF 4
ENDMDL
MODEL 9
REMARK VINA RESULT:      -7.2      3.926      6.320
REMARK  4 active torsions:
REMARK  status: ('A' for Active; 'I' for Inactive)
REMARK    1  A    between atoms: C5_5  and  S1_6 
REMARK    2  A    between atoms: S1_6  and  N1_9 
REMARK       I    between atoms: N1_9  and  C6_10 
REMARK    3  A    between atoms: C6_10  and  C7_12 
REMARK    4  A    between atoms: C7_12  and  C8_13 
ROOT
HETATM    1  N1  UNL     1      21.460   2.825  51.777  1.00  0.00    -0.250 N 
HETATM    2  C6  UNL     1      22.515   2.178  51.082  1.00  0.00     0.235 C 
HETATM    3  O3  UNL     1      22.344   1.304  50.200  1.00  0.00    -0.272 OA
HETATM    4  H6  UNL     1      21.593   3.554  52.513  1.00  0.00     0.181 HD
ENDROOT
BRANCH   1   5
HETATM    5  S1  UNL     1      19.803   2.507  51.509  1.00  0.00     0.265 S 
HETATM    6  O1  UNL     1      19.467   2.503  50.025  1.00  0.00    -0.200 OA
HETATM    7  O2  UNL     1      18.989   3.636  52.094  1.00  0.00    -0.200 OA
BRANCH   5   8
HETATM    8  C5  UNL     1      19.271   0.976  52.166  1.00  0.00     0.080 A 
HETATM    9  C4  UNL     1      18.038   0.498  51.736  1.00  0.00     0.026 A 
HETATM   10  C3  UNL     1      17.587  -0.715  52.240  1.00  0.00     0.008 A 
HETATM   11  C2  UNL     1      18.288  -1.490  53.148  1.00  0.00    -0.062 A 
HETATM   12  C1  UNL     1      17.747  -2.773  53.641  1.00  0.00     0.048 C 
HETATM   13  C15 UNL     1      19.519  -0.959  53.543  1.00  0.00     0.008 A 
HETATM   14  C14 UNL     1      20.009   0.240  53.072  1.00  0.00     0.026 A 
ENDBRANCH   5   8
ENDBRANCH   1   5
BRANCH   2  15
HETATM   15  C7  UNL     1      23.854   2.618  51.486  1.00  0.00     0.142 C 
BRANCH  15  16
HETATM   16  C8  UNL     1      24.712   1.500  51.955  1.00  0.00    -0.049 A 
HETATM   17  C9  UNL     1      24.144   0.613  52.851  1.00  0.00     0.011 A 
HETATM   18  C10 UNL     1      24.891  -0.455  53.330  1.00  0.00     0.043 A 
HETATM   19  C11 UNL     1      26.208  -0.609  52.893  1.00  0.00     0.116 A 
HETATM   20  F1  UNL     1      26.940  -1.656  53.363  1.00  0.00    -0.206 F 
HETATM   21  C12 UNL     1      26.773   0.276  52.000  1.00  0.00     0.043 A 
HETATM   22  C13 UNL     1      26.030   1.344  51.520  1.00  0.00     0.011 A 
ENDBRANCH  15  16
ENDBRANCH   2  15
TORSDOF 4
ENDMDL
