MODEL 1
REMARK VINA RESULT:      -8.6      0.000      0.000
REMARK  7 active torsions:
REMARK  status: ('A' for Active; 'I' for Inactive)
REMARK    1  A    between atoms: N1_9  and  C7_10 
REMARK    2  A    between atoms: C12_18  and  C13_19 
REMARK    3  A    between atoms: C13_19  and  N4_20 
REMARK    4  A    between atoms: C14_21  and  N5_23 
REMARK    5  A    between atoms: N5_23  and  C15_24 
REMARK    6  A    between atoms: C15_24  and  C16_25 
REMARK    7  A    between atoms: C16_25  and  N6_26 
ROOT
HETATM    1  C7  UNL     1      25.140   0.857  52.964  1.00  0.00     0.141 A 
HETATM    2  N2  UNL     1      24.316   0.037  53.536  1.00  0.00    -0.224 NA
HETATM    3  C8  UNL     1      22.984   0.328  53.411  1.00  0.00     0.236 A 
HETATM    4  N3  UNL     1      22.610   1.458  52.697  1.00  0.00    -0.240 NA
HETATM    5  C9  UNL     1      23.697   2.205  52.166  1.00  0.00     0.082 A 
HETATM    6  C10 UNL     1      22.979   3.187  51.548  1.00  0.00     0.117 C 
HETATM    7 CL2  UNL     1      21.236   3.458  51.450  1.00  0.00    -0.095 Cl
HETATM    8  C11 UNL     1      25.139   1.938  52.260  1.00  0.00     0.037 A 
HETATM    9  C12 UNL     1      25.378   2.894  51.439  1.00  0.00     0.020 C 
ENDROOT
BRANCH   1  10
HETATM   10  N1  UNL     1      26.432   0.634  53.368  1.00  0.00    -0.339 N 
HETATM   11  C2  UNL     1      27.813   0.771  53.549  1.00  0.00     0.093 A 
HETATM   12  C1  UNL     1      28.712   1.539  53.915  1.00  0.00     0.175 A 
HETATM   13  C3  UNL     1      28.780  -0.411  53.316  1.00  0.00     0.029 C 
HETATM   14  C6  UNL     1      28.095   0.576  54.917  1.00  0.00     0.112 A 
HETATM   15  C5  UNL     1      27.113  -0.287  54.196  1.00  0.00     0.144 A 
HETATM   16  F1  UNL     1      29.659   2.280  54.505  1.00  0.00    -0.236 F 
HETATM   17  C4  UNL     1      27.732  -1.092  53.065  1.00  0.00     0.034 C 
HETATM   18 CL1  UNL     1      26.865  -2.342  52.138  1.00  0.00    -0.087 Cl
ENDBRANCH   1  10
BRANCH   9  19
HETATM   19  C13 UNL     1      26.432   3.129  50.391  1.00  0.00     0.287 C 
BRANCH  19  20
HETATM   20  N4  UNL     1      26.295   4.582  50.022  1.00  0.00     0.043 N 
HETATM   21  C14 UNL     1      26.141   5.949  49.663  1.00  0.00     0.281 A 
HETATM   22  S1  UNL     1      24.755   5.367  49.065  1.00  0.00     0.144 SA
HETATM   23  H10 UNL     1      27.187   4.998  50.338  1.00  0.00     0.305 HD
BRANCH  21  24
HETATM   24  N5  UNL     1      26.789   7.191  49.738  1.00  0.00    -0.361 N 
HETATM   25  H11 UNL     1      26.503   7.728  50.640  1.00  0.00     0.161 HD
BRANCH  24  26
HETATM   26  C15 UNL     1      27.547   7.215  48.524  1.00  0.00     0.152 C 
BRANCH  26  27
HETATM   27  C16 UNL     1      28.836   7.985  48.672  1.00  0.00     0.294 C 
BRANCH  27  28
HETATM   28  N6  UNL     1      30.070   7.374  48.355  1.00  0.00     0.115 N 
HETATM   29  C17 UNL     1      31.153   7.643  49.241  1.00  0.00     0.301 C 
HETATM   30  C18 UNL     1      31.828   6.262  49.402  1.00  0.00     0.200 C 
HETATM   31  O1  UNL     1      30.937   5.351  49.011  1.00  0.00    -0.361 OA
HETATM   32  C19 UNL     1      29.879   5.955  48.368  1.00  0.00     0.440 C 
ENDBRANCH  27  28
ENDBRANCH  26  27
ENDBRANCH  24  26
ENDBRANCH  21  24
ENDBRANCH  19  20
ENDBRANCH   9  19
TORSDOF 7
ENDMDL
MODEL 2
REMARK VINA RESULT:      -8.6      3.241      4.154
REMARK  7 active torsions:
REMARK  status: ('A' for Active; 'I' for Inactive)
REMARK    1  A    between atoms: N1_9  and  C7_10 
REMARK    2  A    between atoms: C12_18  and  C13_19 
REMARK    3  A    between atoms: C13_19  and  N4_20 
REMARK    4  A    between atoms: C14_21  and  N5_23 
REMARK    5  A    between atoms: N5_23  and  C15_24 
REMARK    6  A    between atoms: C15_24  and  C16_25 
REMARK    7  A    between atoms: C16_25  and  N6_26 
ROOT
HETATM    1  C7  UNL     1      24.893   0.460  53.239  1.00  0.00     0.141 A 
HETATM    2  N2  UNL     1      24.370  -0.567  53.830  1.00  0.00    -0.224 NA
HETATM    3  C8  UNL     1      23.003  -0.590  53.911  1.00  0.00     0.236 A 
HETATM    4  N3  UNL     1      22.282   0.466  53.371  1.00  0.00    -0.240 NA
HETATM    5  C9  UNL     1      23.083   1.482  52.779  1.00  0.00     0.082 A 
HETATM    6  C10 UNL     1      22.078   2.307  52.363  1.00  0.00     0.117 C 
HETATM    7 CL2  UNL     1      20.324   2.167  52.524  1.00  0.00    -0.095 Cl
HETATM    8  C11 UNL     1      24.544   1.556  52.654  1.00  0.00     0.037 A 
HETATM    9  C12 UNL     1      24.437   2.594  51.909  1.00  0.00     0.020 C 
ENDROOT
BRANCH   1  10
HETATM   10  N1  UNL     1      26.249   0.520  53.445  1.00  0.00    -0.339 N 
HETATM   11  C2  UNL     1      27.587   0.922  53.385  1.00  0.00     0.093 A 
HETATM   12  C1  UNL     1      28.363   1.876  53.531  1.00  0.00     0.175 A 
HETATM   13  C3  UNL     1      28.722  -0.086  53.100  1.00  0.00     0.029 C 
HETATM   14  C6  UNL     1      28.097   0.941  54.701  1.00  0.00     0.112 A 
HETATM   15  C5  UNL     1      27.208  -0.161  54.226  1.00  0.00     0.144 A 
HETATM   16  F1  UNL     1      29.223   2.839  53.892  1.00  0.00    -0.236 F 
HETATM   17  C4  UNL     1      27.802  -0.968  53.084  1.00  0.00     0.034 C 
HETATM   18 CL1  UNL     1      27.071  -2.452  52.423  1.00  0.00    -0.087 Cl
ENDBRANCH   1  10
BRANCH   9  19
HETATM   19  C13 UNL     1      25.241   3.141  50.760  1.00  0.00     0.287 C 
BRANCH  19  20
HETATM   20  N4  UNL     1      25.045   4.632  50.824  1.00  0.00     0.043 N 
HETATM   21  C14 UNL     1      24.872   6.043  50.861  1.00  0.00     0.281 A 
HETATM   22  S1  UNL     1      25.708   5.920  49.481  1.00  0.00     0.144 SA
HETATM   23  H10 UNL     1      24.554   4.774  51.723  1.00  0.00     0.305 HD
BRANCH  21  24
HETATM   24  N5  UNL     1      24.308   7.068  51.635  1.00  0.00    -0.361 N 
HETATM   25  H11 UNL     1      24.643   7.007  52.669  1.00  0.00     0.161 HD
BRANCH  24  26
HETATM   26  C15 UNL     1      23.479   7.748  50.687  1.00  0.00     0.152 C 
BRANCH  26  27
HETATM   27  C16 UNL     1      22.041   7.297  50.762  1.00  0.00     0.294 C 
BRANCH  27  28
HETATM   28  N6  UNL     1      21.479   6.535  49.714  1.00  0.00     0.115 N 
HETATM   29  C17 UNL     1      22.150   6.597  48.458  1.00  0.00     0.301 C 
HETATM   30  C18 UNL     1      22.143   5.128  47.980  1.00  0.00     0.200 C 
HETATM   31  O1  UNL     1      21.904   4.376  49.054  1.00  0.00    -0.361 OA
HETATM   32  C19 UNL     1      21.490   5.159  50.110  1.00  0.00     0.440 C 
ENDBRANCH  27  28
ENDBRANCH  26  27
ENDBRANCH  24  26
ENDBRANCH  21  24
ENDBRANCH  19  20
ENDBRANCH   9  19
TORSDOF 7
ENDMDL
MODEL 3
REMARK VINA RESULT:      -8.5      2.041      2.729
REMARK  7 active torsions:
REMARK  status: ('A' for Active; 'I' for Inactive)
REMARK    1  A    between atoms: N1_9  and  C7_10 
REMARK    2  A    between atoms: C12_18  and  C13_19 
REMARK    3  A    between atoms: C13_19  and  N4_20 
REMARK    4  A    between atoms: C14_21  and  N5_23 
REMARK    5  A    between atoms: N5_23  and  C15_24 
REMARK    6  A    between atoms: C15_24  and  C16_25 
REMARK    7  A    between atoms: C16_25  and  N6_26 
ROOT
HETATM    1  C7  UNL     1      25.471  -0.259  54.076  1.00  0.00     0.141 A 
HETATM    2  N2  UNL     1      25.294  -1.148  55.002  1.00  0.00    -0.224 NA
HETATM    3  C8  UNL     1      23.997  -1.397  55.365  1.00  0.00     0.236 A 
HETATM    4  N3  UNL     1      22.979  -0.694  54.736  1.00  0.00    -0.240 NA
HETATM    5  C9  UNL     1      23.424   0.235  53.755  1.00  0.00     0.082 A 
HETATM    6  C10 UNL     1      22.205   0.705  53.361  1.00  0.00     0.117 C 
HETATM    7 CL2  UNL     1      20.576   0.298  53.908  1.00  0.00    -0.095 Cl
HETATM    8  C11 UNL     1      24.794   0.537  53.319  1.00  0.00     0.037 A 
HETATM    9  C12 UNL     1      24.339   1.276  52.375  1.00  0.00     0.020 C 
ENDROOT
BRANCH   1  10
HETATM   10  N1  UNL     1      26.790   0.107  53.977  1.00  0.00    -0.339 N 
HETATM   11  C2  UNL     1      27.961   0.779  53.613  1.00  0.00     0.093 A 
HETATM   12  C1  UNL     1      28.514   1.885  53.554  1.00  0.00     0.175 A 
HETATM   13  C3  UNL     1      29.210   0.018  53.117  1.00  0.00     0.029 C 
HETATM   14  C6  UNL     1      28.714   1.011  54.783  1.00  0.00     0.112 A 
HETATM   15  C5  UNL     1      28.019  -0.290  54.550  1.00  0.00     0.144 A 
HETATM   16  F1  UNL     1      29.189   3.035  53.687  1.00  0.00    -0.236 F 
HETATM   17  C4  UNL     1      28.530  -1.039  53.331  1.00  0.00     0.034 C 
HETATM   18 CL1  UNL     1      28.033  -2.693  52.894  1.00  0.00    -0.087 Cl
ENDBRANCH   1  10
BRANCH   9  19
HETATM   19  C13 UNL     1      24.816   1.604  50.985  1.00  0.00     0.287 C 
BRANCH  19  20
HETATM   20  N4  UNL     1      24.047   2.836  50.592  1.00  0.00     0.043 N 
HETATM   21  C14 UNL     1      23.300   3.984  50.210  1.00  0.00     0.281 A 
HETATM   22  S1  UNL     1      22.314   2.834  49.642  1.00  0.00     0.144 SA
HETATM   23  H10 UNL     1      24.662   3.612  50.888  1.00  0.00     0.305 HD
BRANCH  21  24
HETATM   24  N5  UNL     1      23.329   5.387  50.253  1.00  0.00    -0.361 N 
HETATM   25  H11 UNL     1      22.379   5.808  49.929  1.00  0.00     0.161 HD
BRANCH  24  26
HETATM   26  C15 UNL     1      24.665   5.652  50.690  1.00  0.00     0.152 C 
BRANCH  26  27
HETATM   27  C16 UNL     1      25.411   6.549  49.732  1.00  0.00     0.294 C 
BRANCH  27  28
HETATM   28  N6  UNL     1      26.222   5.989  48.720  1.00  0.00     0.115 N 
HETATM   29  C17 UNL     1      27.365   6.748  48.335  1.00  0.00     0.301 C 
HETATM   30  C18 UNL     1      28.473   5.679  48.208  1.00  0.00     0.200 C 
HETATM   31  O1  UNL     1      28.048   4.605  48.874  1.00  0.00    -0.361 OA
HETATM   32  C19 UNL     1      26.713   4.728  49.189  1.00  0.00     0.440 C 
ENDBRANCH  27  28
ENDBRANCH  26  27
ENDBRANCH  24  26
ENDBRANCH  21  24
ENDBRANCH  19  20
ENDBRANCH   9  19
TORSDOF 7
ENDMDL
MODEL 4
REMARK VINA RESULT:      -8.5      1.381      1.682
REMARK  7 active torsions:
REMARK  status: ('A' for Active; 'I' for Inactive)
REMARK    1  A    between atoms: N1_9  and  C7_10 
REMARK    2  A    between atoms: C12_18  and  C13_19 
REMARK    3  A    between atoms: C13_19  and  N4_20 
REMARK    4  A    between atoms: C14_21  and  N5_23 
REMARK    5  A    between atoms: N5_23  and  C15_24 
REMARK    6  A    between atoms: C15_24  and  C16_25 
REMARK    7  A    between atoms: C16_25  and  N6_26 
ROOT
HETATM    1  C7  UNL     1      24.831   0.543  53.166  1.00  0.00     0.141 A 
HETATM    2  N2  UNL     1      24.268  -0.505  53.680  1.00  0.00    -0.224 NA
HETATM    3  C8  UNL     1      22.900  -0.501  53.724  1.00  0.00     0.236 A 
HETATM    4  N3  UNL     1      22.218   0.603  53.229  1.00  0.00    -0.240 NA
HETATM    5  C9  UNL     1      23.057   1.633  52.721  1.00  0.00     0.082 A 
HETATM    6  C10 UNL     1      22.082   2.505  52.330  1.00  0.00     0.117 C 
HETATM    7 CL2  UNL     1      20.322   2.398  52.436  1.00  0.00    -0.095 Cl
HETATM    8  C11 UNL     1      24.523   1.680  52.640  1.00  0.00     0.037 A 
HETATM    9  C12 UNL     1      24.459   2.763  51.956  1.00  0.00     0.020 C 
ENDROOT
BRANCH   1  10
HETATM   10  N1  UNL     1      26.181   0.558  53.410  1.00  0.00    -0.339 N 
HETATM   11  C2  UNL     1      27.532   0.920  53.395  1.00  0.00     0.093 A 
HETATM   12  C1  UNL     1      28.332   1.847  53.580  1.00  0.00     0.175 A 
HETATM   13  C3  UNL     1      28.644  -0.118  53.124  1.00  0.00     0.029 C 
HETATM   14  C6  UNL     1      28.004   0.900  54.724  1.00  0.00     0.112 A 
HETATM   15  C5  UNL     1      27.096  -0.166  54.206  1.00  0.00     0.144 A 
HETATM   16  F1  UNL     1      29.209   2.777  53.982  1.00  0.00    -0.236 F 
HETATM   17  C4  UNL     1      27.699  -0.970  53.066  1.00  0.00     0.034 C 
HETATM   18 CL1  UNL     1      26.942  -2.420  52.358  1.00  0.00    -0.087 Cl
ENDBRANCH   1  10
BRANCH   9  19
HETATM   19  C13 UNL     1      25.306   3.358  50.863  1.00  0.00     0.287 C 
BRANCH  19  20
HETATM   20  N4  UNL     1      24.919   4.812  50.821  1.00  0.00     0.043 N 
HETATM   21  C14 UNL     1      24.534   6.180  50.762  1.00  0.00     0.281 A 
HETATM   22  S1  UNL     1      23.552   5.586  49.623  1.00  0.00     0.144 SA
HETATM   23  H10 UNL     1      25.559   5.254  51.502  1.00  0.00     0.305 HD
BRANCH  21  24
HETATM   24  N5  UNL     1      24.809   7.431  51.335  1.00  0.00    -0.361 N 
HETATM   25  H11 UNL     1      24.617   7.422  52.406  1.00  0.00     0.161 HD
BRANCH  24  26
HETATM   26  C15 UNL     1      25.205   8.207  50.200  1.00  0.00     0.152 C 
BRANCH  26  27
HETATM   27  C16 UNL     1      26.705   8.335  50.092  1.00  0.00     0.294 C 
BRANCH  27  28
HETATM   28  N6  UNL     1      27.343   8.198  48.839  1.00  0.00     0.115 N 
HETATM   29  C17 UNL     1      28.721   8.554  48.790  1.00  0.00     0.301 C 
HETATM   30  C18 UNL     1      29.347   7.430  47.934  1.00  0.00     0.200 C 
HETATM   31  O1  UNL     1      28.480   6.418  47.937  1.00  0.00    -0.361 OA
HETATM   32  C19 UNL     1      27.266   6.822  48.450  1.00  0.00     0.440 C 
ENDBRANCH  27  28
ENDBRANCH  26  27
ENDBRANCH  24  26
ENDBRANCH  21  24
ENDBRANCH  19  20
ENDBRANCH   9  19
TORSDOF 7
ENDMDL
MODEL 5
REMARK VINA RESULT:      -8.1      2.491      3.551
REMARK  7 active torsions:
REMARK  status: ('A' for Active; 'I' for Inactive)
REMARK    1  A    between atoms: N1_9  and  C7_10 
REMARK    2  A    between atoms: C12_18  and  C13_19 
REMARK    3  A    between atoms: C13_19  and  N4_20 
REMARK    4  A    between atoms: C14_21  and  N5_23 
REMARK    5  A    between atoms: N5_23  and  C15_24 
REMARK    6  A    between atoms: C15_24  and  C16_25 
REMARK    7  A    between atoms: C16_25  and  N6_26 
ROOT
HETATM    1  C7  UNL     1      23.331  -0.199  53.167  1.00  0.00     0.141 A 
HETATM    2  N2  UNL     1      23.131  -1.104  54.072  1.00  0.00    -0.224 NA
HETATM    3  C8  UNL     1      21.828  -1.454  54.305  1.00  0.00     0.236 A 
HETATM    4  N3  UNL     1      20.826  -0.830  53.575  1.00  0.00    -0.240 NA
HETATM    5  C9  UNL     1      21.294   0.136  52.641  1.00  0.00     0.082 A 
HETATM    6  C10 UNL     1      20.088   0.512  52.125  1.00  0.00     0.117 C 
HETATM    7 CL2  UNL     1      18.448  -0.022  52.508  1.00  0.00    -0.095 Cl
HETATM    8  C11 UNL     1      22.673   0.546  52.343  1.00  0.00     0.037 A 
HETATM    9  C12 UNL     1      22.259   1.252  51.356  1.00  0.00     0.020 C 
ENDROOT
BRANCH   1  10
HETATM   10  N1  UNL     1      24.621   0.268  53.199  1.00  0.00    -0.339 N 
HETATM   11  C2  UNL     1      25.949   0.483  53.582  1.00  0.00     0.093 A 
HETATM   12  C1  UNL     1      27.024  -0.067  53.852  1.00  0.00     0.175 A 
HETATM   13  C3  UNL     1      26.529   1.908  53.720  1.00  0.00     0.029 C 
HETATM   14  C6  UNL     1      26.756   0.395  52.429  1.00  0.00     0.112 A 
HETATM   15  C5  UNL     1      25.440   1.101  52.405  1.00  0.00     0.144 A 
HETATM   16  F1  UNL     1      28.234  -0.638  53.936  1.00  0.00    -0.236 F 
HETATM   17  C4  UNL     1      25.384   2.307  53.327  1.00  0.00     0.034 C 
HETATM   18 CL1  UNL     1      24.024   3.456  53.388  1.00  0.00    -0.087 Cl
ENDBRANCH   1  10
BRANCH   9  19
HETATM   19  C13 UNL     1      22.846   1.622  50.020  1.00  0.00     0.287 C 
BRANCH  19  20
HETATM   20  N4  UNL     1      22.806   3.126  49.983  1.00  0.00     0.043 N 
HETATM   21  C14 UNL     1      22.762   4.546  49.921  1.00  0.00     0.281 A 
HETATM   22  S1  UNL     1      22.406   4.209  48.379  1.00  0.00     0.144 SA
HETATM   23  H10 UNL     1      23.080   3.400  50.941  1.00  0.00     0.305 HD
BRANCH  21  24
HETATM   24  N5  UNL     1      22.930   5.693  50.712  1.00  0.00    -0.361 N 
HETATM   25  H11 UNL     1      22.361   5.617  51.637  1.00  0.00     0.161 HD
BRANCH  24  26
HETATM   26  C15 UNL     1      23.786   6.502  49.900  1.00  0.00     0.152 C 
BRANCH  26  27
HETATM   27  C16 UNL     1      25.243   6.148  50.080  1.00  0.00     0.294 C 
BRANCH  27  28
HETATM   28  N6  UNL     1      26.026   5.776  48.965  1.00  0.00     0.115 N 
HETATM   29  C17 UNL     1      27.144   6.610  48.672  1.00  0.00     0.301 C 
HETATM   30  C18 UNL     1      28.263   5.598  48.339  1.00  0.00     0.200 C 
HETATM   31  O1  UNL     1      27.878   4.423  48.837  1.00  0.00    -0.361 OA
HETATM   32  C19 UNL     1      26.553   4.466  49.210  1.00  0.00     0.440 C 
ENDBRANCH  27  28
ENDBRANCH  26  27
ENDBRANCH  24  26
ENDBRANCH  21  24
ENDBRANCH  19  20
ENDBRANCH   9  19
TORSDOF 7
ENDMDL
MODEL 6
REMARK VINA RESULT:      -8.0      4.061      5.908
REMARK  7 active torsions:
REMARK  status: ('A' for Active; 'I' for Inactive)
REMARK    1  A    between atoms: N1_9  and  C7_10 
REMARK    2  A    between atoms: C12_18  and  C13_19 
REMARK    3  A    between atoms: C13_19  and  N4_20 
REMARK    4  A    between atoms: C14_21  and  N5_23 
REMARK    5  A    between atoms: N5_23  and  C15_24 
REMARK    6  A    between atoms: C15_24  and  C16_25 
REMARK    7  A    between atoms: C16_25  and  N6_26 
ROOT
HETATM    1  C7  UNL     1      21.771   1.476  50.964  1.00  0.00     0.141 A 
HETATM    2  N2  UNL     1      21.267   0.771  50.001  1.00  0.00    -0.224 NA
HETATM    3  C8  UNL     1      20.742   1.468  48.947  1.00  0.00     0.236 A 
HETATM    4  N3  UNL     1      20.779   2.855  48.977  1.00  0.00    -0.240 NA
HETATM    5  C9  UNL     1      21.378   3.403  50.145  1.00  0.00     0.082 A 
HETATM    6  C10 UNL     1      21.253   4.725  49.829  1.00  0.00     0.117 C 
HETATM    7 CL2  UNL     1      20.551   5.515  48.415  1.00  0.00    -0.095 Cl
HETATM    8  C11 UNL     1      21.963   2.707  51.299  1.00  0.00     0.037 A 
HETATM    9  C12 UNL     1      22.396   3.822  51.761  1.00  0.00     0.020 C 
ENDROOT
BRANCH   1  10
HETATM   10  N1  UNL     1      22.020   0.707  52.073  1.00  0.00    -0.339 N 
HETATM   11  C2  UNL     1      22.553  -0.265  52.925  1.00  0.00     0.093 A 
HETATM   12  C1  UNL     1      23.599  -0.737  53.390  1.00  0.00     0.175 A 
HETATM   13  C3  UNL     1      21.645  -1.184  53.772  1.00  0.00     0.029 C 
HETATM   14  C6  UNL     1      22.866   0.355  54.153  1.00  0.00     0.112 A 
HETATM   15  C5  UNL     1      21.603   0.671  53.422  1.00  0.00     0.144 A 
HETATM   16  F1  UNL     1      24.702  -1.109  54.054  1.00  0.00    -0.236 F 
HETATM   17  C4  UNL     1      20.677  -0.523  53.272  1.00  0.00     0.034 C 
HETATM   18 CL1  UNL     1      19.025  -0.430  52.612  1.00  0.00    -0.087 Cl
ENDBRANCH   1  10
BRANCH   9  19
HETATM   19  C13 UNL     1      23.607   4.219  52.563  1.00  0.00     0.287 C 
BRANCH  19  20
HETATM   20  N4  UNL     1      24.766   3.558  51.867  1.00  0.00     0.043 N 
HETATM   21  C14 UNL     1      25.861   2.952  51.191  1.00  0.00     0.281 A 
HETATM   22  S1  UNL     1      25.557   4.162  50.160  1.00  0.00     0.144 SA
HETATM   23  H10 UNL     1      24.971   2.738  52.463  1.00  0.00     0.305 HD
BRANCH  21  24
HETATM   24  N5  UNL     1      26.764   1.883  51.286  1.00  0.00    -0.361 N 
HETATM   25  H11 UNL     1      26.662   1.207  50.439  1.00  0.00     0.161 HD
BRANCH  24  26
HETATM   26  C15 UNL     1      27.425   2.150  52.527  1.00  0.00     0.152 C 
BRANCH  26  27
HETATM   27  C16 UNL     1      26.972   1.218  53.625  1.00  0.00     0.294 C 
BRANCH  27  28
HETATM   28  N6  UNL     1      27.835   0.205  54.098  1.00  0.00     0.115 N 
HETATM   29  C17 UNL     1      27.933  -0.968  53.295  1.00  0.00     0.301 C 
HETATM   30  C18 UNL     1      29.446  -1.278  53.304  1.00  0.00     0.200 C 
HETATM   31  O1  UNL     1      30.065  -0.160  53.684  1.00  0.00    -0.361 OA
HETATM   32  C19 UNL     1      29.157   0.750  54.180  1.00  0.00     0.440 C 
ENDBRANCH  27  28
ENDBRANCH  26  27
ENDBRANCH  24  26
ENDBRANCH  21  24
ENDBRANCH  19  20
ENDBRANCH   9  19
TORSDOF 7
ENDMDL
MODEL 7
REMARK VINA RESULT:      -7.9      4.904      6.789
REMARK  7 active torsions:
REMARK  status: ('A' for Active; 'I' for Inactive)
REMARK    1  A    between atoms: N1_9  and  C7_10 
REMARK    2  A    between atoms: C12_18  and  C13_19 
REMARK    3  A    between atoms: C13_19  and  N4_20 
REMARK    4  A    between atoms: C14_21  and  N5_23 
REMARK    5  A    between atoms: N5_23  and  C15_24 
REMARK    6  A    between atoms: C15_24  and  C16_25 
REMARK    7  A    between atoms: C16_25  and  N6_26 
ROOT
HETATM    1  C7  UNL     1      23.092  -0.160  53.203  1.00  0.00     0.141 A 
HETATM    2  N2  UNL     1      23.360  -0.849  54.266  1.00  0.00    -0.224 NA
HETATM    3  C8  UNL     1      22.299  -1.458  54.880  1.00  0.00     0.236 A 
HETATM    4  N3  UNL     1      21.031  -1.299  54.338  1.00  0.00    -0.240 NA
HETATM    5  C9  UNL     1      20.988  -0.490  53.169  1.00  0.00     0.082 A 
HETATM    6  C10 UNL     1      19.647  -0.567  52.925  1.00  0.00     0.117 C 
HETATM    7 CL2  UNL     1      18.358  -1.400  53.799  1.00  0.00    -0.095 Cl
HETATM    8  C11 UNL     1      22.090   0.179  52.464  1.00  0.00     0.037 A 
HETATM    9  C12 UNL     1      21.294   0.505  51.512  1.00  0.00     0.020 C 
ENDROOT
BRANCH   1  10
HETATM   10  N1  UNL     1      24.159   0.617  52.825  1.00  0.00    -0.339 N 
HETATM   11  C2  UNL     1      24.974   1.503  52.113  1.00  0.00     0.093 A 
HETATM   12  C1  UNL     1      25.042   2.635  51.616  1.00  0.00     0.175 A 
HETATM   13  C3  UNL     1      26.435   1.150  51.757  1.00  0.00     0.029 C 
HETATM   14  C6  UNL     1      25.543   2.408  53.034  1.00  0.00     0.112 A 
HETATM   15  C5  UNL     1      25.429   0.952  53.344  1.00  0.00     0.144 A 
HETATM   16  F1  UNL     1      25.200   3.919  51.266  1.00  0.00    -0.236 F 
HETATM   17  C4  UNL     1      26.226   0.069  52.399  1.00  0.00     0.034 C 
HETATM   18 CL1  UNL     1      26.440  -1.687  52.613  1.00  0.00    -0.087 Cl
ENDBRANCH   1  10
BRANCH   9  19
HETATM   19  C13 UNL     1      21.463   0.692  50.029  1.00  0.00     0.287 C 
BRANCH  19  20
HETATM   20  N4  UNL     1      21.794   2.150  49.857  1.00  0.00     0.043 N 
HETATM   21  C14 UNL     1      22.117   3.522  49.670  1.00  0.00     0.281 A 
HETATM   22  S1  UNL     1      22.719   2.925  48.292  1.00  0.00     0.144 SA
HETATM   23  H10 UNL     1      21.473   2.578  50.741  1.00  0.00     0.305 HD
BRANCH  21  24
HETATM   24  N5  UNL     1      22.015   4.777  50.291  1.00  0.00    -0.361 N 
HETATM   25  H11 UNL     1      22.868   5.406  50.044  1.00  0.00     0.161 HD
BRANCH  24  26
HETATM   26  C15 UNL     1      20.796   4.653  51.031  1.00  0.00     0.152 C 
BRANCH  26  27
HETATM   27  C16 UNL     1      19.587   5.016  50.204  1.00  0.00     0.294 C 
BRANCH  27  28
HETATM   28  N6  UNL     1      18.468   4.157  50.165  1.00  0.00     0.115 N 
HETATM   29  C17 UNL     1      18.413   3.239  49.077  1.00  0.00     0.301 C 
HETATM   30  C18 UNL     1      17.948   1.925  49.744  1.00  0.00     0.200 C 
HETATM   31  O1  UNL     1      18.176   2.057  51.051  1.00  0.00    -0.361 OA
HETATM   32  C19 UNL     1      18.473   3.367  51.360  1.00  0.00     0.440 C 
ENDBRANCH  27  28
ENDBRANCH  26  27
ENDBRANCH  24  26
ENDBRANCH  21  24
ENDBRANCH  19  20
ENDBRANCH   9  19
TORSDOF 7
ENDMDL
MODEL 8
REMARK VINA RESULT:      -7.8      3.205      4.636
REMARK  7 active torsions:
REMARK  status: ('A' for Active; 'I' for Inactive)
REMARK    1  A    between atoms: N1_9  and  C7_10 
REMARK    2  A    between atoms: C12_18  and  C13_19 
REMARK    3  A    between atoms: C13_19  and  N4_20 
REMARK    4  A    between atoms: C14_21  and  N5_23 
REMARK    5  A    between atoms: N5_23  and  C15_24 
REMARK    6  A    between atoms: C15_24  and  C16_25 
REMARK    7  A    between atoms: C16_25  and  N6_26 
ROOT
HETATM    1  C7  UNL     1      24.433   1.041  52.555  1.00  0.00     0.141 A 
HETATM    2  N2  UNL     1      25.484   0.289  52.649  1.00  0.00    -0.224 NA
HETATM    3  C8  UNL     1      26.580   0.685  51.932  1.00  0.00     0.236 A 
HETATM    4  N3  UNL     1      26.497   1.839  51.164  1.00  0.00    -0.240 NA
HETATM    5  C9  UNL     1      25.234   2.491  51.217  1.00  0.00     0.082 A 
HETATM    6  C10 UNL     1      25.519   3.540  50.392  1.00  0.00     0.117 C 
HETATM    7 CL2  UNL     1      26.995   3.954  49.514  1.00  0.00    -0.095 Cl
HETATM    8  C11 UNL     1      24.030   2.120  51.973  1.00  0.00     0.037 A 
HETATM    9  C12 UNL     1      23.470   3.224  51.639  1.00  0.00     0.020 C 
ENDROOT
BRANCH   1  10
HETATM   10  N1  UNL     1      23.326   0.425  53.084  1.00  0.00    -0.339 N 
HETATM   11  C2  UNL     1      22.068   0.212  53.658  1.00  0.00     0.093 A 
HETATM   12  C1  UNL     1      20.858   0.448  53.553  1.00  0.00     0.175 A 
HETATM   13  C3  UNL     1      21.885  -0.708  54.886  1.00  0.00     0.029 C 
HETATM   14  C6  UNL     1      21.430  -0.821  52.939  1.00  0.00     0.112 A 
HETATM   15  C5  UNL     1      22.880  -0.899  53.291  1.00  0.00     0.144 A 
HETATM   16  F1  UNL     1      19.538   0.518  53.329  1.00  0.00    -0.236 F 
HETATM   17  C4  UNL     1      23.137  -0.923  54.788  1.00  0.00     0.034 C 
HETATM   18 CL1  UNL     1      24.738  -1.194  55.522  1.00  0.00    -0.087 Cl
ENDBRANCH   1  10
BRANCH   9  19
HETATM   19  C13 UNL     1      22.483   4.138  52.313  1.00  0.00     0.287 C 
BRANCH  19  20
HETATM   20  N4  UNL     1      22.826   5.515  51.814  1.00  0.00     0.043 N 
HETATM   21  C14 UNL     1      23.126   6.819  51.332  1.00  0.00     0.281 A 
HETATM   22  S1  UNL     1      21.631   6.660  50.734  1.00  0.00     0.144 SA
HETATM   23  H10 UNL     1      23.802   5.651  52.127  1.00  0.00     0.305 HD
BRANCH  21  24
HETATM   24  N5  UNL     1      24.141   7.788  51.323  1.00  0.00    -0.361 N 
HETATM   25  H11 UNL     1      24.294   8.204  52.317  1.00  0.00     0.161 HD
BRANCH  24  26
HETATM   26  C15 UNL     1      24.518   7.824  49.943  1.00  0.00     0.152 C 
BRANCH  26  27
HETATM   27  C16 UNL     1      25.995   7.580  49.749  1.00  0.00     0.294 C 
BRANCH  27  28
HETATM   28  N6  UNL     1      26.754   8.434  48.919  1.00  0.00     0.115 N 
HETATM   29  C17 UNL     1      26.841   9.796  49.328  1.00  0.00     0.301 C 
HETATM   30  C18 UNL     1      28.327  10.144  49.087  1.00  0.00     0.200 C 
HETATM   31  O1  UNL     1      28.982   8.986  48.998  1.00  0.00    -0.361 OA
HETATM   32  C19 UNL     1      28.097   7.937  48.880  1.00  0.00     0.440 C 
ENDBRANCH  27  28
ENDBRANCH  26  27
ENDBRANCH  24  26
ENDBRANCH  21  24
ENDBRANCH  19  20
ENDBRANCH   9  19
TORSDOF 7
ENDMDL
MODEL 9
REMARK VINA RESULT:      -7.7      3.199      4.491
REMARK  7 active torsions:
REMARK  status: ('A' for Active; 'I' for Inactive)
REMARK    1  A    between atoms: N1_9  and  C7_10 
REMARK    2  A    between atoms: C12_18  and  C13_19 
REMARK    3  A    between atoms: C13_19  and  N4_20 
REMARK    4  A    between atoms: C14_21  and  N5_23 
REMARK    5  A    between atoms: N5_23  and  C15_24 
REMARK    6  A    between atoms: C15_24  and  C16_25 
REMARK    7  A    between atoms: C16_25  and  N6_26 
ROOT
HETATM    1  C7  UNL     1      22.917  -0.106  53.095  1.00  0.00     0.141 A 
HETATM    2  N2  UNL     1      23.185  -0.860  54.114  1.00  0.00    -0.224 NA
HETATM    3  C8  UNL     1      22.125  -1.512  54.685  1.00  0.00     0.236 A 
HETATM    4  N3  UNL     1      20.858  -1.325  54.149  1.00  0.00    -0.240 NA
HETATM    5  C9  UNL     1      20.815  -0.445  53.032  1.00  0.00     0.082 A 
HETATM    6  C10 UNL     1      19.476  -0.513  52.779  1.00  0.00     0.117 C 
HETATM    7 CL2  UNL     1      18.188  -1.406  53.593  1.00  0.00    -0.095 Cl
HETATM    8  C11 UNL     1      21.916   0.272  52.375  1.00  0.00     0.037 A 
HETATM    9  C12 UNL     1      21.121   0.654  51.443  1.00  0.00     0.020 C 
ENDROOT
BRANCH   1  10
HETATM   10  N1  UNL     1      23.981   0.698  52.771  1.00  0.00    -0.339 N 
HETATM   11  C2  UNL     1      24.808   1.604  52.100  1.00  0.00     0.093 A 
HETATM   12  C1  UNL     1      24.872   2.734  51.600  1.00  0.00     0.175 A 
HETATM   13  C3  UNL     1      26.296   1.289  51.825  1.00  0.00     0.029 C 
HETATM   14  C6  UNL     1      25.302   2.527  53.044  1.00  0.00     0.112 A 
HETATM   15  C5  UNL     1      25.212   1.070  53.356  1.00  0.00     0.144 A 
HETATM   16  F1  UNL     1      25.014   4.021  51.253  1.00  0.00    -0.236 F 
HETATM   17  C4  UNL     1      26.083   0.206  52.460  1.00  0.00     0.034 C 
HETATM   18 CL1  UNL     1      26.332  -1.543  52.695  1.00  0.00    -0.087 Cl
ENDBRANCH   1  10
BRANCH   9  19
HETATM   19  C13 UNL     1      21.295   0.935  49.975  1.00  0.00     0.287 C 
BRANCH  19  20
HETATM   20  N4  UNL     1      21.603   2.406  49.895  1.00  0.00     0.043 N 
HETATM   21  C14 UNL     1      21.905   3.792  49.795  1.00  0.00     0.281 A 
HETATM   22  S1  UNL     1      22.507   3.293  48.379  1.00  0.00     0.144 SA
HETATM   23  H10 UNL     1      21.282   2.771  50.807  1.00  0.00     0.305 HD
BRANCH  21  24
HETATM   24  N5  UNL     1      21.789   5.002  50.495  1.00  0.00    -0.361 N 
HETATM   25  H11 UNL     1      21.424   4.835  51.507  1.00  0.00     0.161 HD
BRANCH  24  26
HETATM   26  C15 UNL     1      22.187   5.964  49.513  1.00  0.00     0.152 C 
BRANCH  26  27
HETATM   27  C16 UNL     1      22.995   7.089  50.113  1.00  0.00     0.294 C 
BRANCH  27  28
HETATM   28  N6  UNL     1      24.230   7.463  49.538  1.00  0.00     0.115 N 
HETATM   29  C17 UNL     1      25.385   7.289  50.354  1.00  0.00     0.301 C 
HETATM   30  C18 UNL     1      26.424   6.698  49.374  1.00  0.00     0.200 C 
HETATM   31  O1  UNL     1      25.742   6.224  48.331  1.00  0.00    -0.361 OA
HETATM   32  C19 UNL     1      24.436   6.661  48.369  1.00  0.00     0.440 C 
ENDBRANCH  27  28
ENDBRANCH  26  27
ENDBRANCH  24  26
ENDBRANCH  21  24
ENDBRANCH  19  20
ENDBRANCH   9  19
TORSDOF 7
ENDMDL
