MODEL 1
REMARK VINA RESULT:      -7.5      0.000      0.000
REMARK  4 active torsions:
REMARK  status: ('A' for Active; 'I' for Inactive)
REMARK    1  A    between atoms: C2_2  and  C3_3 
REMARK    2  A    between atoms: C3_3  and  C4_4 
REMARK    3  A    between atoms: C5_5  and  C6_6 
REMARK    4  A    between atoms: C6_6  and  O1_7 
ROOT
HETATM    1  C1  UNL     1      27.339   2.477  53.513  1.00  0.00     0.042 C 
HETATM    2  C2  UNL     1      26.396   1.386  53.063  1.00  0.00     0.063 C 
HETATM    3  C7  UNL     1      25.014   2.052  53.073  1.00  0.00     0.152 C 
HETATM    4  N1  UNL     1      23.961   1.196  52.645  1.00  0.00    -0.391 N 
HETATM    5  C8  UNL     1      22.976   2.105  52.041  1.00  0.00     0.005 C 
HETATM    6  C9  UNL     1      22.313   1.199  51.268  1.00  0.00     0.024 C 
HETATM    7  C10 UNL     1      21.829   1.395  49.850  1.00  0.00     0.002 C 
HETATM    8  C11 UNL     1      22.326   2.227  48.868  1.00  0.00     0.002 C 
HETATM    9  C12 UNL     1      23.509   3.150  48.953  1.00  0.00     0.025 C 
HETATM   10  C13 UNL     1      24.086   3.794  50.006  1.00  0.00     0.010 C 
HETATM   11  C14 UNL     1      23.511   4.427  51.217  1.00  0.00     0.063 C 
HETATM   12  C15 UNL     1      22.854   3.571  52.225  1.00  0.00     0.062 C 
HETATM   13  N2  UNL     1      25.501   3.691  49.602  1.00  0.00    -0.353 N 
HETATM   14  C16 UNL     1      26.539   3.194  50.504  1.00  0.00     0.229 C 
HETATM   15  N3  UNL     1      26.209   2.035  50.864  1.00  0.00    -0.174 NA
HETATM   16  N4  UNL     1      26.734   1.078  51.668  1.00  0.00    -0.301 N 
HETATM   17  H13 UNL     1      23.741   0.190  52.656  1.00  0.00     0.159 HD
HETATM   18  H22 UNL     1      25.518   4.041  48.597  1.00  0.00     0.166 HD
HETATM   19  H24 UNL     1      27.287   0.265  51.306  1.00  0.00     0.183 HD
ENDROOT
BRANCH   2  20
HETATM   20  C3  UNL     1      26.427   0.250  53.979  1.00  0.00     0.060 C 
BRANCH  20  21
HETATM   21  C4  UNL     1      27.155  -0.884  53.346  1.00  0.00    -0.026 C 
HETATM   22  C5  UNL     1      28.422  -1.223  53.655  1.00  0.00    -0.005 C 
BRANCH  22  23
HETATM   23  C6  UNL     1      29.367  -2.280  53.190  1.00  0.00     0.191 C 
BRANCH  23  24
HETATM   24  O1  UNL     1      28.754  -3.508  53.420  1.00  0.00    -0.397 OA
HETATM   25  H10 UNL     1      27.849  -3.365  53.838  1.00  0.00     0.209 HD
ENDBRANCH  23  24
ENDBRANCH  22  23
ENDBRANCH  20  21
ENDBRANCH   2  20
TORSDOF 4
ENDMDL
MODEL 2
REMARK VINA RESULT:      -7.2      2.402      3.854
REMARK  4 active torsions:
REMARK  status: ('A' for Active; 'I' for Inactive)
REMARK    1  A    between atoms: C2_2  and  C3_3 
REMARK    2  A    between atoms: C3_3  and  C4_4 
REMARK    3  A    between atoms: C5_5  and  C6_6 
REMARK    4  A    between atoms: C6_6  and  O1_7 
ROOT
HETATM    1  C1  UNL     1      23.081   1.503  53.059  1.00  0.00     0.042 C 
HETATM    2  C2  UNL     1      24.472   1.939  52.662  1.00  0.00     0.063 C 
HETATM    3  C7  UNL     1      24.350   2.282  51.172  1.00  0.00     0.152 C 
HETATM    4  N1  UNL     1      25.559   2.753  50.590  1.00  0.00    -0.391 N 
HETATM    5  C8  UNL     1      25.120   3.659  49.518  1.00  0.00     0.005 C 
HETATM    6  C9  UNL     1      26.265   4.387  49.387  1.00  0.00     0.024 C 
HETATM    7  C10 UNL     1      26.374   5.881  49.195  1.00  0.00     0.002 C 
HETATM    8  C11 UNL     1      25.505   6.876  49.591  1.00  0.00     0.002 C 
HETATM    9  C12 UNL     1      24.214   6.725  50.346  1.00  0.00     0.025 C 
HETATM   10  C13 UNL     1      23.320   5.700  50.424  1.00  0.00     0.010 C 
HETATM   11  C14 UNL     1      22.838   4.726  49.415  1.00  0.00     0.063 C 
HETATM   12  C15 UNL     1      23.786   3.731  48.875  1.00  0.00     0.062 C 
HETATM   13  N2  UNL     1      22.941   5.821  51.844  1.00  0.00    -0.353 N 
HETATM   14  C16 UNL     1      22.953   4.681  52.760  1.00  0.00     0.229 C 
HETATM   15  N3  UNL     1      24.119   4.210  52.765  1.00  0.00    -0.174 NA
HETATM   16  N4  UNL     1      24.753   3.184  53.386  1.00  0.00    -0.301 N 
HETATM   17  H13 UNL     1      26.573   2.624  50.722  1.00  0.00     0.159 HD
HETATM   18  H22 UNL     1      22.693   6.850  51.967  1.00  0.00     0.166 HD
HETATM   19  H24 UNL     1      25.339   3.310  54.245  1.00  0.00     0.183 HD
ENDROOT
BRANCH   2  20
HETATM   20  C3  UNL     1      25.440   0.865  52.866  1.00  0.00     0.060 C 
BRANCH  20  21
HETATM   21  C4  UNL     1      26.570   1.362  53.698  1.00  0.00    -0.026 C 
HETATM   22  C5  UNL     1      27.816   0.850  53.647  1.00  0.00    -0.005 C 
BRANCH  22  23
HETATM   23  C6  UNL     1      29.099   1.145  54.347  1.00  0.00     0.191 C 
BRANCH  23  24
HETATM   24  O1  UNL     1      29.304   2.519  54.266  1.00  0.00    -0.397 OA
HETATM   25  H10 UNL     1      30.142   2.770  54.765  1.00  0.00     0.209 HD
ENDBRANCH  23  24
ENDBRANCH  22  23
ENDBRANCH  20  21
ENDBRANCH   2  20
TORSDOF 4
ENDMDL
MODEL 3
REMARK VINA RESULT:      -6.9      3.559      5.369
REMARK  4 active torsions:
REMARK  status: ('A' for Active; 'I' for Inactive)
REMARK    1  A    between atoms: C2_2  and  C3_3 
REMARK    2  A    between atoms: C3_3  and  C4_4 
REMARK    3  A    between atoms: C5_5  and  C6_6 
REMARK    4  A    between atoms: C6_6  and  O1_7 
ROOT
HETATM    1  C1  UNL     1      26.382   2.844  50.121  1.00  0.00     0.042 C 
HETATM    2  C2  UNL     1      25.352   3.940  49.970  1.00  0.00     0.063 C 
HETATM    3  C7  UNL     1      24.127   3.229  49.381  1.00  0.00     0.152 C 
HETATM    4  N1  UNL     1      23.008   4.084  49.183  1.00  0.00    -0.391 N 
HETATM    5  C8  UNL     1      21.843   3.202  49.342  1.00  0.00     0.005 C 
HETATM    6  C9  UNL     1      20.907   4.152  49.624  1.00  0.00     0.024 C 
HETATM    7  C10 UNL     1      19.814   4.071  50.664  1.00  0.00     0.002 C 
HETATM    8  C11 UNL     1      19.782   3.351  51.840  1.00  0.00     0.002 C 
HETATM    9  C12 UNL     1      20.856   2.466  52.407  1.00  0.00     0.025 C 
HETATM   10  C13 UNL     1      21.850   1.747  51.815  1.00  0.00     0.010 C 
HETATM   11  C14 UNL     1      21.900   0.985  50.543  1.00  0.00     0.063 C 
HETATM   12  C15 UNL     1      21.802   1.721  49.267  1.00  0.00     0.062 C 
HETATM   13  N2  UNL     1      22.913   1.936  52.819  1.00  0.00    -0.353 N 
HETATM   14  C16 UNL     1      24.259   2.382  52.463  1.00  0.00     0.229 C 
HETATM   15  N3  UNL     1      24.150   3.491  51.879  1.00  0.00    -0.174 NA
HETATM   16  N4  UNL     1      25.003   4.387  51.323  1.00  0.00    -0.301 N 
HETATM   17  H13 UNL     1      22.832   5.077  48.972  1.00  0.00     0.159 HD
HETATM   18  H22 UNL     1      22.453   1.680  53.745  1.00  0.00     0.166 HD
HETATM   19  H24 UNL     1      25.332   5.248  51.821  1.00  0.00     0.183 HD
ENDROOT
BRANCH   2  20
HETATM   20  C3  UNL     1      25.824   4.986  49.068  1.00  0.00     0.060 C 
BRANCH  20  21
HETATM   21  C4  UNL     1      27.306   4.914  48.950  1.00  0.00    -0.026 C 
HETATM   22  C5  UNL     1      28.054   5.859  48.345  1.00  0.00    -0.005 C 
BRANCH  22  23
HETATM   23  C6  UNL     1      29.513   6.036  48.090  1.00  0.00     0.191 C 
BRANCH  23  24
HETATM   24  O1  UNL     1      30.186   5.561  49.212  1.00  0.00    -0.397 OA
HETATM   25  H10 UNL     1      30.578   6.332  49.728  1.00  0.00     0.209 HD
ENDBRANCH  23  24
ENDBRANCH  22  23
ENDBRANCH  20  21
ENDBRANCH   2  20
TORSDOF 4
ENDMDL
MODEL 4
REMARK VINA RESULT:      -6.7      5.255      7.887
REMARK  4 active torsions:
REMARK  status: ('A' for Active; 'I' for Inactive)
REMARK    1  A    between atoms: C2_2  and  C3_3 
REMARK    2  A    between atoms: C3_3  and  C4_4 
REMARK    3  A    between atoms: C5_5  and  C6_6 
REMARK    4  A    between atoms: C6_6  and  O1_7 
ROOT
HETATM    1  C1  UNL     1      24.624   7.595  48.510  1.00  0.00     0.042 C 
HETATM    2  C2  UNL     1      25.706   6.633  48.942  1.00  0.00     0.063 C 
HETATM    3  C7  UNL     1      26.831   6.845  47.920  1.00  0.00     0.152 C 
HETATM    4  N1  UNL     1      27.983   6.046  48.160  1.00  0.00    -0.391 N 
HETATM    5  C8  UNL     1      29.097   6.847  47.633  1.00  0.00     0.005 C 
HETATM    6  C9  UNL     1      30.113   6.263  48.330  1.00  0.00     0.024 C 
HETATM    7  C10 UNL     1      31.280   6.959  48.990  1.00  0.00     0.002 C 
HETATM    8  C11 UNL     1      31.362   8.244  49.484  1.00  0.00     0.002 C 
HETATM    9  C12 UNL     1      30.283   9.290  49.512  1.00  0.00     0.025 C 
HETATM   10  C13 UNL     1      29.199   9.502  48.714  1.00  0.00     0.010 C 
HETATM   11  C14 UNL     1      28.995   9.338  47.255  1.00  0.00     0.063 C 
HETATM   12  C15 UNL     1      29.036   7.979  46.677  1.00  0.00     0.062 C 
HETATM   13  N2  UNL     1      28.237   9.958  49.734  1.00  0.00    -0.353 N 
HETATM   14  C16 UNL     1      26.898   9.384  49.862  1.00  0.00     0.229 C 
HETATM   15  N3  UNL     1      27.030   8.149  50.057  1.00  0.00    -0.174 NA
HETATM   16  N4  UNL     1      26.194   7.098  50.246  1.00  0.00    -0.301 N 
HETATM   17  H13 UNL     1      28.205   5.128  48.572  1.00  0.00     0.159 HD
HETATM   18  H22 UNL     1      28.754  10.723  50.266  1.00  0.00     0.166 HD
HETATM   19  H24 UNL     1      25.963   6.713  51.192  1.00  0.00     0.183 HD
ENDROOT
BRANCH   2  20
HETATM   20  C3  UNL     1      25.231   5.253  48.908  1.00  0.00     0.060 C 
BRANCH  20  21
HETATM   21  C4  UNL     1      25.526   4.591  50.207  1.00  0.00    -0.026 C 
HETATM   22  C5  UNL     1      26.069   3.361  50.312  1.00  0.00    -0.005 C 
BRANCH  22  23
HETATM   23  C6  UNL     1      26.459   2.482  51.452  1.00  0.00     0.191 C 
BRANCH  23  24
HETATM   24  O1  UNL     1      27.721   2.890  51.873  1.00  0.00    -0.397 OA
HETATM   25  H10 UNL     1      27.846   2.666  52.847  1.00  0.00     0.209 HD
ENDBRANCH  23  24
ENDBRANCH  22  23
ENDBRANCH  20  21
ENDBRANCH   2  20
TORSDOF 4
ENDMDL
MODEL 5
REMARK VINA RESULT:      -6.7      2.593      4.118
REMARK  4 active torsions:
REMARK  status: ('A' for Active; 'I' for Inactive)
REMARK    1  A    between atoms: C2_2  and  C3_3 
REMARK    2  A    between atoms: C3_3  and  C4_4 
REMARK    3  A    between atoms: C5_5  and  C6_6 
REMARK    4  A    between atoms: C6_6  and  O1_7 
ROOT
HETATM    1  C1  UNL     1      22.712   1.487  52.817  1.00  0.00     0.042 C 
HETATM    2  C2  UNL     1      24.137   1.860  52.476  1.00  0.00     0.063 C 
HETATM    3  C7  UNL     1      24.074   2.290  51.005  1.00  0.00     0.152 C 
HETATM    4  N1  UNL     1      25.323   2.718  50.478  1.00  0.00    -0.391 N 
HETATM    5  C8  UNL     1      24.965   3.705  49.449  1.00  0.00     0.005 C 
HETATM    6  C9  UNL     1      26.154   4.370  49.384  1.00  0.00     0.024 C 
HETATM    7  C10 UNL     1      26.355   5.864  49.278  1.00  0.00     0.002 C 
HETATM    8  C11 UNL     1      25.534   6.886  49.708  1.00  0.00     0.002 C 
HETATM    9  C12 UNL     1      24.218   6.771  50.423  1.00  0.00     0.025 C 
HETATM   10  C13 UNL     1      23.264   5.798  50.424  1.00  0.00     0.010 C 
HETATM   11  C14 UNL     1      22.752   4.910  49.352  1.00  0.00     0.063 C 
HETATM   12  C15 UNL     1      23.655   3.892  48.780  1.00  0.00     0.062 C 
HETATM   13  N2  UNL     1      22.855   5.865  51.839  1.00  0.00    -0.353 N 
HETATM   14  C16 UNL     1      22.777   4.679  52.691  1.00  0.00     0.229 C 
HETATM   15  N3  UNL     1      23.913   4.139  52.697  1.00  0.00    -0.174 NA
HETATM   16  N4  UNL     1      24.469   3.046  53.274  1.00  0.00    -0.301 N 
HETATM   17  H13 UNL     1      26.324   2.522  50.627  1.00  0.00     0.159 HD
HETATM   18  H22 UNL     1      22.663   6.899  52.013  1.00  0.00     0.166 HD
HETATM   19  H24 UNL     1      25.040   3.090  54.152  1.00  0.00     0.183 HD
ENDROOT
BRANCH   2  20
HETATM   20  C3  UNL     1      25.034   0.722  52.643  1.00  0.00     0.060 C 
BRANCH  20  21
HETATM   21  C4  UNL     1      24.412  -0.276  53.557  1.00  0.00    -0.026 C 
HETATM   22  C5  UNL     1      24.913  -0.593  54.767  1.00  0.00    -0.005 C 
BRANCH  22  23
HETATM   23  C6  UNL     1      24.507  -1.529  55.857  1.00  0.00     0.191 C 
BRANCH  23  24
HETATM   24  O1  UNL     1      23.118  -1.598  55.842  1.00  0.00    -0.397 OA
HETATM   25  H10 UNL     1      22.803  -1.960  54.956  1.00  0.00     0.209 HD
ENDBRANCH  23  24
ENDBRANCH  22  23
ENDBRANCH  20  21
ENDBRANCH   2  20
TORSDOF 4
ENDMDL
MODEL 6
REMARK VINA RESULT:      -6.6      7.355     10.187
REMARK  4 active torsions:
REMARK  status: ('A' for Active; 'I' for Inactive)
REMARK    1  A    between atoms: C2_2  and  C3_3 
REMARK    2  A    between atoms: C3_3  and  C4_4 
REMARK    3  A    between atoms: C5_5  and  C6_6 
REMARK    4  A    between atoms: C6_6  and  O1_7 
ROOT
HETATM    1  C1  UNL     1      29.199   7.729  47.534  1.00  0.00     0.042 C 
HETATM    2  C2  UNL     1      29.693   6.417  48.100  1.00  0.00     0.063 C 
HETATM    3  C7  UNL     1      30.727   5.929  47.077  1.00  0.00     0.152 C 
HETATM    4  N1  UNL     1      31.352   4.702  47.432  1.00  0.00    -0.391 N 
HETATM    5  C8  UNL     1      32.689   4.785  46.827  1.00  0.00     0.005 C 
HETATM    6  C9  UNL     1      33.322   3.863  47.607  1.00  0.00     0.024 C 
HETATM    7  C10 UNL     1      34.710   3.968  48.194  1.00  0.00     0.002 C 
HETATM    8  C11 UNL     1      35.433   5.095  48.526  1.00  0.00     0.002 C 
HETATM    9  C12 UNL     1      35.006   6.531  48.406  1.00  0.00     0.025 C 
HETATM   10  C13 UNL     1      34.127   7.153  47.572  1.00  0.00     0.010 C 
HETATM   11  C14 UNL     1      33.800   6.943  46.141  1.00  0.00     0.063 C 
HETATM   12  C15 UNL     1      33.144   5.683  45.738  1.00  0.00     0.062 C 
HETATM   13  N2  UNL     1      33.561   8.137  48.512  1.00  0.00    -0.353 N 
HETATM   14  C16 UNL     1      32.120   8.314  48.690  1.00  0.00     0.229 C 
HETATM   15  N3  UNL     1      31.640   7.205  49.038  1.00  0.00    -0.174 NA
HETATM   16  N4  UNL     1      30.407   6.730  49.343  1.00  0.00    -0.301 N 
HETATM   17  H13 UNL     1      31.116   3.848  47.959  1.00  0.00     0.159 HD
HETATM   18  H22 UNL     1      34.410   8.606  48.952  1.00  0.00     0.166 HD
HETATM   19  H24 UNL     1      30.063   6.620  50.326  1.00  0.00     0.183 HD
ENDROOT
BRANCH   2  20
HETATM   20  C3  UNL     1      28.603   5.455  48.230  1.00  0.00     0.060 C 
BRANCH  20  21
HETATM   21  C4  UNL     1      27.333   6.175  48.522  1.00  0.00    -0.026 C 
HETATM   22  C5  UNL     1      26.405   5.728  49.391  1.00  0.00    -0.005 C 
BRANCH  22  23
HETATM   23  C6  UNL     1      25.081   6.232  49.861  1.00  0.00     0.191 C 
BRANCH  23  24
HETATM   24  O1  UNL     1      25.315   7.006  50.993  1.00  0.00    -0.397 OA
HETATM   25  H10 UNL     1      26.259   7.357  50.978  1.00  0.00     0.209 HD
ENDBRANCH  23  24
ENDBRANCH  22  23
ENDBRANCH  20  21
ENDBRANCH   2  20
TORSDOF 4
ENDMDL
MODEL 7
REMARK VINA RESULT:      -6.4      5.382      8.112
REMARK  4 active torsions:
REMARK  status: ('A' for Active; 'I' for Inactive)
REMARK    1  A    between atoms: C2_2  and  C3_3 
REMARK    2  A    between atoms: C3_3  and  C4_4 
REMARK    3  A    between atoms: C5_5  and  C6_6 
REMARK    4  A    between atoms: C6_6  and  O1_7 
ROOT
HETATM    1  C1  UNL     1      24.787   6.661  48.561  1.00  0.00     0.042 C 
HETATM    2  C2  UNL     1      26.029   6.166  49.265  1.00  0.00     0.063 C 
HETATM    3  C7  UNL     1      27.151   6.367  48.239  1.00  0.00     0.152 C 
HETATM    4  N1  UNL     1      28.437   5.988  48.712  1.00  0.00    -0.391 N 
HETATM    5  C8  UNL     1      29.366   6.869  47.990  1.00  0.00     0.005 C 
HETATM    6  C9  UNL     1      30.430   6.780  48.838  1.00  0.00     0.024 C 
HETATM    7  C10 UNL     1      31.335   7.906  49.282  1.00  0.00     0.002 C 
HETATM    8  C11 UNL     1      31.061   9.254  49.385  1.00  0.00     0.002 C 
HETATM    9  C12 UNL     1      29.764   9.955  49.097  1.00  0.00     0.025 C 
HETATM   10  C13 UNL     1      28.732   9.654  48.260  1.00  0.00     0.010 C 
HETATM   11  C14 UNL     1      28.698   9.047  46.908  1.00  0.00     0.063 C 
HETATM   12  C15 UNL     1      29.114   7.639  46.748  1.00  0.00     0.062 C 
HETATM   13  N2  UNL     1      27.606  10.112  49.094  1.00  0.00    -0.353 N 
HETATM   14  C16 UNL     1      26.439   9.274  49.366  1.00  0.00     0.229 C 
HETATM   15  N3  UNL     1      26.848   8.216  49.910  1.00  0.00    -0.174 NA
HETATM   16  N4  UNL     1      26.278   7.082  50.385  1.00  0.00    -0.301 N 
HETATM   17  H13 UNL     1      28.839   5.308  49.375  1.00  0.00     0.159 HD
HETATM   18  H22 UNL     1      27.876  11.100  49.388  1.00  0.00     0.166 HD
HETATM   19  H24 UNL     1      26.068   6.927  51.400  1.00  0.00     0.183 HD
ENDROOT
BRANCH   2  20
HETATM   20  C3  UNL     1      25.906   4.757  49.625  1.00  0.00     0.060 C 
BRANCH  20  21
HETATM   21  C4  UNL     1      24.523   4.286  49.335  1.00  0.00    -0.026 C 
HETATM   22  C5  UNL     1      24.056   3.074  49.697  1.00  0.00    -0.005 C 
BRANCH  22  23
HETATM   23  C6  UNL     1      22.754   2.364  49.540  1.00  0.00     0.191 C 
BRANCH  23  24
HETATM   24  O1  UNL     1      22.685   1.406  50.546  1.00  0.00    -0.397 OA
HETATM   25  H10 UNL     1      22.430   0.515  50.152  1.00  0.00     0.209 HD
ENDBRANCH  23  24
ENDBRANCH  22  23
ENDBRANCH  20  21
ENDBRANCH   2  20
TORSDOF 4
ENDMDL
MODEL 8
REMARK VINA RESULT:      -6.3      3.966      5.566
REMARK  4 active torsions:
REMARK  status: ('A' for Active; 'I' for Inactive)
REMARK    1  A    between atoms: C2_2  and  C3_3 
REMARK    2  A    between atoms: C3_3  and  C4_4 
REMARK    3  A    between atoms: C5_5  and  C6_6 
REMARK    4  A    between atoms: C6_6  and  O1_7 
ROOT
HETATM    1  C1  UNL     1      22.989   5.322  48.189  1.00  0.00     0.042 C 
HETATM    2  C2  UNL     1      23.783   4.657  49.290  1.00  0.00     0.063 C 
HETATM    3  C7  UNL     1      22.776   4.488  50.434  1.00  0.00     0.152 C 
HETATM    4  N1  UNL     1      23.313   3.842  51.581  1.00  0.00    -0.391 N 
HETATM    5  C8  UNL     1      22.164   3.148  52.181  1.00  0.00     0.005 C 
HETATM    6  C9  UNL     1      22.846   2.221  52.912  1.00  0.00     0.024 C 
HETATM    7  C10 UNL     1      22.499   0.760  53.077  1.00  0.00     0.002 C 
HETATM    8  C11 UNL     1      21.809  -0.074  52.222  1.00  0.00     0.002 C 
HETATM    9  C12 UNL     1      21.234   0.261  50.874  1.00  0.00     0.025 C 
HETATM   10  C13 UNL     1      20.787   1.432  50.340  1.00  0.00     0.010 C 
HETATM   11  C14 UNL     1      20.049   2.574  50.933  1.00  0.00     0.063 C 
HETATM   12  C15 UNL     1      20.721   3.405  51.951  1.00  0.00     0.062 C 
HETATM   13  N2  UNL     1      21.252   1.255  48.953  1.00  0.00    -0.353 N 
HETATM   14  C16 UNL     1      22.025   2.277  48.248  1.00  0.00     0.229 C 
HETATM   15  N3  UNL     1      23.063   2.503  48.922  1.00  0.00    -0.174 NA
HETATM   16  N4  UNL     1      24.141   3.317  48.807  1.00  0.00    -0.301 N 
HETATM   17  H13 UNL     1      24.226   3.752  52.051  1.00  0.00     0.159 HD
HETATM   18  H22 UNL     1      20.898   0.290  48.673  1.00  0.00     0.166 HD
HETATM   19  H24 UNL     1      25.063   2.996  48.428  1.00  0.00     0.183 HD
ENDROOT
BRANCH   2  20
HETATM   20  C3  UNL     1      24.905   5.490  49.709  1.00  0.00     0.060 C 
BRANCH  20  21
HETATM   21  C4  UNL     1      26.143   5.054  49.006  1.00  0.00    -0.026 C 
HETATM   22  C5  UNL     1      27.220   5.845  48.831  1.00  0.00    -0.005 C 
BRANCH  22  23
HETATM   23  C6  UNL     1      28.554   5.671  48.184  1.00  0.00     0.191 C 
BRANCH  23  24
HETATM   24  O1  UNL     1      29.471   5.411  49.197  1.00  0.00    -0.397 OA
HETATM   25  H10 UNL     1      29.177   5.862  50.049  1.00  0.00     0.209 HD
ENDBRANCH  23  24
ENDBRANCH  22  23
ENDBRANCH  20  21
ENDBRANCH   2  20
TORSDOF 4
ENDMDL
MODEL 9
REMARK VINA RESULT:      -6.3      3.701      6.350
REMARK  4 active torsions:
REMARK  status: ('A' for Active; 'I' for Inactive)
REMARK    1  A    between atoms: C2_2  and  C3_3 
REMARK    2  A    between atoms: C3_3  and  C4_4 
REMARK    3  A    between atoms: C5_5  and  C6_6 
REMARK    4  A    between atoms: C6_6  and  O1_7 
ROOT
HETATM    1  C1  UNL     1      20.510   0.630  53.694  1.00  0.00     0.042 C 
HETATM    2  C2  UNL     1      20.841   0.919  52.248  1.00  0.00     0.063 C 
HETATM    3  C7  UNL     1      21.544   2.281  52.286  1.00  0.00     0.152 C 
HETATM    4  N1  UNL     1      21.977   2.739  51.011  1.00  0.00    -0.391 N 
HETATM    5  C8  UNL     1      23.163   3.558  51.301  1.00  0.00     0.005 C 
HETATM    6  C9  UNL     1      23.744   3.517  50.069  1.00  0.00     0.024 C 
HETATM    7  C10 UNL     1      25.213   3.343  49.762  1.00  0.00     0.002 C 
HETATM    8  C11 UNL     1      26.190   2.714  50.506  1.00  0.00     0.002 C 
HETATM    9  C12 UNL     1      26.033   2.011  51.824  1.00  0.00     0.025 C 
HETATM   10  C13 UNL     1      25.147   2.177  52.845  1.00  0.00     0.010 C 
HETATM   11  C14 UNL     1      24.515   3.388  53.423  1.00  0.00     0.063 C 
HETATM   12  C15 UNL     1      23.563   4.158  52.598  1.00  0.00     0.062 C 
HETATM   13  N2  UNL     1      24.973   0.768  53.243  1.00  0.00    -0.353 N 
HETATM   14  C16 UNL     1      23.655   0.154  53.402  1.00  0.00     0.229 C 
HETATM   15  N3  UNL     1      23.047   0.269  52.307  1.00  0.00    -0.174 NA
HETATM   16  N4  UNL     1      21.828  -0.083  51.828  1.00  0.00    -0.301 N 
HETATM   17  H13 UNL     1      21.687   2.647  50.026  1.00  0.00     0.159 HD
HETATM   18  H22 UNL     1      25.966   0.399  53.359  1.00  0.00     0.166 HD
HETATM   19  H24 UNL     1      21.666  -0.943  51.253  1.00  0.00     0.183 HD
ENDROOT
BRANCH   2  20
HETATM   20  C3  UNL     1      19.632   0.984  51.433  1.00  0.00     0.060 C 
BRANCH  20  21
HETATM   21  C4  UNL     1      18.764  -0.188  51.731  1.00  0.00    -0.026 C 
HETATM   22  C5  UNL     1      17.429  -0.104  51.900  1.00  0.00    -0.005 C 
BRANCH  22  23
HETATM   23  C6  UNL     1      16.347  -1.088  52.198  1.00  0.00     0.191 C 
BRANCH  23  24
HETATM   24  O1  UNL     1      16.636  -1.653  53.436  1.00  0.00    -0.397 OA
HETATM   25  H10 UNL     1      15.882  -1.471  54.079  1.00  0.00     0.209 HD
ENDBRANCH  23  24
ENDBRANCH  22  23
ENDBRANCH  20  21
ENDBRANCH   2  20
TORSDOF 4
ENDMDL
