MODEL 1
REMARK VINA RESULT:      -8.2      0.000      0.000
REMARK  0 active torsions:
REMARK  status: ('A' for Active; 'I' for Inactive)
ROOT
HETATM    1  C1  UNL     1      26.053   2.097  53.412  1.00  0.00     0.069 C 
HETATM    2  C2  UNL     1      25.621   2.561  52.043  1.00  0.00     0.016 C 
HETATM    3  C3  UNL     1      26.427   2.588  50.959  1.00  0.00    -0.001 C 
HETATM    4  C4  UNL     1      26.184   3.000  49.577  1.00  0.00     0.035 C 
HETATM    5  C5  UNL     1      27.112   4.053  49.105  1.00  0.00     0.003 C 
HETATM    6  C6  UNL     1      27.521   5.208  48.649  1.00  0.00     0.027 C 
HETATM    7  C7  UNL     1      27.720   6.535  48.153  1.00  0.00    -0.082 C 
HETATM    8  C8  UNL     1      29.174   6.562  47.968  1.00  0.00     0.043 C 
HETATM    9  C9  UNL     1      26.968   7.614  47.861  1.00  0.00    -0.019 C 
HETATM   10  C10 UNL     1      25.599   8.201  47.824  1.00  0.00     0.066 C 
HETATM   11  C11 UNL     1      24.731   7.191  48.531  1.00  0.00    -0.055 A 
HETATM   12  C12 UNL     1      24.963   7.296  49.914  1.00  0.00     0.008 A 
HETATM   13  C13 UNL     1      24.343   6.453  50.813  1.00  0.00     0.012 A 
HETATM   14  C14 UNL     1      23.506   5.538  50.211  1.00  0.00    -0.029 A 
HETATM   15  C15 UNL     1      23.260   5.419  48.867  1.00  0.00     0.012 A 
HETATM   16  C16 UNL     1      23.883   6.263  47.981  1.00  0.00     0.008 A 
HETATM   17  C17 UNL     1      22.919   4.593  51.151  1.00  0.00    -0.035 C 
HETATM   18  C18 UNL     1      22.817   4.778  52.458  1.00  0.00     0.003 C 
HETATM   19  C19 UNL     1      23.841   3.967  53.205  1.00  0.00     0.171 C 
HETATM   20  N1  UNL     1      24.238   2.898  52.295  1.00  0.00    -0.314 N 
HETATM   21  N2  UNL     1      23.121   2.264  51.719  1.00  0.00    -0.234 NA
HETATM   22  C20 UNL     1      22.352   3.225  50.939  1.00  0.00     0.149 C 
HETATM   23  H22 UNL     1      22.540   1.741  52.397  1.00  0.00     0.147 HD
ENDROOT
TORSDOF 0
ENDMDL
MODEL 2
REMARK VINA RESULT:      -8.1      3.822      7.296
REMARK  0 active torsions:
REMARK  status: ('A' for Active; 'I' for Inactive)
ROOT
HETATM    1  C1  UNL     1      23.001   3.099  48.518  1.00  0.00     0.069 C 
HETATM    2  C2  UNL     1      22.701   2.943  49.988  1.00  0.00     0.016 C 
HETATM    3  C3  UNL     1      23.599   3.155  50.975  1.00  0.00    -0.001 C 
HETATM    4  C4  UNL     1      23.487   3.054  52.429  1.00  0.00     0.035 C 
HETATM    5  C5  UNL     1      24.476   2.131  53.033  1.00  0.00     0.003 C 
HETATM    6  C6  UNL     1      24.949   1.105  53.690  1.00  0.00     0.027 C 
HETATM    7  C7  UNL     1      25.219  -0.081  54.442  1.00  0.00    -0.082 C 
HETATM    8  C8  UNL     1      26.684  -0.064  54.497  1.00  0.00     0.043 C 
HETATM    9  C9  UNL     1      24.520  -1.073  55.028  1.00  0.00    -0.019 C 
HETATM   10  C10 UNL     1      23.173  -1.641  55.314  1.00  0.00     0.066 C 
HETATM   11  C11 UNL     1      22.224  -0.812  54.486  1.00  0.00    -0.055 A 
HETATM   12  C12 UNL     1      22.336  -1.215  53.144  1.00  0.00     0.008 A 
HETATM   13  C13 UNL     1      21.622  -0.591  52.143  1.00  0.00     0.012 A 
HETATM   14  C14 UNL     1      20.821   0.432  52.605  1.00  0.00    -0.029 A 
HETATM   15  C15 UNL     1      20.690   0.841  53.908  1.00  0.00     0.012 A 
HETATM   16  C16 UNL     1      21.407   0.211  54.896  1.00  0.00     0.008 A 
HETATM   17  C17 UNL     1      20.133   1.148  51.539  1.00  0.00    -0.035 C 
HETATM   18  C18 UNL     1      19.921   0.682  50.317  1.00  0.00     0.003 C 
HETATM   19  C19 UNL     1      20.858   1.313  49.324  1.00  0.00     0.171 C 
HETATM   20  N1  UNL     1      21.309   2.556  49.941  1.00  0.00    -0.314 N 
HETATM   21  N2  UNL     1      20.233   3.297  50.463  1.00  0.00    -0.234 NA
HETATM   22  C20 UNL     1      19.556   2.527  51.499  1.00  0.00     0.149 C 
HETATM   23  H22 UNL     1      19.583   3.659  49.743  1.00  0.00     0.147 HD
ENDROOT
TORSDOF 0
ENDMDL
MODEL 3
REMARK VINA RESULT:      -8.1      2.886      6.753
REMARK  0 active torsions:
REMARK  status: ('A' for Active; 'I' for Inactive)
ROOT
HETATM    1  C1  UNL     1      19.862   4.430  50.806  1.00  0.00     0.069 C 
HETATM    2  C2  UNL     1      20.984   3.432  50.657  1.00  0.00     0.016 C 
HETATM    3  C3  UNL     1      20.853   2.102  50.859  1.00  0.00    -0.001 C 
HETATM    4  C4  UNL     1      21.814   1.005  50.764  1.00  0.00     0.035 C 
HETATM    5  C5  UNL     1      21.931   0.214  52.010  1.00  0.00     0.003 C 
HETATM    6  C6  UNL     1      22.472  -0.322  53.072  1.00  0.00     0.027 C 
HETATM    7  C7  UNL     1      23.279  -0.788  54.157  1.00  0.00    -0.082 C 
HETATM    8  C8  UNL     1      22.321  -1.613  54.899  1.00  0.00     0.043 C 
HETATM    9  C9  UNL     1      24.549  -0.653  54.587  1.00  0.00    -0.019 C 
HETATM   10  C10 UNL     1      25.883  -0.034  54.346  1.00  0.00     0.066 C 
HETATM   11  C11 UNL     1      25.653   0.942  53.219  1.00  0.00    -0.055 A 
HETATM   12  C12 UNL     1      24.992   2.070  53.734  1.00  0.00     0.008 A 
HETATM   13  C13 UNL     1      24.602   3.110  52.917  1.00  0.00     0.012 A 
HETATM   14  C14 UNL     1      24.927   2.912  51.592  1.00  0.00    -0.029 A 
HETATM   15  C15 UNL     1      25.575   1.824  51.066  1.00  0.00     0.012 A 
HETATM   16  C16 UNL     1      25.959   0.793  51.889  1.00  0.00     0.008 A 
HETATM   17  C17 UNL     1      24.439   3.969  50.717  1.00  0.00    -0.035 C 
HETATM   18  C18 UNL     1      24.094   5.187  51.107  1.00  0.00     0.003 C 
HETATM   19  C19 UNL     1      22.598   5.344  51.142  1.00  0.00     0.171 C 
HETATM   20  N1  UNL     1      22.071   4.303  50.267  1.00  0.00    -0.314 N 
HETATM   21  N2  UNL     1      22.747   4.269  49.034  1.00  0.00    -0.234 NA
HETATM   22  C20 UNL     1      24.158   3.972  49.248  1.00  0.00     0.149 C 
HETATM   23  H22 UNL     1      22.598   5.111  48.450  1.00  0.00     0.147 HD
ENDROOT
TORSDOF 0
ENDMDL
MODEL 4
REMARK VINA RESULT:      -7.9      3.452      7.556
REMARK  0 active torsions:
REMARK  status: ('A' for Active; 'I' for Inactive)
ROOT
HETATM    1  C1  UNL     1      23.084   5.165  49.360  1.00  0.00     0.069 C 
HETATM    2  C2  UNL     1      22.993   3.698  49.701  1.00  0.00     0.016 C 
HETATM    3  C3  UNL     1      22.158   2.826  49.096  1.00  0.00    -0.001 C 
HETATM    4  C4  UNL     1      21.937   1.394  49.294  1.00  0.00     0.035 C 
HETATM    5  C5  UNL     1      20.530   1.052  49.603  1.00  0.00     0.003 C 
HETATM    6  C6  UNL     1      19.499   0.599  50.266  1.00  0.00     0.027 C 
HETATM    7  C7  UNL     1      18.543   0.045  51.175  1.00  0.00    -0.082 C 
HETATM    8  C8  UNL     1      17.299   0.191  50.413  1.00  0.00     0.043 C 
HETATM    9  C9  UNL     1      18.537  -0.504  52.405  1.00  0.00    -0.019 C 
HETATM   10  C10 UNL     1      19.345  -0.902  53.591  1.00  0.00     0.066 C 
HETATM   11  C11 UNL     1      20.713  -0.322  53.335  1.00  0.00    -0.055 A 
HETATM   12  C12 UNL     1      20.662   1.063  53.574  1.00  0.00     0.008 A 
HETATM   13  C13 UNL     1      21.761   1.870  53.366  1.00  0.00     0.012 A 
HETATM   14  C14 UNL     1      22.864   1.178  52.914  1.00  0.00    -0.029 A 
HETATM   15  C15 UNL     1      22.942  -0.170  52.677  1.00  0.00     0.012 A 
HETATM   16  C16 UNL     1      21.840  -0.964  52.888  1.00  0.00     0.008 A 
HETATM   17  C17 UNL     1      23.998   2.042  52.612  1.00  0.00    -0.035 C 
HETATM   18  C18 UNL     1      24.168   3.271  53.075  1.00  0.00     0.003 C 
HETATM   19  C19 UNL     1      23.868   4.298  52.019  1.00  0.00     0.171 C 
HETATM   20  N1  UNL     1      23.991   3.600  50.743  1.00  0.00    -0.314 N 
HETATM   21  N2  UNL     1      25.177   2.846  50.676  1.00  0.00    -0.234 NA
HETATM   22  C20 UNL     1      25.180   1.830  51.720  1.00  0.00     0.149 C 
HETATM   23  H22 UNL     1      26.039   3.419  50.670  1.00  0.00     0.147 HD
ENDROOT
TORSDOF 0
ENDMDL
MODEL 5
REMARK VINA RESULT:      -7.3      5.177      8.883
REMARK  0 active torsions:
REMARK  status: ('A' for Active; 'I' for Inactive)
ROOT
HETATM    1  C1  UNL     1      33.552   4.358  44.333  1.00  0.00     0.069 C 
HETATM    2  C2  UNL     1      33.061   5.300  45.404  1.00  0.00     0.016 C 
HETATM    3  C3  UNL     1      32.505   4.905  46.570  1.00  0.00    -0.001 C 
HETATM    4  C4  UNL     1      31.980   5.665  47.704  1.00  0.00     0.035 C 
HETATM    5  C5  UNL     1      30.572   5.343  48.028  1.00  0.00     0.003 C 
HETATM    6  C6  UNL     1      29.289   5.514  48.208  1.00  0.00     0.027 C 
HETATM    7  C7  UNL     1      27.931   5.945  48.334  1.00  0.00    -0.082 C 
HETATM    8  C8  UNL     1      27.275   4.712  48.782  1.00  0.00     0.043 C 
HETATM    9  C9  UNL     1      27.222   7.077  48.157  1.00  0.00    -0.019 C 
HETATM   10  C10 UNL     1      27.253   8.512  47.761  1.00  0.00     0.066 C 
HETATM   11  C11 UNL     1      28.642   8.729  47.215  1.00  0.00    -0.055 A 
HETATM   12  C12 UNL     1      28.710   8.159  45.932  1.00  0.00     0.008 A 
HETATM   13  C13 UNL     1      29.883   8.157  45.207  1.00  0.00     0.012 A 
HETATM   14  C14 UNL     1      30.932   8.756  45.871  1.00  0.00    -0.029 A 
HETATM   15  C15 UNL     1      30.891   9.323  47.119  1.00  0.00     0.012 A 
HETATM   16  C16 UNL     1      29.717   9.319  47.832  1.00  0.00     0.008 A 
HETATM   17  C17 UNL     1      32.191   8.677  45.143  1.00  0.00    -0.035 C 
HETATM   18  C18 UNL     1      32.311   8.454  43.843  1.00  0.00     0.003 C 
HETATM   19  C19 UNL     1      32.752   7.043  43.569  1.00  0.00     0.171 C 
HETATM   20  N1  UNL     1      33.375   6.578  44.804  1.00  0.00    -0.314 N 
HETATM   21  N2  UNL     1      34.293   7.518  45.309  1.00  0.00    -0.234 NA
HETATM   22  C20 UNL     1      33.606   8.765  45.620  1.00  0.00     0.149 C 
HETATM   23  H22 UNL     1      35.125   7.657  44.708  1.00  0.00     0.147 HD
ENDROOT
TORSDOF 0
ENDMDL
MODEL 6
REMARK VINA RESULT:      -7.2      2.338      4.860
REMARK  0 active torsions:
REMARK  status: ('A' for Active; 'I' for Inactive)
ROOT
HETATM    1  C1  UNL     1      18.577   5.444  49.415  1.00  0.00     0.069 C 
HETATM    2  C2  UNL     1      19.809   5.215  50.256  1.00  0.00     0.016 C 
HETATM    3  C3  UNL     1      20.787   6.129  50.439  1.00  0.00    -0.001 C 
HETATM    4  C4  UNL     1      22.030   6.083  51.206  1.00  0.00     0.035 C 
HETATM    5  C5  UNL     1      23.235   6.365  50.392  1.00  0.00     0.003 C 
HETATM    6  C6  UNL     1      24.393   6.176  49.816  1.00  0.00     0.027 C 
HETATM    7  C7  UNL     1      25.650   5.736  49.294  1.00  0.00    -0.082 C 
HETATM    8  C8  UNL     1      26.086   6.921  48.549  1.00  0.00     0.043 C 
HETATM    9  C9  UNL     1      26.414   4.627  49.332  1.00  0.00    -0.019 C 
HETATM   10  C10 UNL     1      26.554   3.232  49.836  1.00  0.00     0.066 C 
HETATM   11  C11 UNL     1      25.214   2.910  50.447  1.00  0.00    -0.055 A 
HETATM   12  C12 UNL     1      24.298   2.664  49.409  1.00  0.00     0.008 A 
HETATM   13  C13 UNL     1      22.971   2.396  49.669  1.00  0.00     0.012 A 
HETATM   14  C14 UNL     1      22.670   2.399  51.014  1.00  0.00    -0.029 A 
HETATM   15  C15 UNL     1      23.544   2.631  52.046  1.00  0.00     0.012 A 
HETATM   16  C16 UNL     1      24.864   2.898  51.774  1.00  0.00     0.008 A 
HETATM   17  C17 UNL     1      21.252   2.202  51.285  1.00  0.00    -0.035 C 
HETATM   18  C18 UNL     1      20.380   1.667  50.444  1.00  0.00     0.003 C 
HETATM   19  C19 UNL     1      19.503   2.722  49.825  1.00  0.00     0.171 C 
HETATM   20  N1  UNL     1      19.570   3.868  50.725  1.00  0.00    -0.314 N 
HETATM   21  N2  UNL     1      19.376   3.489  52.066  1.00  0.00    -0.234 NA
HETATM   22  C20 UNL     1      20.423   2.562  52.477  1.00  0.00     0.149 C 
HETATM   23  H22 UNL     1      18.424   3.134  52.268  1.00  0.00     0.147 HD
ENDROOT
TORSDOF 0
ENDMDL
MODEL 7
REMARK VINA RESULT:      -7.1      2.489      6.159
REMARK  0 active torsions:
REMARK  status: ('A' for Active; 'I' for Inactive)
ROOT
HETATM    1  C1  UNL     1      20.964   6.831  47.909  1.00  0.00     0.069 C 
HETATM    2  C2  UNL     1      22.000   5.763  48.159  1.00  0.00     0.016 C 
HETATM    3  C3  UNL     1      21.780   4.438  48.014  1.00  0.00    -0.001 C 
HETATM    4  C4  UNL     1      22.651   3.281  48.210  1.00  0.00     0.035 C 
HETATM    5  C5  UNL     1      22.110   2.293  49.172  1.00  0.00     0.003 C 
HETATM    6  C6  UNL     1      22.029   1.544  50.240  1.00  0.00     0.027 C 
HETATM    7  C7  UNL     1      22.165   0.833  51.474  1.00  0.00    -0.082 C 
HETATM    8  C8  UNL     1      20.959  -0.002  51.463  1.00  0.00     0.043 C 
HETATM    9  C9  UNL     1      23.036   0.771  52.500  1.00  0.00    -0.019 C 
HETATM   10  C10 UNL     1      24.307   1.286  53.082  1.00  0.00     0.066 C 
HETATM   11  C11 UNL     1      24.690   2.446  52.200  1.00  0.00    -0.055 A 
HETATM   12  C12 UNL     1      23.862   3.538  52.514  1.00  0.00     0.008 A 
HETATM   13  C13 UNL     1      23.948   4.728  51.824  1.00  0.00     0.012 A 
HETATM   14  C14 UNL     1      24.906   4.713  50.832  1.00  0.00    -0.029 A 
HETATM   15  C15 UNL     1      25.729   3.664  50.509  1.00  0.00     0.012 A 
HETATM   16  C16 UNL     1      25.633   2.483  51.203  1.00  0.00     0.008 A 
HETATM   17  C17 UNL     1      24.938   5.939  50.047  1.00  0.00    -0.035 C 
HETATM   18  C18 UNL     1      24.446   7.107  50.431  1.00  0.00     0.003 C 
HETATM   19  C19 UNL     1      23.144   7.404  49.739  1.00  0.00     0.171 C 
HETATM   20  N1  UNL     1      23.136   6.573  48.540  1.00  0.00    -0.314 N 
HETATM   21  N2  UNL     1      24.349   6.670  47.832  1.00  0.00    -0.234 NA
HETATM   22  C20 UNL     1      25.450   6.205  48.666  1.00  0.00     0.149 C 
HETATM   23  H22 UNL     1      24.522   7.605  47.423  1.00  0.00     0.147 HD
ENDROOT
TORSDOF 0
ENDMDL
MODEL 8
REMARK VINA RESULT:      -6.8      6.774      9.067
REMARK  0 active torsions:
REMARK  status: ('A' for Active; 'I' for Inactive)
ROOT
HETATM    1  C1  UNL     1      34.942   5.140  43.901  1.00  0.00     0.069 C 
HETATM    2  C2  UNL     1      33.627   5.523  44.532  1.00  0.00     0.016 C 
HETATM    3  C3  UNL     1      32.884   6.588  44.158  1.00  0.00    -0.001 C 
HETATM    4  C4  UNL     1      31.607   7.103  44.649  1.00  0.00     0.035 C 
HETATM    5  C5  UNL     1      31.673   8.515  45.093  1.00  0.00     0.003 C 
HETATM    6  C6  UNL     1      31.608   9.551  45.886  1.00  0.00     0.027 C 
HETATM    7  C7  UNL     1      31.473  10.513  46.936  1.00  0.00    -0.082 C 
HETATM    8  C8  UNL     1      31.771  11.761  46.226  1.00  0.00     0.043 C 
HETATM    9  C9  UNL     1      31.174  10.523  48.249  1.00  0.00    -0.019 C 
HETATM   10  C10 UNL     1      30.818   9.712  49.448  1.00  0.00     0.066 C 
HETATM   11  C11 UNL     1      30.998   8.281  49.009  1.00  0.00    -0.055 A 
HETATM   12  C12 UNL     1      32.374   7.997  48.970  1.00  0.00     0.008 A 
HETATM   13  C13 UNL     1      32.844   6.771  48.547  1.00  0.00     0.012 A 
HETATM   14  C14 UNL     1      31.839   5.900  48.186  1.00  0.00    -0.029 A 
HETATM   15  C15 UNL     1      30.491   6.150  48.220  1.00  0.00     0.012 A 
HETATM   16  C16 UNL     1      30.034   7.376  48.642  1.00  0.00     0.008 A 
HETATM   17  C17 UNL     1      32.337   4.637  47.658  1.00  0.00    -0.035 C 
HETATM   18  C18 UNL     1      33.553   4.151  47.858  1.00  0.00     0.003 C 
HETATM   19  C19 UNL     1      34.412   4.315  46.634  1.00  0.00     0.171 C 
HETATM   20  N1  UNL     1      33.485   4.476  45.519  1.00  0.00    -0.314 N 
HETATM   21  N2  UNL     1      32.470   3.502  45.542  1.00  0.00    -0.234 NA
HETATM   22  C20 UNL     1      31.690   3.625  46.767  1.00  0.00     0.149 C 
HETATM   23  H22 UNL     1      32.810   2.538  45.378  1.00  0.00     0.147 HD
ENDROOT
TORSDOF 0
ENDMDL
MODEL 9
REMARK VINA RESULT:      -6.7      2.862      6.744
REMARK  0 active torsions:
REMARK  status: ('A' for Active; 'I' for Inactive)
ROOT
HETATM    1  C1  UNL     1      23.439   7.041  50.637  1.00  0.00     0.069 C 
HETATM    2  C2  UNL     1      23.214   5.596  50.267  1.00  0.00     0.016 C 
HETATM    3  C3  UNL     1      22.455   5.186  49.227  1.00  0.00    -0.001 C 
HETATM    4  C4  UNL     1      22.130   3.851  48.728  1.00  0.00     0.035 C 
HETATM    5  C5  UNL     1      20.674   3.588  48.655  1.00  0.00     0.003 C 
HETATM    6  C6  UNL     1      19.520   3.024  48.897  1.00  0.00     0.027 C 
HETATM    7  C7  UNL     1      18.391   2.255  49.321  1.00  0.00    -0.082 C 
HETATM    8  C8  UNL     1      17.311   2.873  48.545  1.00  0.00     0.043 C 
HETATM    9  C9  UNL     1      18.138   1.231  50.159  1.00  0.00    -0.019 C 
HETATM   10  C10 UNL     1      18.701   0.259  51.137  1.00  0.00     0.066 C 
HETATM   11  C11 UNL     1      20.121   0.717  51.357  1.00  0.00    -0.055 A 
HETATM   12  C12 UNL     1      20.100   1.853  52.184  1.00  0.00     0.008 A 
HETATM   13  C13 UNL     1      21.258   2.526  52.512  1.00  0.00     0.012 A 
HETATM   14  C14 UNL     1      22.387   1.968  51.953  1.00  0.00    -0.029 A 
HETATM   15  C15 UNL     1      22.436   0.858  51.148  1.00  0.00     0.012 A 
HETATM   16  C16 UNL     1      21.275   0.197  50.827  1.00  0.00     0.008 A 
HETATM   17  C17 UNL     1      23.599   2.727  52.228  1.00  0.00    -0.035 C 
HETATM   18  C18 UNL     1      23.748   3.600  53.213  1.00  0.00     0.003 C 
HETATM   19  C19 UNL     1      23.693   5.014  52.701  1.00  0.00     0.171 C 
HETATM   20  N1  UNL     1      24.005   4.931  51.278  1.00  0.00    -0.314 N 
HETATM   21  N2  UNL     1      25.143   4.139  51.041  1.00  0.00    -0.234 NA
HETATM   22  C20 UNL     1      24.909   2.778  51.506  1.00  0.00     0.149 C 
HETATM   23  H22 UNL     1      26.021   4.544  51.411  1.00  0.00     0.147 HD
ENDROOT
TORSDOF 0
ENDMDL
