MODEL 1
REMARK VINA RESULT:      -8.0      0.000      0.000
REMARK  0 active torsions:
REMARK  status: ('A' for Active; 'I' for Inactive)
ROOT
HETATM    1  O1  UNL     1      32.793   7.884  47.679  1.00  0.00     0.000 OA
HETATM    2  C1  UNL     1      33.992   7.938  47.962  1.00  0.00     0.272 A 
HETATM    3  C2  UNL     1      33.607   9.303  47.457  1.00  0.00     0.069 A 
HETATM    4  C3  UNL     1      32.106   9.191  47.190  1.00  0.00     0.013 A 
HETATM    5  C4  UNL     1      31.515   9.158  48.469  1.00  0.00    -0.009 A 
HETATM    6  C5  UNL     1      30.213   8.745  48.280  1.00  0.00     0.034 A 
HETATM    7  C6  UNL     1      29.785   8.471  46.977  1.00  0.00     0.074 A 
HETATM    8  C7  UNL     1      30.387   8.531  45.761  1.00  0.00     0.034 A 
HETATM    9  C8  UNL     1      31.697   8.937  45.910  1.00  0.00    -0.009 A 
HETATM   10  O2  UNL     1      28.481   8.054  47.309  1.00  0.00    -0.323 OA
HETATM   11  C9  UNL     1      28.395   6.737  47.910  1.00  0.00     0.139 C 
HETATM   12  C10 UNL     1      29.229   5.673  48.207  1.00  0.00     0.012 C 
HETATM   13  C11 UNL     1      30.636   5.566  47.959  1.00  0.00     0.075 C 
HETATM   14  C12 UNL     1      31.337   5.832  49.226  1.00  0.00     0.133 C 
HETATM   15  N1  UNL     1      32.631   6.013  49.302  1.00  0.00    -0.068 NA
HETATM   16  N2  UNL     1      33.450   6.619  48.228  1.00  0.00     0.246 N 
HETATM   17  C13 UNL     1      33.691   5.526  47.314  1.00  0.00     0.212 C 
HETATM   18  C14 UNL     1      34.789   4.632  47.892  1.00  0.00     0.050 C 
HETATM   19  C15 UNL     1      34.517   3.232  47.372  1.00  0.00     0.012 C 
HETATM   20  C16 UNL     1      33.422   3.473  46.390  1.00  0.00     0.017 C 
HETATM   21  C17 UNL     1      33.991   4.396  45.315  1.00  0.00     0.012 C 
HETATM   22  C18 UNL     1      34.055   5.788  45.927  1.00  0.00     0.050 C 
HETATM   23  C19 UNL     1      32.616   4.513  47.138  1.00  0.00    -0.038 C 
HETATM   24  C20 UNL     1      31.292   4.358  47.458  1.00  0.00    -0.007 C 
ENDROOT
TORSDOF 0
ENDMDL
MODEL 2
REMARK VINA RESULT:      -7.9      8.878     10.725
REMARK  0 active torsions:
REMARK  status: ('A' for Active; 'I' for Inactive)
ROOT
HETATM    1  O1  UNL     1      23.471   3.623  50.608  1.00  0.00     0.000 OA
HETATM    2  C1  UNL     1      24.297   4.402  51.089  1.00  0.00     0.272 A 
HETATM    3  C2  UNL     1      23.979   4.910  49.708  1.00  0.00     0.069 A 
HETATM    4  C3  UNL     1      22.907   3.949  49.196  1.00  0.00     0.013 A 
HETATM    5  C4  UNL     1      21.746   4.284  49.922  1.00  0.00    -0.009 A 
HETATM    6  C5  UNL     1      20.856   3.250  49.723  1.00  0.00     0.034 A 
HETATM    7  C6  UNL     1      21.250   2.181  48.913  1.00  0.00     0.074 A 
HETATM    8  C7  UNL     1      22.380   1.901  48.214  1.00  0.00     0.034 A 
HETATM    9  C8  UNL     1      23.300   2.914  48.393  1.00  0.00    -0.009 A 
HETATM   10  O2  UNL     1      20.082   1.409  49.068  1.00  0.00    -0.323 OA
HETATM   11  C9  UNL     1      19.951   0.749  50.353  1.00  0.00     0.139 C 
HETATM   12  C10 UNL     1      20.690   0.569  51.510  1.00  0.00     0.012 C 
HETATM   13  C11 UNL     1      22.003   1.067  51.798  1.00  0.00     0.075 C 
HETATM   14  C12 UNL     1      21.854   2.249  52.663  1.00  0.00     0.133 C 
HETATM   15  N1  UNL     1      22.843   3.058  52.943  1.00  0.00    -0.068 NA
HETATM   16  N2  UNL     1      23.970   3.343  52.024  1.00  0.00     0.246 N 
HETATM   17  C13 UNL     1      24.869   2.229  52.221  1.00  0.00     0.212 C 
HETATM   18  C14 UNL     1      25.643   2.443  53.523  1.00  0.00     0.050 C 
HETATM   19  C15 UNL     1      25.972   1.061  54.055  1.00  0.00     0.012 C 
HETATM   20  C16 UNL     1      25.544   0.184  52.929  1.00  0.00     0.017 C 
HETATM   21  C17 UNL     1      26.402   0.565  51.725  1.00  0.00     0.012 C 
HETATM   22  C18 UNL     1      25.855   1.886  51.203  1.00  0.00     0.050 C 
HETATM   23  C19 UNL     1      24.278   0.894  52.502  1.00  0.00    -0.038 C 
HETATM   24  C20 UNL     1      23.048   0.290  52.465  1.00  0.00    -0.007 C 
ENDROOT
TORSDOF 0
ENDMDL
MODEL 3
REMARK VINA RESULT:      -7.9      8.555     11.570
REMARK  0 active torsions:
REMARK  status: ('A' for Active; 'I' for Inactive)
ROOT
HETATM    1  O1  UNL     1      21.554   3.126  51.967  1.00  0.00     0.000 OA
HETATM    2  C1  UNL     1      21.210   4.308  51.907  1.00  0.00     0.272 A 
HETATM    3  C2  UNL     1      19.946   3.491  51.897  1.00  0.00     0.069 A 
HETATM    4  C3  UNL     1      20.434   2.050  52.040  1.00  0.00     0.013 A 
HETATM    5  C4  UNL     1      20.857   1.945  53.381  1.00  0.00    -0.009 A 
HETATM    6  C5  UNL     1      21.585   0.777  53.464  1.00  0.00     0.034 A 
HETATM    7  C6  UNL     1      21.738   0.006  52.309  1.00  0.00     0.074 A 
HETATM    8  C7  UNL     1      21.299   0.135  51.030  1.00  0.00     0.034 A 
HETATM    9  C8  UNL     1      20.568   1.298  50.906  1.00  0.00    -0.009 A 
HETATM   10  O2  UNL     1      22.562  -0.988  52.873  1.00  0.00    -0.323 OA
HETATM   11  C9  UNL     1      23.932  -0.581  53.118  1.00  0.00     0.139 C 
HETATM   12  C10 UNL     1      24.748   0.514  52.888  1.00  0.00     0.012 C 
HETATM   13  C11 UNL     1      24.404   1.743  52.237  1.00  0.00     0.075 C 
HETATM   14  C12 UNL     1      24.173   2.754  53.281  1.00  0.00     0.133 C 
HETATM   15  N1  UNL     1      23.646   3.927  53.036  1.00  0.00    -0.068 NA
HETATM   16  N2  UNL     1      22.654   4.186  51.968  1.00  0.00     0.246 N 
HETATM   17  C13 UNL     1      23.457   4.335  50.776  1.00  0.00     0.212 C 
HETATM   18  C14 UNL     1      24.086   5.729  50.775  1.00  0.00     0.050 C 
HETATM   19  C15 UNL     1      25.392   5.607  50.012  1.00  0.00     0.012 C 
HETATM   20  C16 UNL     1      25.308   4.220  49.472  1.00  0.00     0.017 C 
HETATM   21  C17 UNL     1      24.089   4.181  48.553  1.00  0.00     0.012 C 
HETATM   22  C18 UNL     1      22.865   4.145  49.457  1.00  0.00     0.050 C 
HETATM   23  C19 UNL     1      24.688   3.509  50.654  1.00  0.00    -0.038 C 
HETATM   24  C20 UNL     1      25.268   2.437  51.281  1.00  0.00    -0.007 C 
ENDROOT
TORSDOF 0
ENDMDL
MODEL 4
REMARK VINA RESULT:      -7.6      1.638      2.324
REMARK  0 active torsions:
REMARK  status: ('A' for Active; 'I' for Inactive)
ROOT
HETATM    1  O1  UNL     1      33.000   7.500  45.623  1.00  0.00     0.000 OA
HETATM    2  C1  UNL     1      33.909   7.069  44.912  1.00  0.00     0.272 A 
HETATM    3  C2  UNL     1      33.098   8.001  44.053  1.00  0.00     0.069 A 
HETATM    4  C3  UNL     1      32.034   8.551  45.004  1.00  0.00     0.013 A 
HETATM    5  C4  UNL     1      32.732   9.439  45.848  1.00  0.00    -0.009 A 
HETATM    6  C5  UNL     1      31.886   9.710  46.903  1.00  0.00     0.034 A 
HETATM    7  C6  UNL     1      30.626   9.106  46.916  1.00  0.00     0.074 A 
HETATM    8  C7  UNL     1      29.982   8.262  46.070  1.00  0.00     0.034 A 
HETATM    9  C8  UNL     1      30.800   7.963  45.000  1.00  0.00    -0.009 A 
HETATM   10  O2  UNL     1      30.200   9.624  48.156  1.00  0.00    -0.323 OA
HETATM   11  C9  UNL     1      30.813   9.011  49.318  1.00  0.00     0.139 C 
HETATM   12  C10 UNL     1      31.675   7.968  49.610  1.00  0.00     0.012 C 
HETATM   13  C11 UNL     1      32.297   7.061  48.692  1.00  0.00     0.075 C 
HETATM   14  C12 UNL     1      33.687   7.505  48.496  1.00  0.00     0.133 C 
HETATM   15  N1  UNL     1      34.468   7.017  47.566  1.00  0.00    -0.068 NA
HETATM   16  N2  UNL     1      33.990   6.523  46.254  1.00  0.00     0.246 N 
HETATM   17  C13 UNL     1      33.537   5.180  46.531  1.00  0.00     0.212 C 
HETATM   18  C14 UNL     1      34.755   4.259  46.634  1.00  0.00     0.050 C 
HETATM   19  C15 UNL     1      34.367   3.143  47.586  1.00  0.00     0.012 C 
HETATM   20  C16 UNL     1      32.912   3.399  47.789  1.00  0.00     0.017 C 
HETATM   21  C17 UNL     1      32.247   3.259  46.421  1.00  0.00     0.012 C 
HETATM   22  C18 UNL     1      32.591   4.519  45.640  1.00  0.00     0.050 C 
HETATM   23  C19 UNL     1      32.913   4.911  47.854  1.00  0.00    -0.038 C 
HETATM   24  C20 UNL     1      32.432   5.622  48.923  1.00  0.00    -0.007 C 
ENDROOT
TORSDOF 0
ENDMDL
MODEL 5
REMARK VINA RESULT:      -7.3      9.298     11.703
REMARK  0 active torsions:
REMARK  status: ('A' for Active; 'I' for Inactive)
ROOT
HETATM    1  O1  UNL     1      22.540   3.749  51.767  1.00  0.00     0.000 OA
HETATM    2  C1  UNL     1      22.356   3.968  52.967  1.00  0.00     0.272 A 
HETATM    3  C2  UNL     1      23.333   5.007  52.485  1.00  0.00     0.069 A 
HETATM    4  C3  UNL     1      23.467   4.725  50.988  1.00  0.00     0.013 A 
HETATM    5  C4  UNL     1      22.250   5.166  50.430  1.00  0.00    -0.009 A 
HETATM    6  C5  UNL     1      22.203   4.648  49.152  1.00  0.00     0.034 A 
HETATM    7  C6  UNL     1      23.276   3.867  48.713  1.00  0.00     0.074 A 
HETATM    8  C7  UNL     1      24.446   3.475  49.281  1.00  0.00     0.034 A 
HETATM    9  C8  UNL     1      24.527   3.972  50.566  1.00  0.00    -0.009 A 
HETATM   10  O2  UNL     1      22.749   3.548  47.446  1.00  0.00    -0.323 OA
HETATM   11  C9  UNL     1      21.680   2.568  47.457  1.00  0.00     0.139 C 
HETATM   12  C10 UNL     1      21.031   1.747  48.363  1.00  0.00     0.012 C 
HETATM   13  C11 UNL     1      21.283   1.621  49.768  1.00  0.00     0.075 C 
HETATM   14  C12 UNL     1      20.253   2.395  50.480  1.00  0.00     0.133 C 
HETATM   15  N1  UNL     1      20.312   2.655  51.761  1.00  0.00    -0.068 NA
HETATM   16  N2  UNL     1      21.574   2.833  52.516  1.00  0.00     0.246 N 
HETATM   17  C13 UNL     1      22.001   1.483  52.804  1.00  0.00     0.212 C 
HETATM   18  C14 UNL     1      21.172   0.941  53.969  1.00  0.00     0.050 C 
HETATM   19  C15 UNL     1      21.094  -0.562  53.775  1.00  0.00     0.012 C 
HETATM   20  C16 UNL     1      22.041  -0.778  52.644  1.00  0.00     0.017 C 
HETATM   21  C17 UNL     1      23.415  -0.322  53.129  1.00  0.00     0.012 C 
HETATM   22  C18 UNL     1      23.396   1.200  53.118  1.00  0.00     0.050 C 
HETATM   23  C19 UNL     1      21.720   0.430  51.791  1.00  0.00    -0.038 C 
HETATM   24  C20 UNL     1      21.305   0.347  50.488  1.00  0.00    -0.007 C 
ENDROOT
TORSDOF 0
ENDMDL
MODEL 6
REMARK VINA RESULT:      -7.3      8.764     10.369
REMARK  0 active torsions:
REMARK  status: ('A' for Active; 'I' for Inactive)
ROOT
HETATM    1  O1  UNL     1      23.080   4.806  50.783  1.00  0.00     0.000 OA
HETATM    2  C1  UNL     1      23.687   5.414  51.667  1.00  0.00     0.272 A 
HETATM    3  C2  UNL     1      23.502   6.381  50.528  1.00  0.00     0.069 A 
HETATM    4  C3  UNL     1      22.690   5.593  49.500  1.00  0.00     0.013 A 
HETATM    5  C4  UNL     1      21.394   5.514  50.050  1.00  0.00    -0.009 A 
HETATM    6  C5  UNL     1      20.724   4.557  49.318  1.00  0.00     0.034 A 
HETATM    7  C6  UNL     1      21.403   3.922  48.275  1.00  0.00     0.074 A 
HETATM    8  C7  UNL     1      22.656   4.038  47.763  1.00  0.00     0.034 A 
HETATM    9  C8  UNL     1      23.362   4.987  48.475  1.00  0.00    -0.009 A 
HETATM   10  O2  UNL     1      20.366   3.043  47.904  1.00  0.00    -0.323 OA
HETATM   11  C9  UNL     1      20.152   1.933  48.811  1.00  0.00     0.139 C 
HETATM   12  C10 UNL     1      20.728   1.393  49.949  1.00  0.00     0.012 C 
HETATM   13  C11 UNL     1      21.884   1.863  50.653  1.00  0.00     0.075 C 
HETATM   14  C12 UNL     1      21.417   2.604  51.837  1.00  0.00     0.133 C 
HETATM   15  N1  UNL     1      22.208   3.333  52.581  1.00  0.00    -0.068 NA
HETATM   16  N2  UNL     1      23.399   4.052  52.073  1.00  0.00     0.246 N 
HETATM   17  C13 UNL     1      24.427   3.037  52.032  1.00  0.00     0.212 C 
HETATM   18  C14 UNL     1      24.951   2.807  53.450  1.00  0.00     0.050 C 
HETATM   19  C15 UNL     1      25.416   1.364  53.504  1.00  0.00     0.012 C 
HETATM   20  C16 UNL     1      25.310   0.949  52.076  1.00  0.00     0.017 C 
HETATM   21  C17 UNL     1      26.267   1.842  51.288  1.00  0.00     0.012 C 
HETATM   22  C18 UNL     1      25.597   3.204  51.178  1.00  0.00     0.050 C 
HETATM   23  C19 UNL     1      24.024   1.647  51.690  1.00  0.00    -0.038 C 
HETATM   24  C20 UNL     1      22.929   0.991  51.192  1.00  0.00    -0.007 C 
ENDROOT
TORSDOF 0
ENDMDL
MODEL 7
REMARK VINA RESULT:      -7.1      1.772      5.214
REMARK  0 active torsions:
REMARK  status: ('A' for Active; 'I' for Inactive)
ROOT
HETATM    1  O1  UNL     1      31.927   6.625  48.175  1.00  0.00     0.000 OA
HETATM    2  C1  UNL     1      31.700   7.100  49.290  1.00  0.00     0.272 A 
HETATM    3  C2  UNL     1      32.512   5.853  49.511  1.00  0.00     0.069 A 
HETATM    4  C3  UNL     1      32.817   5.351  48.100  1.00  0.00     0.013 A 
HETATM    5  C4  UNL     1      33.773   6.256  47.595  1.00  0.00    -0.009 A 
HETATM    6  C5  UNL     1      33.837   6.029  46.236  1.00  0.00     0.034 A 
HETATM    7  C6  UNL     1      33.017   5.038  45.689  1.00  0.00     0.074 A 
HETATM    8  C7  UNL     1      32.113   4.172  46.216  1.00  0.00     0.034 A 
HETATM    9  C8  UNL     1      32.018   4.372  47.578  1.00  0.00    -0.009 A 
HETATM   10  O2  UNL     1      33.390   5.231  44.344  1.00  0.00    -0.323 OA
HETATM   11  C9  UNL     1      32.841   6.419  43.721  1.00  0.00     0.139 C 
HETATM   12  C10 UNL     1      31.956   7.440  44.027  1.00  0.00     0.012 C 
HETATM   13  C11 UNL     1      31.220   7.627  45.242  1.00  0.00     0.075 C 
HETATM   14  C12 UNL     1      31.915   8.657  46.032  1.00  0.00     0.133 C 
HETATM   15  N1  UNL     1      31.620   8.920  47.280  1.00  0.00    -0.068 NA
HETATM   16  N2  UNL     1      31.114   7.916  48.243  1.00  0.00     0.246 N 
HETATM   17  C13 UNL     1      29.699   7.844  47.959  1.00  0.00     0.212 C 
HETATM   18  C14 UNL     1      29.007   9.056  48.586  1.00  0.00     0.050 C 
HETATM   19  C15 UNL     1      27.795   9.350  47.722  1.00  0.00     0.012 C 
HETATM   20  C16 UNL     1      27.776   8.176  46.803  1.00  0.00     0.017 C 
HETATM   21  C17 UNL     1      27.585   6.938  47.677  1.00  0.00     0.012 C 
HETATM   22  C18 UNL     1      28.923   6.674  48.353  1.00  0.00     0.050 C 
HETATM   23  C19 UNL     1      29.259   8.012  46.548  1.00  0.00    -0.038 C 
HETATM   24  C20 UNL     1      29.819   8.046  45.298  1.00  0.00    -0.007 C 
ENDROOT
TORSDOF 0
ENDMDL
MODEL 8
REMARK VINA RESULT:      -6.9      7.838     11.064
REMARK  0 active torsions:
REMARK  status: ('A' for Active; 'I' for Inactive)
ROOT
HETATM    1  O1  UNL     1      21.586   5.103  49.432  1.00  0.00     0.000 OA
HETATM    2  C1  UNL     1      20.408   4.923  49.117  1.00  0.00     0.272 A 
HETATM    3  C2  UNL     1      20.609   6.412  49.197  1.00  0.00     0.069 A 
HETATM    4  C3  UNL     1      22.094   6.570  49.523  1.00  0.00     0.013 A 
HETATM    5  C4  UNL     1      22.762   6.233  48.327  1.00  0.00    -0.009 A 
HETATM    6  C5  UNL     1      24.088   6.057  48.664  1.00  0.00     0.034 A 
HETATM    7  C6  UNL     1      24.464   6.236  49.998  1.00  0.00     0.074 A 
HETATM    8  C7  UNL     1      23.787   6.577  51.126  1.00  0.00     0.034 A 
HETATM    9  C8  UNL     1      22.452   6.758  50.829  1.00  0.00    -0.009 A 
HETATM   10  O2  UNL     1      25.823   5.902  49.840  1.00  0.00    -0.323 OA
HETATM   11  C9  UNL     1      26.090   4.488  49.665  1.00  0.00     0.139 C 
HETATM   12  C10 UNL     1      25.397   3.289  49.680  1.00  0.00     0.012 C 
HETATM   13  C11 UNL     1      23.997   3.089  49.915  1.00  0.00     0.075 C 
HETATM   14  C12 UNL     1      23.349   2.880  48.610  1.00  0.00     0.133 C 
HETATM   15  N1  UNL     1      22.050   2.870  48.451  1.00  0.00    -0.068 NA
HETATM   16  N2  UNL     1      21.106   3.661  49.273  1.00  0.00     0.246 N 
HETATM   17  C13 UNL     1      20.933   2.866  50.467  1.00  0.00     0.212 C 
HETATM   18  C14 UNL     1      19.976   1.713  50.158  1.00  0.00     0.050 C 
HETATM   19  C15 UNL     1      20.368   0.575  51.081  1.00  0.00     0.012 C 
HETATM   20  C16 UNL     1      21.370   1.227  51.971  1.00  0.00     0.017 C 
HETATM   21  C17 UNL     1      20.639   2.350  52.706  1.00  0.00     0.012 C 
HETATM   22  C18 UNL     1      20.459   3.479  51.702  1.00  0.00     0.050 C 
HETATM   23  C19 UNL     1      22.100   2.091  50.966  1.00  0.00    -0.038 C 
HETATM   24  C20 UNL     1      23.449   2.011  50.740  1.00  0.00    -0.007 C 
ENDROOT
TORSDOF 0
ENDMDL
MODEL 9
REMARK VINA RESULT:      -6.9      8.635     11.763
REMARK  0 active torsions:
REMARK  status: ('A' for Active; 'I' for Inactive)
ROOT
HETATM    1  O1  UNL     1      22.304   1.941  51.056  1.00  0.00     0.000 OA
HETATM    2  C1  UNL     1      23.471   1.643  51.322  1.00  0.00     0.272 A 
HETATM    3  C2  UNL     1      22.612   1.012  52.385  1.00  0.00     0.069 A 
HETATM    4  C3  UNL     1      21.184   1.358  51.965  1.00  0.00     0.013 A 
HETATM    5  C4  UNL     1      20.933   0.543  50.842  1.00  0.00    -0.009 A 
HETATM    6  C5  UNL     1      19.792   1.045  50.251  1.00  0.00     0.034 A 
HETATM    7  C6  UNL     1      19.176   2.155  50.834  1.00  0.00     0.074 A 
HETATM    8  C7  UNL     1      19.443   2.908  51.932  1.00  0.00     0.034 A 
HETATM    9  C8  UNL     1      20.584   2.438  52.550  1.00  0.00    -0.009 A 
HETATM   10  O2  UNL     1      18.153   2.306  49.876  1.00  0.00    -0.323 OA
HETATM   11  C9  UNL     1      18.580   2.861  48.607  1.00  0.00     0.139 C 
HETATM   12  C10 UNL     1      19.726   3.390  48.036  1.00  0.00     0.012 C 
HETATM   13  C11 UNL     1      21.011   3.560  48.646  1.00  0.00     0.075 C 
HETATM   14  C12 UNL     1      21.877   2.464  48.181  1.00  0.00     0.133 C 
HETATM   15  N1  UNL     1      23.049   2.209  48.703  1.00  0.00    -0.068 NA
HETATM   16  N2  UNL     1      23.398   2.453  50.121  1.00  0.00     0.246 N 
HETATM   17  C13 UNL     1      23.723   3.861  50.162  1.00  0.00     0.212 C 
HETATM   18  C14 UNL     1      25.130   4.059  49.596  1.00  0.00     0.050 C 
HETATM   19  C15 UNL     1      25.154   5.449  48.989  1.00  0.00     0.012 C 
HETATM   20  C16 UNL     1      23.842   6.003  49.430  1.00  0.00     0.017 C 
HETATM   21  C17 UNL     1      23.869   6.032  50.957  1.00  0.00     0.012 C 
HETATM   22  C18 UNL     1      23.674   4.595  51.421  1.00  0.00     0.050 C 
HETATM   23  C19 UNL     1      22.967   4.779  49.269  1.00  0.00    -0.038 C 
HETATM   24  C20 UNL     1      21.850   4.747  48.476  1.00  0.00    -0.007 C 
ENDROOT
TORSDOF 0
ENDMDL
