MODEL 1
REMARK VINA RESULT:      -8.7      0.000      0.000
REMARK  3 active torsions:
REMARK  status: ('A' for Active; 'I' for Inactive)
REMARK    1  A    between atoms: O1_2  and  C2_3 
REMARK    2  A    between atoms: C6_9  and  O2_10 
REMARK    3  A    between atoms: O2_10  and  C7_11 
ROOT
HETATM    1  C2  UNL     1      19.693  -0.740  53.493  1.00  0.00     0.103 A 
HETATM    2  C3  UNL     1      20.737  -1.225  54.247  1.00  0.00     0.072 A 
HETATM    3  C4  UNL     1      22.016  -0.760  54.030  1.00  0.00     0.075 A 
HETATM    4  N1  UNL     1      22.974  -1.271  54.816  1.00  0.00    -0.241 NA
HETATM    5  C5  UNL     1      24.273  -0.881  54.702  1.00  0.00     0.236 A 
HETATM    6  N2  UNL     1      24.591   0.039  53.774  1.00  0.00    -0.217 NA
HETATM    7  C6  UNL     1      23.667   0.586  52.957  1.00  0.00     0.183 A 
HETATM    8  C16 UNL     1      22.352   0.198  53.071  1.00  0.00     0.049 A 
HETATM    9  C17 UNL     1      21.280   0.672  52.324  1.00  0.00     0.057 A 
HETATM   10  C18 UNL     1      19.968   0.236  52.507  1.00  0.00     0.102 A 
HETATM   11  O4  UNL     1      19.073   0.775  51.751  1.00  0.00    -0.353 OA
HETATM   12  C19 UNL     1      18.250   1.377  50.943  1.00  0.00     0.210 C 
ENDROOT
BRANCH   1  13
HETATM   13  O1  UNL     1      18.354  -1.067  53.535  1.00  0.00    -0.353 OA
HETATM   14  C1  UNL     1      17.850  -2.378  53.545  1.00  0.00     0.210 C 
ENDBRANCH   1  13
BRANCH   7  15
HETATM   15  O2  UNL     1      23.783   1.513  51.959  1.00  0.00    -0.290 OA
BRANCH  15  16
HETATM   16  C7  UNL     1      24.808   2.080  51.403  1.00  0.00     0.086 C 
HETATM   17  C8  UNL     1      25.958   2.494  50.934  1.00  0.00     0.012 C 
HETATM   18  C9  UNL     1      26.684   3.443  50.132  1.00  0.00     0.002 C 
HETATM   19  C10 UNL     1      26.879   4.410  49.326  1.00  0.00     0.026 C 
HETATM   20  C11 UNL     1      27.266   5.481  48.435  1.00  0.00     0.007 C 
HETATM   21  C12 UNL     1      26.673   6.835  48.557  1.00  0.00     0.020 C 
HETATM   22  C13 UNL     1      26.043   7.147  49.918  1.00  0.00     0.124 C 
HETATM   23  N3  UNL     1      25.032   6.099  50.115  1.00  0.00    -0.348 N 
HETATM   24  C14 UNL     1      24.070   5.104  50.308  1.00  0.00     0.291 C 
HETATM   25  H15 UNL     1      24.829   5.524  49.232  1.00  0.00     0.163 HD
HETATM   26  O3  UNL     1      23.905   5.662  51.438  1.00  0.00    -0.255 OA
HETATM   27  N4  UNL     1      23.091   4.229  50.717  1.00  0.00    -0.234 NA
HETATM   28  C15 UNL     1      23.607   3.019  51.145  1.00  0.00     0.263 C 
ENDBRANCH  15  16
ENDBRANCH   7  15
TORSDOF 3
ENDMDL
MODEL 2
REMARK VINA RESULT:      -8.6      2.056      3.218
REMARK  3 active torsions:
REMARK  status: ('A' for Active; 'I' for Inactive)
REMARK    1  A    between atoms: O1_2  and  C2_3 
REMARK    2  A    between atoms: C6_9  and  O2_10 
REMARK    3  A    between atoms: O2_10  and  C7_11 
ROOT
HETATM    1  C2  UNL     1      23.489  -0.335  53.360  1.00  0.00     0.103 A 
HETATM    2  C3  UNL     1      24.769  -0.271  53.860  1.00  0.00     0.072 A 
HETATM    3  C4  UNL     1      25.689   0.583  53.289  1.00  0.00     0.075 A 
HETATM    4  N1  UNL     1      26.909   0.598  53.844  1.00  0.00    -0.241 NA
HETATM    5  C5  UNL     1      27.897   1.407  53.374  1.00  0.00     0.236 A 
HETATM    6  N2  UNL     1      27.631   2.206  52.325  1.00  0.00    -0.217 NA
HETATM    7  C6  UNL     1      26.421   2.231  51.728  1.00  0.00     0.183 A 
HETATM    8  C16 UNL     1      25.418   1.417  52.203  1.00  0.00     0.049 A 
HETATM    9  C17 UNL     1      24.119   1.334  51.717  1.00  0.00     0.057 A 
HETATM   10  C18 UNL     1      23.151   0.490  52.261  1.00  0.00     0.102 A 
HETATM   11  O4  UNL     1      21.983   0.529  51.716  1.00  0.00    -0.353 OA
HETATM   12  C19 UNL     1      20.844   0.642  51.098  1.00  0.00     0.210 C 
ENDROOT
BRANCH   1  13
HETATM   13  O1  UNL     1      22.426  -1.114  53.766  1.00  0.00    -0.353 OA
HETATM   14  C1  UNL     1      21.642  -0.868  54.905  1.00  0.00     0.210 C 
ENDBRANCH   1  13
BRANCH   7  15
HETATM   15  O2  UNL     1      25.957   2.950  50.663  1.00  0.00    -0.290 OA
BRANCH  15  16
HETATM   16  C7  UNL     1      26.495   3.871  49.924  1.00  0.00     0.086 C 
HETATM   17  C8  UNL     1      27.215   4.675  49.183  1.00  0.00     0.012 C 
HETATM   18  C9  UNL     1      27.299   5.891  48.420  1.00  0.00     0.002 C 
HETATM   19  C10 UNL     1      26.910   6.962  47.849  1.00  0.00     0.026 C 
HETATM   20  C11 UNL     1      26.629   8.199  47.156  1.00  0.00     0.007 C 
HETATM   21  C12 UNL     1      25.839   9.277  47.798  1.00  0.00     0.020 C 
HETATM   22  C13 UNL     1      25.772   9.212  49.327  1.00  0.00     0.124 C 
HETATM   23  N3  UNL     1      25.212   7.886  49.623  1.00  0.00    -0.348 N 
HETATM   24  C14 UNL     1      24.680   6.626  49.911  1.00  0.00     0.291 C 
HETATM   25  H15 UNL     1      24.804   7.387  48.765  1.00  0.00     0.163 HD
HETATM   26  O3  UNL     1      24.870   6.964  51.122  1.00  0.00    -0.255 OA
HETATM   27  N4  UNL     1      24.195   5.448  50.429  1.00  0.00    -0.234 NA
HETATM   28  C15 UNL     1      25.111   4.415  50.345  1.00  0.00     0.263 C 
ENDBRANCH  15  16
ENDBRANCH   7  15
TORSDOF 3
ENDMDL
MODEL 3
REMARK VINA RESULT:      -8.2      2.863      7.198
REMARK  3 active torsions:
REMARK  status: ('A' for Active; 'I' for Inactive)
REMARK    1  A    between atoms: O1_2  and  C2_3 
REMARK    2  A    between atoms: C6_9  and  O2_10 
REMARK    3  A    between atoms: O2_10  and  C7_11 
ROOT
HETATM    1  C2  UNL     1      27.211   0.247  53.525  1.00  0.00     0.103 A 
HETATM    2  C3  UNL     1      27.509   1.097  52.485  1.00  0.00     0.072 A 
HETATM    3  C4  UNL     1      26.511   1.848  51.902  1.00  0.00     0.075 A 
HETATM    4  N1  UNL     1      26.887   2.663  50.906  1.00  0.00    -0.241 NA
HETATM    5  C5  UNL     1      25.992   3.460  50.261  1.00  0.00     0.236 A 
HETATM    6  N2  UNL     1      24.703   3.419  50.640  1.00  0.00    -0.217 NA
HETATM    7  C6  UNL     1      24.270   2.618  51.636  1.00  0.00     0.183 A 
HETATM    8  C16 UNL     1      25.172   1.813  52.293  1.00  0.00     0.049 A 
HETATM    9  C17 UNL     1      24.896   0.948  53.345  1.00  0.00     0.057 A 
HETATM   10  C18 UNL     1      25.870   0.170  53.970  1.00  0.00     0.102 A 
HETATM   11  O4  UNL     1      25.472  -0.577  54.943  1.00  0.00    -0.353 OA
HETATM   12  C19 UNL     1      24.969  -1.293  55.907  1.00  0.00     0.210 C 
ENDROOT
BRANCH   1  13
HETATM   13  O1  UNL     1      28.040  -0.592  54.239  1.00  0.00    -0.353 OA
HETATM   14  C1  UNL     1      29.370  -0.887  53.894  1.00  0.00     0.210 C 
ENDBRANCH   1  13
BRANCH   7  15
HETATM   15  O2  UNL     1      23.022   2.424  52.158  1.00  0.00    -0.290 OA
BRANCH  15  16
HETATM   16  C7  UNL     1      22.069   1.593  51.869  1.00  0.00     0.086 C 
HETATM   17  C8  UNL     1      21.267   0.620  51.521  1.00  0.00     0.012 C 
HETATM   18  C9  UNL     1      19.921   0.124  51.401  1.00  0.00     0.002 C 
HETATM   19  C10 UNL     1      18.653   0.095  51.523  1.00  0.00     0.026 C 
HETATM   20  C11 UNL     1      17.220  -0.086  51.579  1.00  0.00     0.007 C 
HETATM   21  C12 UNL     1      16.292   1.003  51.186  1.00  0.00     0.020 C 
HETATM   22  C13 UNL     1      16.904   2.085  50.292  1.00  0.00     0.124 C 
HETATM   23  N3  UNL     1      18.047   2.604  51.056  1.00  0.00    -0.348 N 
HETATM   24  C14 UNL     1      19.136   3.101  51.779  1.00  0.00     0.291 C 
HETATM   25  H15 UNL     1      18.063   2.284  52.081  1.00  0.00     0.163 HD
HETATM   26  O3  UNL     1      19.336   3.809  50.742  1.00  0.00    -0.255 OA
HETATM   27  N4  UNL     1      20.249   3.726  52.289  1.00  0.00    -0.234 NA
HETATM   28  C15 UNL     1      21.377   2.928  52.231  1.00  0.00     0.263 C 
ENDBRANCH  15  16
ENDBRANCH   7  15
TORSDOF 3
ENDMDL
MODEL 4
REMARK VINA RESULT:      -8.2      2.749      6.936
REMARK  3 active torsions:
REMARK  status: ('A' for Active; 'I' for Inactive)
REMARK    1  A    between atoms: O1_2  and  C2_3 
REMARK    2  A    between atoms: C6_9  and  O2_10 
REMARK    3  A    between atoms: O2_10  and  C7_11 
ROOT
HETATM    1  C2  UNL     1      26.705   0.638  53.197  1.00  0.00     0.103 A 
HETATM    2  C3  UNL     1      26.168  -0.182  54.162  1.00  0.00     0.072 A 
HETATM    3  C4  UNL     1      24.803  -0.358  54.234  1.00  0.00     0.075 A 
HETATM    4  N1  UNL     1      24.362  -1.185  55.193  1.00  0.00    -0.241 NA
HETATM    5  C5  UNL     1      23.036  -1.445  55.355  1.00  0.00     0.236 A 
HETATM    6  N2  UNL     1      22.156  -0.852  54.528  1.00  0.00    -0.217 NA
HETATM    7  C6  UNL     1      22.546  -0.012  53.546  1.00  0.00     0.183 A 
HETATM    8  C16 UNL     1      23.885   0.251  53.377  1.00  0.00     0.049 A 
HETATM    9  C17 UNL     1      24.452   1.073  52.410  1.00  0.00     0.057 A 
HETATM   10  C18 UNL     1      25.826   1.282  52.294  1.00  0.00     0.102 A 
HETATM   11  O4  UNL     1      26.211   2.060  51.340  1.00  0.00    -0.353 OA
HETATM   12  C19 UNL     1      26.493   2.858  50.351  1.00  0.00     0.210 C 
ENDROOT
BRANCH   1  13
HETATM   13  O1  UNL     1      28.023   0.961  52.952  1.00  0.00    -0.353 OA
HETATM   14  C1  UNL     1      29.051   0.909  53.909  1.00  0.00     0.210 C 
ENDBRANCH   1  13
BRANCH   7  15
HETATM   15  O2  UNL     1      21.824   0.688  52.622  1.00  0.00    -0.290 OA
BRANCH  15  16
HETATM   16  C7  UNL     1      20.654   0.499  52.095  1.00  0.00     0.086 C 
HETATM   17  C8  UNL     1      19.550   0.114  51.507  1.00  0.00     0.012 C 
HETATM   18  C9  UNL     1      18.189   0.406  51.143  1.00  0.00     0.002 C 
HETATM   19  C10 UNL     1      17.085   1.040  51.094  1.00  0.00     0.026 C 
HETATM   20  C11 UNL     1      15.778   1.637  50.936  1.00  0.00     0.007 C 
HETATM   21  C12 UNL     1      15.624   3.070  50.587  1.00  0.00     0.020 C 
HETATM   22  C13 UNL     1      16.855   3.718  49.946  1.00  0.00     0.124 C 
HETATM   23  N3  UNL     1      17.937   3.515  50.920  1.00  0.00    -0.348 N 
HETATM   24  C14 UNL     1      18.970   3.326  51.842  1.00  0.00     0.291 C 
HETATM   25  H15 UNL     1      17.596   3.179  51.881  1.00  0.00     0.163 HD
HETATM   26  O3  UNL     1      19.692   3.879  50.954  1.00  0.00    -0.255 OA
HETATM   27  N4  UNL     1      20.129   3.242  52.578  1.00  0.00    -0.234 NA
HETATM   28  C15 UNL     1      20.683   1.976  52.552  1.00  0.00     0.263 C 
ENDBRANCH  15  16
ENDBRANCH   7  15
TORSDOF 3
ENDMDL
MODEL 5
REMARK VINA RESULT:      -8.1      2.881      5.425
REMARK  3 active torsions:
REMARK  status: ('A' for Active; 'I' for Inactive)
REMARK    1  A    between atoms: O1_2  and  C2_3 
REMARK    2  A    between atoms: C6_9  and  O2_10 
REMARK    3  A    between atoms: O2_10  and  C7_11 
ROOT
HETATM    1  C2  UNL     1      26.598  -0.243  53.840  1.00  0.00     0.103 A 
HETATM    2  C3  UNL     1      25.347  -0.799  53.703  1.00  0.00     0.072 A 
HETATM    3  C4  UNL     1      24.279  -0.008  53.336  1.00  0.00     0.075 A 
HETATM    4  N1  UNL     1      23.098  -0.629  53.208  1.00  0.00    -0.241 NA
HETATM    5  C5  UNL     1      21.974   0.046  52.841  1.00  0.00     0.236 A 
HETATM    6  N2  UNL     1      22.063   1.367  52.605  1.00  0.00    -0.217 NA
HETATM    7  C6  UNL     1      23.227   2.041  52.718  1.00  0.00     0.183 A 
HETATM    8  C16 UNL     1      24.365   1.363  53.085  1.00  0.00     0.049 A 
HETATM    9  C17 UNL     1      25.639   1.900  53.230  1.00  0.00     0.057 A 
HETATM   10  C18 UNL     1      26.752   1.142  53.596  1.00  0.00     0.102 A 
HETATM   11  O4  UNL     1      27.874   1.772  53.678  1.00  0.00    -0.353 OA
HETATM   12  C19 UNL     1      28.952   2.498  53.732  1.00  0.00     0.210 C 
ENDROOT
BRANCH   1  13
HETATM   13  O1  UNL     1      27.788  -0.838  54.202  1.00  0.00    -0.353 OA
HETATM   14  C1  UNL     1      28.695  -1.425  53.304  1.00  0.00     0.210 C 
ENDBRANCH   1  13
BRANCH   7  15
HETATM   15  O2  UNL     1      23.523   3.362  52.535  1.00  0.00    -0.290 OA
BRANCH  15  16
HETATM   16  C7  UNL     1      22.827   4.366  52.097  1.00  0.00     0.086 C 
HETATM   17  C8  UNL     1      21.967   5.301  51.783  1.00  0.00     0.012 C 
HETATM   18  C9  UNL     1      21.678   6.502  51.045  1.00  0.00     0.002 C 
HETATM   19  C10 UNL     1      21.887   7.517  50.303  1.00  0.00     0.026 C 
HETATM   20  C11 UNL     1      21.958   8.701  49.478  1.00  0.00     0.007 C 
HETATM   21  C12 UNL     1      22.621   8.675  48.151  1.00  0.00     0.020 C 
HETATM   22  C13 UNL     1      22.770   7.284  47.527  1.00  0.00     0.124 C 
HETATM   23  N3  UNL     1      23.523   6.504  48.520  1.00  0.00    -0.348 N 
HETATM   24  C14 UNL     1      24.238   5.757  49.460  1.00  0.00     0.291 C 
HETATM   25  H15 UNL     1      23.954   7.100  49.301  1.00  0.00     0.163 HD
HETATM   26  O3  UNL     1      24.062   4.799  48.643  1.00  0.00    -0.255 OA
HETATM   27  N4  UNL     1      24.907   4.835  50.230  1.00  0.00    -0.234 NA
HETATM   28  C15 UNL     1      24.140   4.369  51.283  1.00  0.00     0.263 C 
ENDBRANCH  15  16
ENDBRANCH   7  15
TORSDOF 3
ENDMDL
MODEL 6
REMARK VINA RESULT:      -7.8      1.444      1.735
REMARK  3 active torsions:
REMARK  status: ('A' for Active; 'I' for Inactive)
REMARK    1  A    between atoms: O1_2  and  C2_3 
REMARK    2  A    between atoms: C6_9  and  O2_10 
REMARK    3  A    between atoms: O2_10  and  C7_11 
ROOT
HETATM    1  C2  UNL     1      19.701   0.581  52.088  1.00  0.00     0.103 A 
HETATM    2  C3  UNL     1      20.694  -0.113  52.740  1.00  0.00     0.072 A 
HETATM    3  C4  UNL     1      22.014   0.242  52.561  1.00  0.00     0.075 A 
HETATM    4  N1  UNL     1      22.918  -0.474  53.245  1.00  0.00    -0.241 NA
HETATM    5  C5  UNL     1      24.250  -0.209  53.156  1.00  0.00     0.236 A 
HETATM    6  N2  UNL     1      24.657   0.795  52.360  1.00  0.00    -0.217 NA
HETATM    7  C6  UNL     1      23.789   1.547  51.650  1.00  0.00     0.183 A 
HETATM    8  C16 UNL     1      22.442   1.285  51.739  1.00  0.00     0.049 A 
HETATM    9  C17 UNL     1      21.421   1.971  51.092  1.00  0.00     0.057 A 
HETATM   10  C18 UNL     1      20.071   1.653  51.242  1.00  0.00     0.102 A 
HETATM   11  O4  UNL     1      19.232   2.385  50.591  1.00  0.00    -0.353 OA
HETATM   12  C19 UNL     1      18.472   3.179  49.895  1.00  0.00     0.210 C 
ENDROOT
BRANCH   1  13
HETATM   13  O1  UNL     1      18.335   0.393  52.114  1.00  0.00    -0.353 OA
HETATM   14  C1  UNL     1      17.629  -0.470  51.260  1.00  0.00     0.210 C 
ENDBRANCH   1  13
BRANCH   7  15
HETATM   15  O2  UNL     1      23.995   2.589  50.790  1.00  0.00    -0.290 OA
BRANCH  15  16
HETATM   16  C7  UNL     1      25.070   3.111  50.285  1.00  0.00     0.086 C 
HETATM   17  C8  UNL     1      26.249   3.450  49.828  1.00  0.00     0.012 C 
HETATM   18  C9  UNL     1      27.074   4.431  49.175  1.00  0.00     0.002 C 
HETATM   19  C10 UNL     1      27.376   5.503  48.557  1.00  0.00     0.026 C 
HETATM   20  C11 UNL     1      27.880   6.666  47.862  1.00  0.00     0.007 C 
HETATM   21  C12 UNL     1      27.497   8.037  48.279  1.00  0.00     0.020 C 
HETATM   22  C13 UNL     1      26.972   8.157  49.713  1.00  0.00     0.124 C 
HETATM   23  N3  UNL     1      25.828   7.236  49.773  1.00  0.00    -0.348 N 
HETATM   24  C14 UNL     1      24.739   6.363  49.837  1.00  0.00     0.291 C 
HETATM   25  H15 UNL     1      25.508   6.880  48.813  1.00  0.00     0.163 HD
HETATM   26  O3  UNL     1      24.701   6.704  51.061  1.00  0.00    -0.255 OA
HETATM   27  N4  UNL     1      23.659   5.565  50.137  1.00  0.00    -0.234 NA
HETATM   28  C15 UNL     1      24.010   4.236  50.291  1.00  0.00     0.263 C 
ENDBRANCH  15  16
ENDBRANCH   7  15
TORSDOF 3
ENDMDL
MODEL 7
REMARK VINA RESULT:      -7.6      1.564      2.274
REMARK  3 active torsions:
REMARK  status: ('A' for Active; 'I' for Inactive)
REMARK    1  A    between atoms: O1_2  and  C2_3 
REMARK    2  A    between atoms: C6_9  and  O2_10 
REMARK    3  A    between atoms: O2_10  and  C7_11 
ROOT
HETATM    1  C2  UNL     1      18.621  -0.511  52.387  1.00  0.00     0.103 A 
HETATM    2  C3  UNL     1      19.285  -1.116  53.429  1.00  0.00     0.072 A 
HETATM    3  C4  UNL     1      20.617  -0.839  53.649  1.00  0.00     0.075 A 
HETATM    4  N1  UNL     1      21.186  -1.457  54.694  1.00  0.00    -0.241 NA
HETATM    5  C5  UNL     1      22.493  -1.254  55.016  1.00  0.00     0.236 A 
HETATM    6  N2  UNL     1      23.221  -0.413  54.260  1.00  0.00    -0.217 NA
HETATM    7  C6  UNL     1      22.698   0.235  53.198  1.00  0.00     0.183 A 
HETATM    8  C16 UNL     1      21.377   0.036  52.871  1.00  0.00     0.049 A 
HETATM    9  C17 UNL     1      20.683   0.635  51.826  1.00  0.00     0.057 A 
HETATM   10  C18 UNL     1      19.335   0.390  51.563  1.00  0.00     0.102 A 
HETATM   11  O4  UNL     1      18.819   1.028  50.568  1.00  0.00    -0.353 OA
HETATM   12  C19 UNL     1      18.396   1.716  49.549  1.00  0.00     0.210 C 
ENDROOT
BRANCH   1  13
HETATM   13  O1  UNL     1      17.309  -0.648  51.985  1.00  0.00    -0.353 OA
HETATM   14  C1  UNL     1      16.195  -0.535  52.833  1.00  0.00     0.210 C 
ENDBRANCH   1  13
BRANCH   7  15
HETATM   15  O2  UNL     1      23.260   1.109  52.311  1.00  0.00    -0.290 OA
BRANCH  15  16
HETATM   16  C7  UNL     1      23.110   2.383  52.118  1.00  0.00     0.086 C 
HETATM   17  C8  UNL     1      22.751   3.633  51.973  1.00  0.00     0.012 C 
HETATM   18  C9  UNL     1      23.126   4.989  51.676  1.00  0.00     0.002 C 
HETATM   19  C10 UNL     1      23.886   5.981  51.423  1.00  0.00     0.026 C 
HETATM   20  C11 UNL     1      24.606   7.198  51.125  1.00  0.00     0.007 C 
HETATM   21  C12 UNL     1      25.651   7.235  50.073  1.00  0.00     0.020 C 
HETATM   22  C13 UNL     1      25.573   6.107  49.040  1.00  0.00     0.124 C 
HETATM   23  N3  UNL     1      25.647   4.868  49.828  1.00  0.00    -0.348 N 
HETATM   24  C14 UNL     1      25.717   3.687  50.572  1.00  0.00     0.291 C 
HETATM   25  H15 UNL     1      25.937   5.023  50.850  1.00  0.00     0.163 HD
HETATM   26  O3  UNL     1      25.553   3.120  49.446  1.00  0.00    -0.255 OA
HETATM   27  N4  UNL     1      25.751   2.413  51.089  1.00  0.00    -0.234 NA
HETATM   28  C15 UNL     1      24.559   2.054  51.690  1.00  0.00     0.263 C 
ENDBRANCH  15  16
ENDBRANCH   7  15
TORSDOF 3
ENDMDL
MODEL 8
REMARK VINA RESULT:      -7.5      2.257      8.046
REMARK  3 active torsions:
REMARK  status: ('A' for Active; 'I' for Inactive)
REMARK    1  A    between atoms: O1_2  and  C2_3 
REMARK    2  A    between atoms: C6_9  and  O2_10 
REMARK    3  A    between atoms: O2_10  and  C7_11 
ROOT
HETATM    1  C2  UNL     1      24.162   7.870  48.378  1.00  0.00     0.103 A 
HETATM    2  C3  UNL     1      25.467   7.552  48.085  1.00  0.00     0.072 A 
HETATM    3  C4  UNL     1      26.007   6.369  48.544  1.00  0.00     0.075 A 
HETATM    4  N1  UNL     1      27.280   6.126  48.201  1.00  0.00    -0.241 NA
HETATM    5  C5  UNL     1      27.917   4.987  48.587  1.00  0.00     0.236 A 
HETATM    6  N2  UNL     1      27.243   4.092  49.331  1.00  0.00    -0.217 NA
HETATM    7  C6  UNL     1      25.960   4.286  49.703  1.00  0.00     0.183 A 
HETATM    8  C16 UNL     1      25.312   5.434  49.312  1.00  0.00     0.049 A 
HETATM    9  C17 UNL     1      23.995   5.779  49.594  1.00  0.00     0.057 A 
HETATM   10  C18 UNL     1      23.402   6.961  49.151  1.00  0.00     0.102 A 
HETATM   11  O4  UNL     1      22.168   7.142  49.477  1.00  0.00    -0.353 OA
HETATM   12  C19 UNL     1      20.926   7.229  49.858  1.00  0.00     0.210 C 
ENDROOT
BRANCH   1  13
HETATM   13  O1  UNL     1      23.432   8.989  48.034  1.00  0.00    -0.353 OA
HETATM   14  C1  UNL     1      23.338   9.515  46.734  1.00  0.00     0.210 C 
ENDBRANCH   1  13
BRANCH   7  15
HETATM   15  O2  UNL     1      25.115   3.518  50.453  1.00  0.00    -0.290 OA
BRANCH  15  16
HETATM   16  C7  UNL     1      25.302   2.463  51.183  1.00  0.00     0.086 C 
HETATM   17  C8  UNL     1      25.678   1.378  51.813  1.00  0.00     0.012 C 
HETATM   18  C9  UNL     1      25.404   0.391  52.822  1.00  0.00     0.002 C 
HETATM   19  C10 UNL     1      24.806  -0.179  53.793  1.00  0.00     0.026 C 
HETATM   20  C11 UNL     1      24.244  -0.946  54.881  1.00  0.00     0.007 C 
HETATM   21  C12 UNL     1      22.794  -1.253  54.937  1.00  0.00     0.020 C 
HETATM   22  C13 UNL     1      22.057  -1.148  53.599  1.00  0.00     0.124 C 
HETATM   23  N3  UNL     1      22.298   0.228  53.142  1.00  0.00    -0.348 N 
HETATM   24  C14 UNL     1      22.524   1.535  52.702  1.00  0.00     0.291 C 
HETATM   25  H15 UNL     1      22.720   0.865  53.895  1.00  0.00     0.163 HD
HETATM   26  O3  UNL     1      21.878   1.163  51.672  1.00  0.00    -0.255 OA
HETATM   27  N4  UNL     1      22.625   2.751  52.068  1.00  0.00    -0.234 NA
HETATM   28  C15 UNL     1      23.866   2.946  51.490  1.00  0.00     0.263 C 
ENDBRANCH  15  16
ENDBRANCH   7  15
TORSDOF 3
ENDMDL
MODEL 9
REMARK VINA RESULT:      -7.4      5.383      9.052
REMARK  3 active torsions:
REMARK  status: ('A' for Active; 'I' for Inactive)
REMARK    1  A    between atoms: O1_2  and  C2_3 
REMARK    2  A    between atoms: C6_9  and  O2_10 
REMARK    3  A    between atoms: O2_10  and  C7_11 
ROOT
HETATM    1  C2  UNL     1      24.440   5.024  49.136  1.00  0.00     0.103 A 
HETATM    2  C3  UNL     1      24.189   6.122  48.346  1.00  0.00     0.072 A 
HETATM    3  C4  UNL     1      25.236   6.888  47.880  1.00  0.00     0.075 A 
HETATM    4  N1  UNL     1      24.908   7.931  47.104  1.00  0.00    -0.241 NA
HETATM    5  C5  UNL     1      25.856   8.753  46.577  1.00  0.00     0.236 A 
HETATM    6  N2  UNL     1      27.149   8.504  46.850  1.00  0.00    -0.217 NA
HETATM    7  C6  UNL     1      27.535   7.469  47.625  1.00  0.00     0.183 A 
HETATM    8  C16 UNL     1      26.581   6.633  48.157  1.00  0.00     0.049 A 
HETATM    9  C17 UNL     1      26.808   5.519  48.956  1.00  0.00     0.057 A 
HETATM   10  C18 UNL     1      25.784   4.710  49.449  1.00  0.00     0.102 A 
HETATM   11  O4  UNL     1      26.144   3.701  50.167  1.00  0.00    -0.353 OA
HETATM   12  C19 UNL     1      26.611   2.715  50.875  1.00  0.00     0.210 C 
ENDROOT
BRANCH   1  13
HETATM   13  O1  UNL     1      23.556   4.136  49.711  1.00  0.00    -0.353 OA
HETATM   14  C1  UNL     1      22.197   4.027  49.374  1.00  0.00     0.210 C 
ENDBRANCH   1  13
BRANCH   7  15
HETATM   15  O2  UNL     1      28.775   7.057  48.025  1.00  0.00    -0.290 OA
BRANCH  15  16
HETATM   16  C7  UNL     1      29.971   7.471  47.742  1.00  0.00     0.086 C 
HETATM   17  C8  UNL     1      31.082   8.009  47.305  1.00  0.00     0.012 C 
HETATM   18  C9  UNL     1      32.510   8.134  47.419  1.00  0.00     0.002 C 
HETATM   19  C10 UNL     1      33.679   7.978  47.902  1.00  0.00     0.026 C 
HETATM   20  C11 UNL     1      35.061   7.891  48.318  1.00  0.00     0.007 C 
HETATM   21  C12 UNL     1      35.675   6.591  48.681  1.00  0.00     0.020 C 
HETATM   22  C13 UNL     1      34.949   5.357  48.138  1.00  0.00     0.124 C 
HETATM   23  N3  UNL     1      33.578   5.467  48.655  1.00  0.00    -0.348 N 
HETATM   24  C14 UNL     1      32.272   5.567  49.144  1.00  0.00     0.291 C 
HETATM   25  H15 UNL     1      33.462   6.214  49.417  1.00  0.00     0.163 HD
HETATM   26  O3  UNL     1      32.071   4.517  48.456  1.00  0.00    -0.255 OA
HETATM   27  N4  UNL     1      30.946   5.464  49.491  1.00  0.00    -0.234 NA
HETATM   28  C15 UNL     1      30.144   6.344  48.786  1.00  0.00     0.263 C 
ENDBRANCH  15  16
ENDBRANCH   7  15
TORSDOF 3
ENDMDL
