MODEL 1
REMARK VINA RESULT:      -7.8      0.000      0.000
REMARK  6 active torsions:
REMARK  status: ('A' for Active; 'I' for Inactive)
REMARK    1  A    between atoms: N1_1  and  C1_2 
REMARK    2  A    between atoms: C4_5  and  N2_6 
REMARK    3  A    between atoms: N2_6  and  C5_7 
REMARK    4  A    between atoms: C6_8  and  C7_9 
REMARK    5  A    between atoms: C7_9  and  N3_10 
REMARK    6  A    between atoms: N3_10  and  C8_11 
ROOT
HETATM    1  C5  UNL     1      26.148   2.743  51.407  1.00  0.00     0.077 A 
HETATM    2  C6  UNL     1      24.861   2.858  51.200  1.00  0.00     0.080 A 
HETATM    3  N4  UNL     1      25.180   3.526  49.986  1.00  0.00    -0.259 NA
HETATM    4  C14 UNL     1      26.448   3.430  50.156  1.00  0.00     0.148 A 
ENDROOT
BRANCH   1   5
HETATM    5  N2  UNL     1      26.851   2.146  52.488  1.00  0.00    -0.353 N 
HETATM    6  H5  UNL     1      27.209   2.509  53.394  1.00  0.00     0.166 HD
BRANCH   5   7
HETATM    7  C4  UNL     1      27.304   0.809  52.679  1.00  0.00     0.032 A 
HETATM    8  C3  UNL     1      26.543  -0.253  52.262  1.00  0.00     0.031 A 
HETATM    9  C2  UNL     1      26.906  -1.588  52.407  1.00  0.00     0.031 A 
HETATM   10  C1  UNL     1      28.105  -1.867  53.007  1.00  0.00     0.025 A 
HETATM   11  C16 UNL     1      28.902  -0.826  53.440  1.00  0.00     0.031 A 
HETATM   12  C15 UNL     1      28.516   0.497  53.282  1.00  0.00     0.031 A 
BRANCH  10  13
HETATM   13  N1  UNL     1      28.595  -3.200  53.215  1.00  0.00    -0.399 N 
HETATM   14  H1  UNL     1      28.662  -3.478  54.234  1.00  0.00     0.156 HD
HETATM   15  H2  UNL     1      28.834  -3.761  52.369  1.00  0.00     0.156 HD
ENDBRANCH  10  13
ENDBRANCH   5   7
ENDBRANCH   1   5
BRANCH   2  16
HETATM   16  C7  UNL     1      23.569   2.527  51.806  1.00  0.00     0.181 C 
BRANCH  16  17
HETATM   17  N3  UNL     1      23.088   1.200  51.501  1.00  0.00    -0.384 N 
HETATM   18  H8  UNL     1      23.185   0.814  50.552  1.00  0.00     0.160 HD
BRANCH  17  19
HETATM   19  C8  UNL     1      22.473   0.414  52.523  1.00  0.00     0.029 A 
HETATM   20  C9  UNL     1      23.214  -0.087  53.561  1.00  0.00     0.029 A 
HETATM   21  C10 UNL     1      22.644  -0.857  54.572  1.00  0.00     0.004 A 
HETATM   22  C11 UNL     1      21.290  -1.122  54.524  1.00  0.00     0.024 A 
HETATM   23  C12 UNL     1      20.552  -0.615  53.476  1.00  0.00     0.036 A 
HETATM   24 CL1  UNL     1      18.825  -0.874  53.291  1.00  0.00    -0.084 Cl
HETATM   25  C13 UNL     1      21.105   0.153  52.463  1.00  0.00     0.052 A 
ENDBRANCH  17  19
ENDBRANCH  16  17
ENDBRANCH   2  16
TORSDOF 6
ENDMDL
MODEL 2
REMARK VINA RESULT:      -7.8      1.364      1.709
REMARK  6 active torsions:
REMARK  status: ('A' for Active; 'I' for Inactive)
REMARK    1  A    between atoms: N1_1  and  C1_2 
REMARK    2  A    between atoms: C4_5  and  N2_6 
REMARK    3  A    between atoms: N2_6  and  C5_7 
REMARK    4  A    between atoms: C6_8  and  C7_9 
REMARK    5  A    between atoms: C7_9  and  N3_10 
REMARK    6  A    between atoms: N3_10  and  C8_11 
ROOT
HETATM    1  C5  UNL     1      26.171   2.752  51.426  1.00  0.00     0.077 A 
HETATM    2  C6  UNL     1      24.885   2.978  51.356  1.00  0.00     0.080 A 
HETATM    3  N4  UNL     1      25.113   3.515  50.059  1.00  0.00    -0.259 NA
HETATM    4  C14 UNL     1      26.379   3.308  50.094  1.00  0.00     0.148 A 
ENDROOT
BRANCH   1   5
HETATM    5  N2  UNL     1      26.943   2.175  52.470  1.00  0.00    -0.353 N 
HETATM    6  H5  UNL     1      27.386   2.561  53.328  1.00  0.00     0.166 HD
BRANCH   5   7
HETATM    7  C4  UNL     1      27.369   0.831  52.679  1.00  0.00     0.032 A 
HETATM    8  C3  UNL     1      26.649  -0.217  52.166  1.00  0.00     0.031 A 
HETATM    9  C2  UNL     1      26.989  -1.558  52.321  1.00  0.00     0.031 A 
HETATM   10  C1  UNL     1      28.120  -1.856  53.033  1.00  0.00     0.025 A 
HETATM   11  C16 UNL     1      28.873  -0.828  53.566  1.00  0.00     0.031 A 
HETATM   12  C15 UNL     1      28.511   0.500  53.396  1.00  0.00     0.031 A 
BRANCH  10  13
HETATM   13  N1  UNL     1      28.580  -3.196  53.263  1.00  0.00    -0.399 N 
HETATM   14  H1  UNL     1      27.807  -3.918  53.280  1.00  0.00     0.156 HD
HETATM   15  H2  UNL     1      29.606  -3.336  53.390  1.00  0.00     0.156 HD
ENDBRANCH  10  13
ENDBRANCH   5   7
ENDBRANCH   1   5
BRANCH   2  16
HETATM   16  C7  UNL     1      23.650   2.824  52.130  1.00  0.00     0.181 C 
BRANCH  16  17
HETATM   17  N3  UNL     1      22.832   1.702  51.733  1.00  0.00    -0.384 N 
HETATM   18  H8  UNL     1      22.471   1.631  50.771  1.00  0.00     0.160 HD
BRANCH  17  19
HETATM   19  C8  UNL     1      22.520   0.679  52.681  1.00  0.00     0.029 A 
HETATM   20  C9  UNL     1      21.254   0.161  52.758  1.00  0.00     0.029 A 
HETATM   21  C10 UNL     1      20.919  -0.837  53.671  1.00  0.00     0.004 A 
HETATM   22  C11 UNL     1      21.893  -1.315  54.522  1.00  0.00     0.024 A 
HETATM   23  C12 UNL     1      23.165  -0.787  54.438  1.00  0.00     0.036 A 
HETATM   24 CL1  UNL     1      24.498  -1.302  55.459  1.00  0.00    -0.084 Cl
HETATM   25  C13 UNL     1      23.514   0.204  53.536  1.00  0.00     0.052 A 
ENDBRANCH  17  19
ENDBRANCH  16  17
ENDBRANCH   2  16
TORSDOF 6
ENDMDL
MODEL 3
REMARK VINA RESULT:      -7.5      1.807      4.552
REMARK  6 active torsions:
REMARK  status: ('A' for Active; 'I' for Inactive)
REMARK    1  A    between atoms: N1_1  and  C1_2 
REMARK    2  A    between atoms: C4_5  and  N2_6 
REMARK    3  A    between atoms: N2_6  and  C5_7 
REMARK    4  A    between atoms: C6_8  and  C7_9 
REMARK    5  A    between atoms: C7_9  and  N3_10 
REMARK    6  A    between atoms: N3_10  and  C8_11 
ROOT
HETATM    1  C5  UNL     1      27.871   0.995  53.527  1.00  0.00     0.077 A 
HETATM    2  C6  UNL     1      27.302  -0.136  53.856  1.00  0.00     0.080 A 
HETATM    3  N4  UNL     1      28.395  -0.357  54.739  1.00  0.00    -0.259 NA
HETATM    4  C14 UNL     1      28.981   0.744  54.439  1.00  0.00     0.148 A 
ENDROOT
BRANCH   1   5
HETATM    5  N2  UNL     1      27.453   1.997  52.610  1.00  0.00    -0.353 N 
HETATM    6  H5  UNL     1      27.964   2.638  51.971  1.00  0.00     0.166 HD
BRANCH   5   7
HETATM    7  C4  UNL     1      26.149   2.455  52.263  1.00  0.00     0.032 A 
HETATM    8  C3  UNL     1      25.783   2.587  50.948  1.00  0.00     0.031 A 
HETATM    9  C2  UNL     1      24.534   3.027  50.518  1.00  0.00     0.031 A 
HETATM   10  C1  UNL     1      23.604   3.350  51.469  1.00  0.00     0.025 A 
HETATM   11  C16 UNL     1      23.934   3.230  52.805  1.00  0.00     0.031 A 
HETATM   12  C15 UNL     1      25.186   2.789  53.206  1.00  0.00     0.031 A 
BRANCH  10  13
HETATM   13  N1  UNL     1      22.281   3.813  51.158  1.00  0.00    -0.399 N 
HETATM   14  H1  UNL     1      21.728   3.151  50.546  1.00  0.00     0.156 HD
HETATM   15  H2  UNL     1      21.991   4.735  51.551  1.00  0.00     0.156 HD
ENDBRANCH  10  13
ENDBRANCH   5   7
ENDBRANCH   1   5
BRANCH   2  16
HETATM   16  C7  UNL     1      26.118  -0.951  53.567  1.00  0.00     0.181 C 
BRANCH  16  17
HETATM   17  N3  UNL     1      25.104  -0.916  54.595  1.00  0.00    -0.384 N 
HETATM   18  H8  UNL     1      25.365  -0.961  55.590  1.00  0.00     0.160 HD
BRANCH  17  19
HETATM   19  C8  UNL     1      23.726  -0.819  54.231  1.00  0.00     0.029 A 
HETATM   20  C9  UNL     1      22.744  -1.191  55.111  1.00  0.00     0.029 A 
HETATM   21  C10 UNL     1      21.392  -1.109  54.786  1.00  0.00     0.004 A 
HETATM   22  C11 UNL     1      21.034  -0.637  53.540  1.00  0.00     0.024 A 
HETATM   23  C12 UNL     1      22.029  -0.265  52.660  1.00  0.00     0.036 A 
HETATM   24 CL1  UNL     1      21.716   0.350  51.046  1.00  0.00    -0.084 Cl
HETATM   25  C13 UNL     1      23.377  -0.342  52.969  1.00  0.00     0.052 A 
ENDBRANCH  17  19
ENDBRANCH  16  17
ENDBRANCH   2  16
TORSDOF 6
ENDMDL
MODEL 4
REMARK VINA RESULT:      -7.4      2.181      4.985
REMARK  6 active torsions:
REMARK  status: ('A' for Active; 'I' for Inactive)
REMARK    1  A    between atoms: N1_1  and  C1_2 
REMARK    2  A    between atoms: C4_5  and  N2_6 
REMARK    3  A    between atoms: N2_6  and  C5_7 
REMARK    4  A    between atoms: C6_8  and  C7_9 
REMARK    5  A    between atoms: C7_9  and  N3_10 
REMARK    6  A    between atoms: N3_10  and  C8_11 
ROOT
HETATM    1  C5  UNL     1      27.459   0.127  54.145  1.00  0.00     0.077 A 
HETATM    2  C6  UNL     1      27.618   1.284  53.556  1.00  0.00     0.080 A 
HETATM    3  N4  UNL     1      28.760   1.476  54.381  1.00  0.00    -0.259 NA
HETATM    4  C14 UNL     1      28.634   0.348  54.980  1.00  0.00     0.148 A 
ENDROOT
BRANCH   1   5
HETATM    5  N2  UNL     1      26.468  -0.872  53.947  1.00  0.00    -0.353 N 
HETATM    6  H5  UNL     1      26.502  -1.855  53.610  1.00  0.00     0.166 HD
BRANCH   5   7
HETATM    7  C4  UNL     1      25.059  -0.841  54.158  1.00  0.00     0.032 A 
HETATM    8  C3  UNL     1      24.217  -0.369  53.183  1.00  0.00     0.031 A 
HETATM    9  C2  UNL     1      22.833  -0.301  53.302  1.00  0.00     0.031 A 
HETATM   10  C1  UNL     1      22.266  -0.734  54.472  1.00  0.00     0.025 A 
HETATM   11  C16 UNL     1      23.079  -1.217  55.478  1.00  0.00     0.031 A 
HETATM   12  C15 UNL     1      24.457  -1.274  55.333  1.00  0.00     0.031 A 
BRANCH  10  13
HETATM   13  N1  UNL     1      20.853  -0.718  54.720  1.00  0.00    -0.399 N 
HETATM   14  H1  UNL     1      20.552  -0.008  55.444  1.00  0.00     0.156 HD
HETATM   15  H2  UNL     1      20.263  -1.388  54.180  1.00  0.00     0.156 HD
ENDBRANCH  10  13
ENDBRANCH   5   7
ENDBRANCH   1   5
BRANCH   2  16
HETATM   16  C7  UNL     1      27.019   2.139  52.528  1.00  0.00     0.181 C 
BRANCH  16  17
HETATM   17  N3  UNL     1      25.807   2.807  52.939  1.00  0.00    -0.384 N 
HETATM   18  H8  UNL     1      25.708   3.170  53.898  1.00  0.00     0.160 HD
BRANCH  17  19
HETATM   19  C8  UNL     1      24.733   2.969  52.010  1.00  0.00     0.029 A 
HETATM   20  C9  UNL     1      24.951   2.850  50.663  1.00  0.00     0.029 A 
HETATM   21  C10 UNL     1      23.925   3.002  49.733  1.00  0.00     0.004 A 
HETATM   22  C11 UNL     1      22.652   3.282  50.186  1.00  0.00     0.024 A 
HETATM   23  C12 UNL     1      22.442   3.400  51.543  1.00  0.00     0.036 A 
HETATM   24 CL1  UNL     1      20.876   3.753  52.255  1.00  0.00    -0.084 Cl
HETATM   25  C13 UNL     1      23.451   3.251  52.480  1.00  0.00     0.052 A 
ENDBRANCH  17  19
ENDBRANCH  16  17
ENDBRANCH   2  16
TORSDOF 6
ENDMDL
MODEL 5
REMARK VINA RESULT:      -7.4      2.526      5.904
REMARK  6 active torsions:
REMARK  status: ('A' for Active; 'I' for Inactive)
REMARK    1  A    between atoms: N1_1  and  C1_2 
REMARK    2  A    between atoms: C4_5  and  N2_6 
REMARK    3  A    between atoms: N2_6  and  C5_7 
REMARK    4  A    between atoms: C6_8  and  C7_9 
REMARK    5  A    between atoms: C7_9  and  N3_10 
REMARK    6  A    between atoms: N3_10  and  C8_11 
ROOT
HETATM    1  C5  UNL     1      23.525   2.820  52.379  1.00  0.00     0.077 A 
HETATM    2  C6  UNL     1      24.411   3.290  51.539  1.00  0.00     0.080 A 
HETATM    3  N4  UNL     1      23.671   4.504  51.535  1.00  0.00    -0.259 NA
HETATM    4  C14 UNL     1      22.785   4.076  52.357  1.00  0.00     0.148 A 
ENDROOT
BRANCH   1   5
HETATM    5  N2  UNL     1      23.440   1.545  53.001  1.00  0.00    -0.353 N 
HETATM    6  H5  UNL     1      24.145   0.908  53.424  1.00  0.00     0.166 HD
BRANCH   5   7
HETATM    7  C4  UNL     1      22.317   0.706  53.253  1.00  0.00     0.032 A 
HETATM    8  C3  UNL     1      21.144   0.882  52.563  1.00  0.00     0.031 A 
HETATM    9  C2  UNL     1      20.000   0.112  52.744  1.00  0.00     0.031 A 
HETATM   10  C1  UNL     1      20.042  -0.894  53.673  1.00  0.00     0.025 A 
HETATM   11  C16 UNL     1      21.204  -1.104  54.388  1.00  0.00     0.031 A 
HETATM   12  C15 UNL     1      22.331  -0.321  54.188  1.00  0.00     0.031 A 
BRANCH  10  13
HETATM   13  N1  UNL     1      18.932  -1.759  53.953  1.00  0.00    -0.399 N 
HETATM   14  H1  UNL     1      18.108  -1.269  54.400  1.00  0.00     0.156 HD
HETATM   15  H2  UNL     1      19.032  -2.766  53.699  1.00  0.00     0.156 HD
ENDBRANCH  10  13
ENDBRANCH   5   7
ENDBRANCH   1   5
BRANCH   2  16
HETATM   16  C7  UNL     1      25.635   2.906  50.830  1.00  0.00     0.181 C 
BRANCH  16  17
HETATM   17  N3  UNL     1      26.846   3.065  51.601  1.00  0.00    -0.384 N 
HETATM   18  H8  UNL     1      27.357   3.960  51.596  1.00  0.00     0.160 HD
BRANCH  17  19
HETATM   19  C8  UNL     1      27.342   1.975  52.380  1.00  0.00     0.029 A 
HETATM   20  C9  UNL     1      28.255   2.188  53.379  1.00  0.00     0.029 A 
HETATM   21  C10 UNL     1      28.758   1.146  54.155  1.00  0.00     0.004 A 
HETATM   22  C11 UNL     1      28.321  -0.139  53.907  1.00  0.00     0.024 A 
HETATM   23  C12 UNL     1      27.403  -0.345  52.899  1.00  0.00     0.036 A 
HETATM   24 CL1  UNL     1      26.764  -1.925  52.477  1.00  0.00    -0.084 Cl
HETATM   25  C13 UNL     1      26.894   0.681  52.119  1.00  0.00     0.052 A 
ENDBRANCH  17  19
ENDBRANCH  16  17
ENDBRANCH   2  16
TORSDOF 6
ENDMDL
MODEL 6
REMARK VINA RESULT:      -7.3      1.957      2.677
REMARK  6 active torsions:
REMARK  status: ('A' for Active; 'I' for Inactive)
REMARK    1  A    between atoms: N1_1  and  C1_2 
REMARK    2  A    between atoms: C4_5  and  N2_6 
REMARK    3  A    between atoms: N2_6  and  C5_7 
REMARK    4  A    between atoms: C6_8  and  C7_9 
REMARK    5  A    between atoms: C7_9  and  N3_10 
REMARK    6  A    between atoms: N3_10  and  C8_11 
ROOT
HETATM    1  C5  UNL     1      23.762   3.842  52.073  1.00  0.00     0.077 A 
HETATM    2  C6  UNL     1      22.636   3.366  51.608  1.00  0.00     0.080 A 
HETATM    3  N4  UNL     1      21.977   4.417  52.303  1.00  0.00    -0.259 NA
HETATM    4  C14 UNL     1      23.063   4.911  52.776  1.00  0.00     0.148 A 
ENDROOT
BRANCH   1   5
HETATM    5  N2  UNL     1      25.096   3.388  51.883  1.00  0.00    -0.353 N 
HETATM    6  H5  UNL     1      25.900   3.747  51.331  1.00  0.00     0.166 HD
BRANCH   5   7
HETATM    7  C4  UNL     1      25.777   2.255  52.412  1.00  0.00     0.032 A 
HETATM    8  C3  UNL     1      26.165   1.227  51.591  1.00  0.00     0.031 A 
HETATM    9  C2  UNL     1      26.833   0.084  52.020  1.00  0.00     0.031 A 
HETATM   10  C1  UNL     1      27.126  -0.027  53.354  1.00  0.00     0.025 A 
HETATM   11  C16 UNL     1      26.753   0.987  54.214  1.00  0.00     0.031 A 
HETATM   12  C15 UNL     1      26.088   2.116  53.759  1.00  0.00     0.031 A 
BRANCH  10  13
HETATM   13  N1  UNL     1      27.812  -1.152  53.923  1.00  0.00    -0.399 N 
HETATM   14  H1  UNL     1      27.762  -1.196  54.979  1.00  0.00     0.156 HD
HETATM   15  H2  UNL     1      28.284  -1.809  53.265  1.00  0.00     0.156 HD
ENDBRANCH  10  13
ENDBRANCH   5   7
ENDBRANCH   1   5
BRANCH   2  16
HETATM   16  C7  UNL     1      22.107   2.287  50.769  1.00  0.00     0.181 C 
BRANCH  16  17
HETATM   17  N3  UNL     1      22.596   0.971  51.110  1.00  0.00    -0.384 N 
HETATM   18  H8  UNL     1      23.224   0.464  50.471  1.00  0.00     0.160 HD
BRANCH  17  19
HETATM   19  C8  UNL     1      22.207   0.365  52.345  1.00  0.00     0.029 A 
HETATM   20  C9  UNL     1      20.884   0.270  52.690  1.00  0.00     0.029 A 
HETATM   21  C10 UNL     1      20.474  -0.314  53.885  1.00  0.00     0.004 A 
HETATM   22  C11 UNL     1      21.430  -0.811  54.747  1.00  0.00     0.024 A 
HETATM   23  C12 UNL     1      22.759  -0.710  54.392  1.00  0.00     0.036 A 
HETATM   24 CL1  UNL     1      24.077  -1.299  55.392  1.00  0.00    -0.084 Cl
HETATM   25  C13 UNL     1      23.183  -0.132  53.207  1.00  0.00     0.052 A 
ENDBRANCH  17  19
ENDBRANCH  16  17
ENDBRANCH   2  16
TORSDOF 6
ENDMDL
MODEL 7
REMARK VINA RESULT:      -7.3      4.018      6.610
REMARK  6 active torsions:
REMARK  status: ('A' for Active; 'I' for Inactive)
REMARK    1  A    between atoms: N1_1  and  C1_2 
REMARK    2  A    between atoms: C4_5  and  N2_6 
REMARK    3  A    between atoms: N2_6  and  C5_7 
REMARK    4  A    between atoms: C6_8  and  C7_9 
REMARK    5  A    between atoms: C7_9  and  N3_10 
REMARK    6  A    between atoms: N3_10  and  C8_11 
ROOT
HETATM    1  C5  UNL     1      25.310   2.645  52.160  1.00  0.00     0.077 A 
HETATM    2  C6  UNL     1      24.932   3.040  50.971  1.00  0.00     0.080 A 
HETATM    3  N4  UNL     1      23.641   3.262  51.524  1.00  0.00    -0.259 NA
HETATM    4  C14 UNL     1      23.977   2.882  52.702  1.00  0.00     0.148 A 
ENDROOT
BRANCH   1   5
HETATM    5  N2  UNL     1      26.576   2.185  52.612  1.00  0.00    -0.353 N 
HETATM    6  H5  UNL     1      27.434   2.669  52.946  1.00  0.00     0.166 HD
BRANCH   5   7
HETATM    7  C4  UNL     1      27.089   0.865  52.756  1.00  0.00     0.032 A 
HETATM    8  C3  UNL     1      26.324  -0.223  52.419  1.00  0.00     0.031 A 
HETATM    9  C2  UNL     1      26.743  -1.545  52.526  1.00  0.00     0.031 A 
HETATM   10  C1  UNL     1      28.005  -1.783  53.001  1.00  0.00     0.025 A 
HETATM   11  C16 UNL     1      28.808  -0.716  53.351  1.00  0.00     0.031 A 
HETATM   12  C15 UNL     1      28.365   0.593  53.234  1.00  0.00     0.031 A 
BRANCH  10  13
HETATM   13  N1  UNL     1      28.556  -3.099  53.159  1.00  0.00    -0.399 N 
HETATM   14  H1  UNL     1      28.482  -3.480  54.143  1.00  0.00     0.156 HD
HETATM   15  H2  UNL     1      28.969  -3.551  52.314  1.00  0.00     0.156 HD
ENDBRANCH  10  13
ENDBRANCH   5   7
ENDBRANCH   1   5
BRANCH   2  16
HETATM   16  C7  UNL     1      25.442   3.230  49.611  1.00  0.00     0.181 C 
BRANCH  16  17
HETATM   17  N3  UNL     1      26.807   3.694  49.544  1.00  0.00    -0.384 N 
HETATM   18  H8  UNL     1      27.572   3.133  49.945  1.00  0.00     0.160 HD
BRANCH  17  19
HETATM   19  C8  UNL     1      27.104   4.944  48.917  1.00  0.00     0.029 A 
HETATM   20  C9  UNL     1      26.129   5.891  48.751  1.00  0.00     0.029 A 
HETATM   21  C10 UNL     1      26.387   7.118  48.143  1.00  0.00     0.004 A 
HETATM   22  C11 UNL     1      27.665   7.384  47.696  1.00  0.00     0.024 A 
HETATM   23  C12 UNL     1      28.640   6.424  47.866  1.00  0.00     0.036 A 
HETATM   24 CL1  UNL     1      30.304   6.629  47.345  1.00  0.00    -0.084 Cl
HETATM   25  C13 UNL     1      28.399   5.200  48.468  1.00  0.00     0.052 A 
ENDBRANCH  17  19
ENDBRANCH  16  17
ENDBRANCH   2  16
TORSDOF 6
ENDMDL
MODEL 8
REMARK VINA RESULT:      -7.0      2.528      5.435
REMARK  6 active torsions:
REMARK  status: ('A' for Active; 'I' for Inactive)
REMARK    1  A    between atoms: N1_1  and  C1_2 
REMARK    2  A    between atoms: C4_5  and  N2_6 
REMARK    3  A    between atoms: N2_6  and  C5_7 
REMARK    4  A    between atoms: C6_8  and  C7_9 
REMARK    5  A    between atoms: C7_9  and  N3_10 
REMARK    6  A    between atoms: N3_10  and  C8_11 
ROOT
HETATM    1  C5  UNL     1      25.788   0.284  53.813  1.00  0.00     0.077 A 
HETATM    2  C6  UNL     1      26.188   1.405  53.271  1.00  0.00     0.080 A 
HETATM    3  N4  UNL     1      27.072   1.550  54.376  1.00  0.00    -0.259 NA
HETATM    4  C14 UNL     1      26.703   0.456  54.934  1.00  0.00     0.148 A 
ENDROOT
BRANCH   1   5
HETATM    5  N2  UNL     1      24.817  -0.653  53.365  1.00  0.00    -0.353 N 
HETATM    6  H5  UNL     1      24.881  -1.570  52.880  1.00  0.00     0.166 HD
BRANCH   5   7
HETATM    7  C4  UNL     1      23.395  -0.629  53.445  1.00  0.00     0.032 A 
HETATM    8  C3  UNL     1      22.748  -1.142  54.541  1.00  0.00     0.031 A 
HETATM    9  C2  UNL     1      21.366  -1.161  54.703  1.00  0.00     0.031 A 
HETATM   10  C1  UNL     1      20.595  -0.632  53.703  1.00  0.00     0.025 A 
HETATM   11  C16 UNL     1      21.207  -0.106  52.583  1.00  0.00     0.031 A 
HETATM   12  C15 UNL     1      22.587  -0.099  52.447  1.00  0.00     0.031 A 
BRANCH  10  13
HETATM   13  N1  UNL     1      19.160  -0.590  53.748  1.00  0.00    -0.399 N 
HETATM   14  H1  UNL     1      18.734   0.162  53.139  1.00  0.00     0.156 HD
HETATM   15  H2  UNL     1      18.679  -1.284  54.360  1.00  0.00     0.156 HD
ENDBRANCH  10  13
ENDBRANCH   5   7
ENDBRANCH   1   5
BRANCH   2  16
HETATM   16  C7  UNL     1      25.958   2.262  52.104  1.00  0.00     0.181 C 
BRANCH  16  17
HETATM   17  N3  UNL     1      24.982   3.305  52.313  1.00  0.00    -0.384 N 
HETATM   18  H8  UNL     1      25.182   4.091  52.948  1.00  0.00     0.160 HD
BRANCH  17  19
HETATM   19  C8  UNL     1      23.726   3.251  51.634  1.00  0.00     0.029 A 
HETATM   20  C9  UNL     1      22.583   3.699  52.241  1.00  0.00     0.029 A 
HETATM   21  C10 UNL     1      21.344   3.659  51.606  1.00  0.00     0.004 A 
HETATM   22  C11 UNL     1      21.269   3.151  50.325  1.00  0.00     0.024 A 
HETATM   23  C12 UNL     1      22.424   2.702  49.721  1.00  0.00     0.036 A 
HETATM   24 CL1  UNL     1      22.473   2.034  48.098  1.00  0.00    -0.084 Cl
HETATM   25  C13 UNL     1      23.663   2.736  50.340  1.00  0.00     0.052 A 
ENDBRANCH  17  19
ENDBRANCH  16  17
ENDBRANCH   2  16
TORSDOF 6
ENDMDL
MODEL 9
REMARK VINA RESULT:      -6.8      3.235      5.557
REMARK  6 active torsions:
REMARK  status: ('A' for Active; 'I' for Inactive)
REMARK    1  A    between atoms: N1_1  and  C1_2 
REMARK    2  A    between atoms: C4_5  and  N2_6 
REMARK    3  A    between atoms: N2_6  and  C5_7 
REMARK    4  A    between atoms: C6_8  and  C7_9 
REMARK    5  A    between atoms: C7_9  and  N3_10 
REMARK    6  A    between atoms: N3_10  and  C8_11 
ROOT
HETATM    1  C5  UNL     1      24.832   5.196  49.767  1.00  0.00     0.077 A 
HETATM    2  C6  UNL     1      25.971   4.578  49.586  1.00  0.00     0.080 A 
HETATM    3  N4  UNL     1      26.350   5.656  48.740  1.00  0.00    -0.259 NA
HETATM    4  C14 UNL     1      25.245   6.290  48.895  1.00  0.00     0.148 A 
ENDROOT
BRANCH   1   5
HETATM    5  N2  UNL     1      23.704   4.826  50.548  1.00  0.00    -0.353 N 
HETATM    6  H5  UNL     1      22.918   5.363  50.966  1.00  0.00     0.166 HD
BRANCH   5   7
HETATM    7  C4  UNL     1      23.279   3.552  51.023  1.00  0.00     0.032 A 
HETATM    8  C3  UNL     1      22.863   2.583  50.147  1.00  0.00     0.031 A 
HETATM    9  C2  UNL     1      22.432   1.314  50.521  1.00  0.00     0.031 A 
HETATM   10  C1  UNL     1      22.420   1.007  51.856  1.00  0.00     0.025 A 
HETATM   11  C16 UNL     1      22.831   1.956  52.771  1.00  0.00     0.031 A 
HETATM   12  C15 UNL     1      23.257   3.213  52.370  1.00  0.00     0.031 A 
BRANCH  10  13
HETATM   13  N1  UNL     1      21.999  -0.265  52.371  1.00  0.00    -0.399 N 
HETATM   14  H1  UNL     1      22.746  -1.013  52.329  1.00  0.00     0.156 HD
HETATM   15  H2  UNL     1      21.023  -0.338  52.732  1.00  0.00     0.156 HD
ENDBRANCH  10  13
ENDBRANCH   5   7
ENDBRANCH   1   5
BRANCH   2  16
HETATM   16  C7  UNL     1      26.690   3.362  49.975  1.00  0.00     0.181 C 
BRANCH  16  17
HETATM   17  N3  UNL     1      26.942   3.245  51.392  1.00  0.00    -0.384 N 
HETATM   18  H8  UNL     1      27.094   4.085  51.968  1.00  0.00     0.160 HD
BRANCH  17  19
HETATM   19  C8  UNL     1      26.981   1.954  52.004  1.00  0.00     0.029 A 
HETATM   20  C9  UNL     1      26.226   0.924  51.510  1.00  0.00     0.029 A 
HETATM   21  C10 UNL     1      26.242  -0.345  52.084  1.00  0.00     0.004 A 
HETATM   22  C11 UNL     1      27.043  -0.568  53.185  1.00  0.00     0.024 A 
HETATM   23  C12 UNL     1      27.799   0.475  53.677  1.00  0.00     0.036 A 
HETATM   24 CL1  UNL     1      28.860   0.333  55.068  1.00  0.00    -0.084 Cl
HETATM   25  C13 UNL     1      27.794   1.743  53.116  1.00  0.00     0.052 A 
ENDBRANCH  17  19
ENDBRANCH  16  17
ENDBRANCH   2  16
TORSDOF 6
ENDMDL
