MODEL 1
REMARK VINA RESULT:      -8.6      0.000      0.000
REMARK  0 active torsions:
REMARK  status: ('A' for Active; 'I' for Inactive)
ROOT
HETATM    1  O1  UNL     1      21.908  -0.024  54.286  1.00  0.00    -0.101 OA
HETATM    2  C1  UNL     1      21.585  -1.094  54.848  1.00  0.00     0.405 A 
HETATM    3  N1  UNL     1      22.691  -1.696  55.475  1.00  0.00    -0.215 NA
HETATM    4  C2  UNL     1      23.926  -1.293  55.315  1.00  0.00     0.100 C 
HETATM    5  C3  UNL     1      25.217  -0.656  54.973  1.00  0.00     0.040 C 
HETATM    6  C4  UNL     1      25.937   0.283  54.316  1.00  0.00     0.000 C 
HETATM    7  C5  UNL     1      25.869   1.473  53.359  1.00  0.00     0.008 C 
HETATM    8  C6  UNL     1      24.396   1.600  53.068  1.00  0.00     0.030 C 
HETATM    9  C7  UNL     1      23.938   2.667  52.176  1.00  0.00     0.121 A 
HETATM   10  N2  UNL     1      25.014   3.367  51.567  1.00  0.00    -0.348 N 
HETATM   11  C8  UNL     1      24.736   3.460  50.169  1.00  0.00     0.252 A 
HETATM   12  O2  UNL     1      25.414   4.089  49.298  1.00  0.00    -0.268 OA
HETATM   13  C9  UNL     1      23.513   2.704  49.842  1.00  0.00     0.042 A 
HETATM   14  C10 UNL     1      22.877   2.453  48.646  1.00  0.00     0.018 A 
HETATM   15  C11 UNL     1      21.763   1.641  48.628  1.00  0.00     0.003 A 
HETATM   16  C12 UNL     1      21.378   1.137  49.880  1.00  0.00     0.030 A 
HETATM   17  C13 UNL     1      21.998   1.372  51.118  1.00  0.00     0.038 A 
HETATM   18  C14 UNL     1      23.101   2.193  51.046  1.00  0.00     0.007 A 
HETATM   19  N3  UNL     1      21.420   0.732  52.277  1.00  0.00    -0.364 N 
HETATM   20  C15 UNL     1      20.551   0.895  53.402  1.00  0.00     0.406 C 
HETATM   21  N4  UNL     1      20.581  -0.366  54.169  1.00  0.00     0.140 N 
HETATM   22  H9  UNL     1      25.877   3.766  51.990  1.00  0.00     0.163 HD
HETATM   23  H13 UNL     1      21.926  -0.172  52.023  1.00  0.00     0.161 HD
HETATM   24  H16 UNL     1      19.658  -0.907  54.276  1.00  0.00     0.332 HD
ENDROOT
TORSDOF 0
ENDMDL
MODEL 2
REMARK VINA RESULT:      -8.5      2.527      6.180
REMARK  0 active torsions:
REMARK  status: ('A' for Active; 'I' for Inactive)
ROOT
HETATM    1  O1  UNL     1      20.341   2.981  50.802  1.00  0.00    -0.101 OA
HETATM    2  C1  UNL     1      20.049   3.407  49.663  1.00  0.00     0.405 A 
HETATM    3  N1  UNL     1      18.921   2.746  49.143  1.00  0.00    -0.215 NA
HETATM    4  C2  UNL     1      18.381   1.689  49.694  1.00  0.00     0.100 C 
HETATM    5  C3  UNL     1      17.961   0.518  50.496  1.00  0.00     0.040 C 
HETATM    6  C4  UNL     1      18.115  -0.306  51.557  1.00  0.00     0.000 C 
HETATM    7  C5  UNL     1      18.952  -0.605  52.803  1.00  0.00     0.008 C 
HETATM    8  C6  UNL     1      19.999   0.478  52.784  1.00  0.00     0.030 C 
HETATM    9  C7  UNL     1      20.993   0.521  53.858  1.00  0.00     0.121 A 
HETATM   10  N2  UNL     1      20.914  -0.607  54.719  1.00  0.00    -0.348 N 
HETATM   11  C8  UNL     1      22.237  -1.118  54.887  1.00  0.00     0.252 A 
HETATM   12  O2  UNL     1      22.595  -2.066  55.653  1.00  0.00    -0.268 OA
HETATM   13  C9  UNL     1      23.181  -0.382  54.026  1.00  0.00     0.042 A 
HETATM   14  C10 UNL     1      24.531  -0.535  53.796  1.00  0.00     0.018 A 
HETATM   15  C11 UNL     1      25.156   0.270  52.868  1.00  0.00     0.003 A 
HETATM   16  C12 UNL     1      24.319   1.198  52.229  1.00  0.00     0.030 A 
HETATM   17  C13 UNL     1      22.943   1.384  52.438  1.00  0.00     0.038 A 
HETATM   18  C14 UNL     1      22.398   0.541  53.380  1.00  0.00     0.007 A 
HETATM   19  N3  UNL     1      22.289   2.403  51.650  1.00  0.00    -0.364 N 
HETATM   20  C15 UNL     1      21.819   3.755  51.627  1.00  0.00     0.406 C 
HETATM   21  N4  UNL     1      21.164   3.973  50.323  1.00  0.00     0.140 N 
HETATM   22  H9  UNL     1      20.088  -1.039  55.179  1.00  0.00     0.163 HD
HETATM   23  H13 UNL     1      22.227   1.723  50.831  1.00  0.00     0.161 HD
HETATM   24  H16 UNL     1      21.579   4.724  49.675  1.00  0.00     0.332 HD
ENDROOT
TORSDOF 0
ENDMDL
MODEL 3
REMARK VINA RESULT:      -8.4      2.316      4.596
REMARK  0 active torsions:
REMARK  status: ('A' for Active; 'I' for Inactive)
ROOT
HETATM    1  O1  UNL     1      26.744   1.701  52.762  1.00  0.00    -0.101 OA
HETATM    2  C1  UNL     1      27.818   1.898  53.372  1.00  0.00     0.405 A 
HETATM    3  N1  UNL     1      27.965   1.008  54.451  1.00  0.00    -0.215 NA
HETATM    4  C2  UNL     1      27.011   0.219  54.877  1.00  0.00     0.100 C 
HETATM    5  C3  UNL     1      25.789  -0.564  55.166  1.00  0.00     0.040 C 
HETATM    6  C4  UNL     1      24.502  -0.890  54.905  1.00  0.00     0.000 C 
HETATM    7  C5  UNL     1      23.298  -0.617  54.002  1.00  0.00     0.008 C 
HETATM    8  C6  UNL     1      23.806   0.438  53.055  1.00  0.00     0.030 C 
HETATM    9  C7  UNL     1      22.912   0.948  52.014  1.00  0.00     0.121 A 
HETATM   10  N2  UNL     1      21.584   0.460  52.151  1.00  0.00    -0.348 N 
HETATM   11  C8  UNL     1      20.699   1.576  52.043  1.00  0.00     0.252 A 
HETATM   12  O2  UNL     1      19.429   1.541  52.024  1.00  0.00    -0.268 OA
HETATM   13  C9  UNL     1      21.469   2.830  51.952  1.00  0.00     0.042 A 
HETATM   14  C10 UNL     1      21.077   4.149  51.889  1.00  0.00     0.018 A 
HETATM   15  C11 UNL     1      22.035   5.141  51.878  1.00  0.00     0.003 A 
HETATM   16  C12 UNL     1      23.360   4.685  51.934  1.00  0.00     0.030 A 
HETATM   17  C13 UNL     1      23.797   3.351  51.998  1.00  0.00     0.038 A 
HETATM   18  C14 UNL     1      22.778   2.426  52.003  1.00  0.00     0.007 A 
HETATM   19  N3  UNL     1      25.223   3.128  52.057  1.00  0.00    -0.364 N 
HETATM   20  C15 UNL     1      26.398   2.808  51.306  1.00  0.00     0.406 C 
HETATM   21  N4  UNL     1      27.522   2.718  52.259  1.00  0.00     0.140 N 
HETATM   22  H9  UNL     1      21.241  -0.509  52.303  1.00  0.00     0.163 HD
HETATM   23  H13 UNL     1      25.206   3.331  53.104  1.00  0.00     0.161 HD
HETATM   24  H16 UNL     1      28.339   3.405  52.134  1.00  0.00     0.332 HD
ENDROOT
TORSDOF 0
ENDMDL
MODEL 4
REMARK VINA RESULT:      -8.2      1.773      6.210
REMARK  0 active torsions:
REMARK  status: ('A' for Active; 'I' for Inactive)
ROOT
HETATM    1  O1  UNL     1      23.200   3.113  49.926  1.00  0.00    -0.101 OA
HETATM    2  C1  UNL     1      23.297   3.453  48.726  1.00  0.00     0.405 A 
HETATM    3  N1  UNL     1      22.154   3.080  47.995  1.00  0.00    -0.215 NA
HETATM    4  C2  UNL     1      21.213   2.302  48.466  1.00  0.00     0.100 C 
HETATM    5  C3  UNL     1      20.296   1.416  49.216  1.00  0.00     0.040 C 
HETATM    6  C4  UNL     1      19.965   0.727  50.332  1.00  0.00     0.000 C 
HETATM    7  C5  UNL     1      20.391   0.366  51.756  1.00  0.00     0.008 C 
HETATM    8  C6  UNL     1      21.701   1.092  51.920  1.00  0.00     0.030 C 
HETATM    9  C7  UNL     1      22.414   0.988  53.195  1.00  0.00     0.121 A 
HETATM   10  N2  UNL     1      21.814   0.053  54.080  1.00  0.00    -0.348 N 
HETATM   11  C8  UNL     1      22.850  -0.790  54.588  1.00  0.00     0.252 A 
HETATM   12  O2  UNL     1      22.732  -1.692  55.474  1.00  0.00    -0.268 OA
HETATM   13  C9  UNL     1      24.132  -0.473  53.931  1.00  0.00     0.042 A 
HETATM   14  C10 UNL     1      25.386  -1.034  54.038  1.00  0.00     0.018 A 
HETATM   15  C11 UNL     1      26.407  -0.569  53.237  1.00  0.00     0.003 A 
HETATM   16  C12 UNL     1      26.048   0.468  52.363  1.00  0.00     0.030 A 
HETATM   17  C13 UNL     1      24.784   1.065  52.227  1.00  0.00     0.038 A 
HETATM   18  C14 UNL     1      23.824   0.544  53.064  1.00  0.00     0.007 A 
HETATM   19  N3  UNL     1      24.655   2.118  51.245  1.00  0.00    -0.364 N 
HETATM   20  C15 UNL     1      24.640   3.532  51.029  1.00  0.00     0.406 C 
HETATM   21  N4  UNL     1      24.370   3.758  49.596  1.00  0.00     0.140 N 
HETATM   22  H9  UNL     1      20.819  -0.062  54.357  1.00  0.00     0.163 HD
HETATM   23  H13 UNL     1      24.558   1.383  50.479  1.00  0.00     0.161 HD
HETATM   24  H16 UNL     1      25.121   4.267  49.020  1.00  0.00     0.332 HD
ENDROOT
TORSDOF 0
ENDMDL
MODEL 5
REMARK VINA RESULT:      -7.9      2.624      5.183
REMARK  0 active torsions:
REMARK  status: ('A' for Active; 'I' for Inactive)
ROOT
HETATM    1  O1  UNL     1      21.121   3.751  51.989  1.00  0.00    -0.101 OA
HETATM    2  C1  UNL     1      20.273   4.327  51.274  1.00  0.00     0.405 A 
HETATM    3  N1  UNL     1      19.156   3.504  51.042  1.00  0.00    -0.215 NA
HETATM    4  C2  UNL     1      19.108   2.236  51.364  1.00  0.00     0.100 C 
HETATM    5  C3  UNL     1      19.300   0.840  51.816  1.00  0.00     0.040 C 
HETATM    6  C4  UNL     1      20.057  -0.127  52.383  1.00  0.00     0.000 C 
HETATM    7  C5  UNL     1      21.409  -0.449  53.022  1.00  0.00     0.008 C 
HETATM    8  C6  UNL     1      22.140   0.867  52.967  1.00  0.00     0.030 C 
HETATM    9  C7  UNL     1      23.496   0.948  53.514  1.00  0.00     0.121 A 
HETATM   10  N2  UNL     1      24.005  -0.321  53.898  1.00  0.00    -0.348 N 
HETATM   11  C8  UNL     1      25.319  -0.445  53.352  1.00  0.00     0.252 A 
HETATM   12  O2  UNL     1      26.138  -1.397  53.547  1.00  0.00    -0.268 OA
HETATM   13  C9  UNL     1      25.627   0.717  52.499  1.00  0.00     0.042 A 
HETATM   14  C10 UNL     1      26.724   1.027  51.725  1.00  0.00     0.018 A 
HETATM   15  C11 UNL     1      26.712   2.175  50.961  1.00  0.00     0.003 A 
HETATM   16  C12 UNL     1      25.539   2.937  51.056  1.00  0.00     0.030 A 
HETATM   17  C13 UNL     1      24.403   2.655  51.833  1.00  0.00     0.038 A 
HETATM   18  C14 UNL     1      24.499   1.493  52.565  1.00  0.00     0.007 A 
HETATM   19  N3  UNL     1      23.305   3.591  51.760  1.00  0.00    -0.364 N 
HETATM   20  C15 UNL     1      22.668   4.710  52.384  1.00  0.00     0.406 C 
HETATM   21  N4  UNL     1      21.459   5.025  51.597  1.00  0.00     0.140 N 
HETATM   22  H9  UNL     1      23.566  -1.074  54.466  1.00  0.00     0.163 HD
HETATM   23  H13 UNL     1      22.984   3.135  50.852  1.00  0.00     0.161 HD
HETATM   24  H16 UNL     1      21.402   5.995  51.136  1.00  0.00     0.332 HD
ENDROOT
TORSDOF 0
ENDMDL
MODEL 6
REMARK VINA RESULT:      -7.8      1.579      2.055
REMARK  0 active torsions:
REMARK  status: ('A' for Active; 'I' for Inactive)
ROOT
HETATM    1  O1  UNL     1      24.038   0.150  53.790  1.00  0.00    -0.101 OA
HETATM    2  C1  UNL     1      24.369  -0.916  54.353  1.00  0.00     0.405 A 
HETATM    3  N1  UNL     1      25.768  -1.042  54.428  1.00  0.00    -0.215 NA
HETATM    4  C2  UNL     1      26.603  -0.246  53.809  1.00  0.00     0.100 C 
HETATM    5  C3  UNL     1      27.330   0.773  53.020  1.00  0.00     0.040 C 
HETATM    6  C4  UNL     1      27.342   1.849  52.201  1.00  0.00     0.000 C 
HETATM    7  C5  UNL     1      26.477   2.861  51.447  1.00  0.00     0.008 C 
HETATM    8  C6  UNL     1      25.072   2.440  51.790  1.00  0.00     0.030 C 
HETATM    9  C7  UNL     1      23.949   3.205  51.246  1.00  0.00     0.121 A 
HETATM   10  N2  UNL     1      24.364   4.187  50.306  1.00  0.00    -0.348 N 
HETATM   11  C8  UNL     1      23.529   4.065  49.154  1.00  0.00     0.252 A 
HETATM   12  O2  UNL     1      23.525   4.821  48.133  1.00  0.00    -0.268 OA
HETATM   13  C9  UNL     1      22.629   2.906  49.297  1.00  0.00     0.042 A 
HETATM   14  C10 UNL     1      21.695   2.354  48.448  1.00  0.00     0.018 A 
HETATM   15  C11 UNL     1      21.032   1.205  48.825  1.00  0.00     0.003 A 
HETATM   16  C12 UNL     1      21.392   0.699  50.083  1.00  0.00     0.030 A 
HETATM   17  C13 UNL     1      22.336   1.234  50.975  1.00  0.00     0.038 A 
HETATM   18  C14 UNL     1      22.950   2.380  50.522  1.00  0.00     0.007 A 
HETATM   19  N3  UNL     1      22.544   0.526  52.217  1.00  0.00    -0.364 N 
HETATM   20  C15 UNL     1      22.212   0.463  53.607  1.00  0.00     0.406 C 
HETATM   21  N4  UNL     1      22.991  -0.642  54.199  1.00  0.00     0.140 N 
HETATM   22  H9  UNL     1      25.123   4.895  50.370  1.00  0.00     0.163 HD
HETATM   23  H13 UNL     1      23.185  -0.160  51.712  1.00  0.00     0.161 HD
HETATM   24  H16 UNL     1      22.445  -1.462  54.631  1.00  0.00     0.332 HD
ENDROOT
TORSDOF 0
ENDMDL
MODEL 7
REMARK VINA RESULT:      -7.5      2.168      5.741
REMARK  0 active torsions:
REMARK  status: ('A' for Active; 'I' for Inactive)
ROOT
HETATM    1  O1  UNL     1      25.651   2.741  52.083  1.00  0.00    -0.101 OA
HETATM    2  C1  UNL     1      26.828   2.703  51.660  1.00  0.00     0.405 A 
HETATM    3  N1  UNL     1      26.904   3.126  50.321  1.00  0.00    -0.215 NA
HETATM    4  C2  UNL     1      25.857   3.334  49.564  1.00  0.00     0.100 C 
HETATM    5  C3  UNL     1      24.534   3.497  48.920  1.00  0.00     0.040 C 
HETATM    6  C4  UNL     1      23.183   3.446  48.962  1.00  0.00     0.000 C 
HETATM    7  C5  UNL     1      21.966   3.139  49.836  1.00  0.00     0.008 C 
HETATM    8  C6  UNL     1      22.577   2.744  51.155  1.00  0.00     0.030 C 
HETATM    9  C7  UNL     1      21.694   2.388  52.268  1.00  0.00     0.121 A 
HETATM   10  N2  UNL     1      20.329   2.316  51.879  1.00  0.00    -0.348 N 
HETATM   11  C8  UNL     1      19.797   1.093  52.387  1.00  0.00     0.252 A 
HETATM   12  O2  UNL     1      18.588   0.706  52.328  1.00  0.00    -0.268 OA
HETATM   13  C9  UNL     1      20.864   0.296  53.020  1.00  0.00     0.042 A 
HETATM   14  C10 UNL     1      20.862  -0.955  53.596  1.00  0.00     0.018 A 
HETATM   15  C11 UNL     1      22.046  -1.491  54.058  1.00  0.00     0.003 A 
HETATM   16  C12 UNL     1      23.173  -0.673  53.886  1.00  0.00     0.030 A 
HETATM   17  C13 UNL     1      23.213   0.606  53.306  1.00  0.00     0.038 A 
HETATM   18  C14 UNL     1      21.990   1.066  52.874  1.00  0.00     0.007 A 
HETATM   19  N3  UNL     1      24.502   1.255  53.232  1.00  0.00    -0.364 N 
HETATM   20  C15 UNL     1      25.381   2.203  53.845  1.00  0.00     0.406 C 
HETATM   21  N4  UNL     1      26.584   2.305  52.995  1.00  0.00     0.140 N 
HETATM   22  H9  UNL     1      19.756   2.986  51.327  1.00  0.00     0.163 HD
HETATM   23  H13 UNL     1      24.731   0.687  52.359  1.00  0.00     0.161 HD
HETATM   24  H16 UNL     1      27.528   2.028  53.430  1.00  0.00     0.332 HD
ENDROOT
TORSDOF 0
ENDMDL
MODEL 8
REMARK VINA RESULT:      -7.5      1.993      6.356
REMARK  0 active torsions:
REMARK  status: ('A' for Active; 'I' for Inactive)
ROOT
HETATM    1  O1  UNL     1      23.242   5.275  51.190  1.00  0.00    -0.101 OA
HETATM    2  C1  UNL     1      23.691   6.226  50.513  1.00  0.00     0.405 A 
HETATM    3  N1  UNL     1      23.262   6.148  49.175  1.00  0.00    -0.215 NA
HETATM    4  C2  UNL     1      22.647   5.110  48.668  1.00  0.00     0.100 C 
HETATM    5  C3  UNL     1      21.978   3.832  48.336  1.00  0.00     0.040 C 
HETATM    6  C4  UNL     1      21.530   2.605  48.686  1.00  0.00     0.000 C 
HETATM    7  C5  UNL     1      21.407   1.592  49.826  1.00  0.00     0.008 C 
HETATM    8  C6  UNL     1      22.062   2.296  50.987  1.00  0.00     0.030 C 
HETATM    9  C7  UNL     1      22.120   1.620  52.284  1.00  0.00     0.121 A 
HETATM   10  N2  UNL     1      21.665   0.275  52.219  1.00  0.00    -0.348 N 
HETATM   11  C8  UNL     1      22.629  -0.542  52.885  1.00  0.00     0.252 A 
HETATM   12  O2  UNL     1      22.540  -1.787  53.117  1.00  0.00    -0.268 OA
HETATM   13  C9  UNL     1      23.792   0.269  53.289  1.00  0.00     0.042 A 
HETATM   14  C10 UNL     1      24.980  -0.064  53.901  1.00  0.00     0.018 A 
HETATM   15  C11 UNL     1      25.936   0.909  54.103  1.00  0.00     0.003 A 
HETATM   16  C12 UNL     1      25.583   2.188  53.646  1.00  0.00     0.030 A 
HETATM   17  C13 UNL     1      24.383   2.566  53.021  1.00  0.00     0.038 A 
HETATM   18  C14 UNL     1      23.485   1.535  52.860  1.00  0.00     0.007 A 
HETATM   19  N3  UNL     1      24.252   3.950  52.629  1.00  0.00    -0.364 N 
HETATM   20  C15 UNL     1      23.725   5.232  52.987  1.00  0.00     0.406 C 
HETATM   21  N4  UNL     1      24.034   6.161  51.883  1.00  0.00     0.140 N 
HETATM   22  H9  UNL     1      20.806  -0.119  51.786  1.00  0.00     0.163 HD
HETATM   23  H13 UNL     1      24.823   3.750  51.751  1.00  0.00     0.161 HD
HETATM   24  H16 UNL     1      24.659   7.008  52.102  1.00  0.00     0.332 HD
ENDROOT
TORSDOF 0
ENDMDL
MODEL 9
REMARK VINA RESULT:      -7.4      9.225     12.241
REMARK  0 active torsions:
REMARK  status: ('A' for Active; 'I' for Inactive)
ROOT
HETATM    1  O1  UNL     1      33.267   7.690  48.216  1.00  0.00    -0.101 OA
HETATM    2  C1  UNL     1      34.228   7.344  47.494  1.00  0.00     0.405 A 
HETATM    3  N1  UNL     1      34.770   8.443  46.803  1.00  0.00    -0.215 NA
HETATM    4  C2  UNL     1      34.211   9.626  46.766  1.00  0.00     0.100 C 
HETATM    5  C3  UNL     1      33.392  10.854  46.875  1.00  0.00     0.040 C 
HETATM    6  C4  UNL     1      32.306  11.515  47.335  1.00  0.00     0.000 C 
HETATM    7  C5  UNL     1      31.028  11.401  48.168  1.00  0.00     0.008 C 
HETATM    8  C6  UNL     1      31.040   9.966  48.627  1.00  0.00     0.030 C 
HETATM    9  C7  UNL     1      29.950   9.485  49.479  1.00  0.00     0.121 A 
HETATM   10  N2  UNL     1      28.913  10.445  49.631  1.00  0.00    -0.348 N 
HETATM   11  C8  UNL     1      27.671   9.782  49.396  1.00  0.00     0.252 A 
HETATM   12  O2  UNL     1      26.508  10.276  49.525  1.00  0.00    -0.268 OA
HETATM   13  C9  UNL     1      27.908   8.391  48.968  1.00  0.00     0.042 A 
HETATM   14  C10 UNL     1      27.049   7.386  48.580  1.00  0.00     0.018 A 
HETATM   15  C11 UNL     1      27.564   6.179  48.157  1.00  0.00     0.003 A 
HETATM   16  C12 UNL     1      28.965   6.097  48.167  1.00  0.00     0.030 A 
HETATM   17  C13 UNL     1      29.871   7.097  48.557  1.00  0.00     0.038 A 
HETATM   18  C14 UNL     1      29.274   8.268  48.965  1.00  0.00     0.007 A 
HETATM   19  N3  UNL     1      31.278   6.780  48.472  1.00  0.00    -0.364 N 
HETATM   20  C15 UNL     1      32.433   6.344  49.195  1.00  0.00     0.406 C 
HETATM   21  N4  UNL     1      33.572   6.349  48.256  1.00  0.00     0.140 N 
HETATM   22  H9  UNL     1      28.968  11.456  49.866  1.00  0.00     0.163 HD
HETATM   23  H13 UNL     1      31.258   6.993  47.428  1.00  0.00     0.161 HD
HETATM   24  H16 UNL     1      34.063   5.413  48.060  1.00  0.00     0.332 HD
ENDROOT
TORSDOF 0
ENDMDL
