MODEL 1
REMARK VINA RESULT:      -8.9      0.000      0.000
REMARK  5 active torsions:
REMARK  status: ('A' for Active; 'I' for Inactive)
REMARK    1  A    between atoms: C4_7  and  N3_8 
REMARK    2  A    between atoms: N3_8  and  C5_9 
REMARK    3  A    between atoms: C8_12  and  O1_13 
REMARK    4  A    between atoms: O1_13  and  C9_14 
REMARK    5  A    between atoms: C9_14  and  C10_15 
ROOT
HETATM    1  C5  UNL     1      23.912  -0.667  54.239  1.00  0.00     0.035 A 
HETATM    2  C6  UNL     1      22.896  -1.240  54.954  1.00  0.00     0.032 A 
HETATM    3  C7  UNL     1      21.595  -1.236  54.538  1.00  0.00     0.041 A 
HETATM    4  C8  UNL     1      21.189  -0.652  53.360  1.00  0.00     0.091 A 
HETATM    5  C16 UNL     1      22.255  -0.068  52.642  1.00  0.00     0.069 A 
HETATM    6 CL1  UNL     1      22.098   0.776  51.084  1.00  0.00    -0.081 Cl
HETATM    7  C17 UNL     1      23.577  -0.068  53.056  1.00  0.00     0.056 A 
ENDROOT
BRANCH   1   8
HETATM    8  N3  UNL     1      25.183  -0.770  54.859  1.00  0.00    -0.343 N 
HETATM    9  H3  UNL     1      25.323  -1.386  55.702  1.00  0.00     0.167 HD
BRANCH   8  10
HETATM   10  C4  UNL     1      26.381  -0.140  54.484  1.00  0.00     0.131 C 
HETATM   11  N2  UNL     1      26.469   1.131  54.663  1.00  0.00    -0.137 NA
HETATM   12  N1  UNL     1      27.600   1.878  54.351  1.00  0.00    -0.161 NA
HETATM   13  C3  UNL     1      28.688   1.425  53.872  1.00  0.00     0.147 C 
HETATM   14  C2  UNL     1      28.679  -0.032  53.664  1.00  0.00    -0.018 C 
HETATM   15  C1  UNL     1      29.757  -0.799  53.367  1.00  0.00     0.450 C 
HETATM   16  C18 UNL     1      27.493  -0.896  53.817  1.00  0.00     0.119 C 
HETATM   17  F1  UNL     1      30.843  -0.017  53.293  1.00  0.00    -0.451 F 
ENDBRANCH   8  10
ENDBRANCH   1   8
BRANCH   4  18
HETATM   18  O1  UNL     1      20.062  -0.446  52.648  1.00  0.00    -0.345 OA
BRANCH  18  19
HETATM   19  C9  UNL     1      18.760  -0.218  53.096  1.00  0.00     0.214 C 
BRANCH  19  20
HETATM   20  C10 UNL     1      17.820  -1.325  53.023  1.00  0.00    -0.031 A 
HETATM   21  C11 UNL     1      16.648  -1.198  52.316  1.00  0.00     0.009 A 
HETATM   22  C12 UNL     1      15.626  -2.053  52.112  1.00  0.00     0.004 A 
HETATM   23  C13 UNL     1      15.743  -3.305  52.716  1.00  0.00     0.042 A 
HETATM   24  C14 UNL     1      16.880  -3.631  53.490  1.00  0.00     0.117 A 
HETATM   25  F2  UNL     1      17.158  -4.780  54.130  1.00  0.00    -0.206 F 
HETATM   26  C15 UNL     1      17.811  -2.587  53.560  1.00  0.00     0.051 A 
ENDBRANCH  19  20
ENDBRANCH  18  19
ENDBRANCH   4  18
TORSDOF 5
ENDMDL
MODEL 2
REMARK VINA RESULT:      -8.8      1.478      1.821
REMARK  5 active torsions:
REMARK  status: ('A' for Active; 'I' for Inactive)
REMARK    1  A    between atoms: C4_7  and  N3_8 
REMARK    2  A    between atoms: N3_8  and  C5_9 
REMARK    3  A    between atoms: C8_12  and  O1_13 
REMARK    4  A    between atoms: O1_13  and  C9_14 
REMARK    5  A    between atoms: C9_14  and  C10_15 
ROOT
HETATM    1  C5  UNL     1      24.035   0.720  52.893  1.00  0.00     0.035 A 
HETATM    2  C6  UNL     1      23.086   1.353  52.138  1.00  0.00     0.032 A 
HETATM    3  C7  UNL     1      21.761   1.026  52.177  1.00  0.00     0.041 A 
HETATM    4  C8  UNL     1      21.260   0.028  52.982  1.00  0.00     0.091 A 
HETATM    5  C16 UNL     1      22.258  -0.608  53.750  1.00  0.00     0.069 A 
HETATM    6 CL1  UNL     1      21.975  -1.940  54.894  1.00  0.00    -0.081 Cl
HETATM    7  C17 UNL     1      23.604  -0.283  53.718  1.00  0.00     0.056 A 
ENDROOT
BRANCH   1   8
HETATM    8  N3  UNL     1      25.352   1.203  52.689  1.00  0.00    -0.343 N 
HETATM    9  H3  UNL     1      25.528   2.049  52.085  1.00  0.00     0.167 HD
BRANCH   8  10
HETATM   10  C4  UNL     1      26.551   0.698  53.219  1.00  0.00     0.131 C 
HETATM   11  N2  UNL     1      27.060   1.306  54.231  1.00  0.00    -0.137 NA
HETATM   12  N1  UNL     1      28.232   0.904  54.863  1.00  0.00    -0.161 NA
HETATM   13  C3  UNL     1      28.945  -0.103  54.551  1.00  0.00     0.147 C 
HETATM   14  C2  UNL     1      28.412  -0.872  53.414  1.00  0.00    -0.018 C 
HETATM   15  C1  UNL     1      28.845  -2.090  53.007  1.00  0.00     0.450 C 
HETATM   16  C18 UNL     1      27.268  -0.456  52.581  1.00  0.00     0.119 C 
HETATM   17  F1  UNL     1      29.842  -2.491  53.809  1.00  0.00    -0.451 F 
ENDBRANCH   8  10
ENDBRANCH   1   8
BRANCH   4  18
HETATM   18  O1  UNL     1      20.084  -0.561  53.279  1.00  0.00    -0.345 OA
BRANCH  18  19
HETATM   19  C9  UNL     1      18.805  -0.286  52.791  1.00  0.00     0.214 C 
BRANCH  19  20
HETATM   20  C10 UNL     1      17.824  -1.358  52.833  1.00  0.00    -0.031 A 
HETATM   21  C11 UNL     1      16.627  -1.234  52.169  1.00  0.00     0.009 A 
HETATM   22  C12 UNL     1      15.567  -2.060  52.068  1.00  0.00     0.004 A 
HETATM   23  C13 UNL     1      15.667  -3.274  52.749  1.00  0.00     0.042 A 
HETATM   24  C14 UNL     1      16.825  -3.591  53.494  1.00  0.00     0.117 A 
HETATM   25  F2  UNL     1      17.091  -4.705  54.197  1.00  0.00    -0.206 F 
HETATM   26  C15 UNL     1      17.795  -2.581  53.454  1.00  0.00     0.051 A 
ENDBRANCH  19  20
ENDBRANCH  18  19
ENDBRANCH   4  18
TORSDOF 5
ENDMDL
MODEL 3
REMARK VINA RESULT:      -8.5      2.155      2.849
REMARK  5 active torsions:
REMARK  status: ('A' for Active; 'I' for Inactive)
REMARK    1  A    between atoms: C4_7  and  N3_8 
REMARK    2  A    between atoms: N3_8  and  C5_9 
REMARK    3  A    between atoms: C8_12  and  O1_13 
REMARK    4  A    between atoms: O1_13  and  C9_14 
REMARK    5  A    between atoms: C9_14  and  C10_15 
ROOT
HETATM    1  C5  UNL     1      24.714   1.933  52.422  1.00  0.00     0.035 A 
HETATM    2  C6  UNL     1      24.205   2.251  51.193  1.00  0.00     0.032 A 
HETATM    3  C7  UNL     1      23.005   1.783  50.739  1.00  0.00     0.041 A 
HETATM    4  C8  UNL     1      22.200   0.948  51.478  1.00  0.00     0.091 A 
HETATM    5  C16 UNL     1      22.747   0.636  52.741  1.00  0.00     0.069 A 
HETATM    6 CL1  UNL     1      21.985  -0.416  53.955  1.00  0.00    -0.081 Cl
HETATM    7  C17 UNL     1      23.963   1.106  53.211  1.00  0.00     0.056 A 
ENDROOT
BRANCH   1   8
HETATM    8  N3  UNL     1      25.981   2.512  52.689  1.00  0.00    -0.343 N 
HETATM    9  H3  UNL     1      26.143   3.544  52.546  1.00  0.00     0.167 HD
BRANCH   8  10
HETATM   10  C4  UNL     1      27.139   1.876  53.166  1.00  0.00     0.131 C 
HETATM   11  N2  UNL     1      27.885   2.529  53.985  1.00  0.00    -0.137 NA
HETATM   12  N1  UNL     1      29.050   2.016  54.545  1.00  0.00    -0.161 NA
HETATM   13  C3  UNL     1      29.527   0.853  54.347  1.00  0.00     0.147 C 
HETATM   14  C2  UNL     1      28.713   0.029  53.439  1.00  0.00    -0.018 C 
HETATM   15  C1  UNL     1      28.868  -1.299  53.218  1.00  0.00     0.450 C 
HETATM   16  C18 UNL     1      27.549   0.518  52.676  1.00  0.00     0.119 C 
HETATM   17  F1  UNL     1      29.887  -1.751  53.964  1.00  0.00    -0.451 F 
ENDBRANCH   8  10
ENDBRANCH   1   8
BRANCH   4  18
HETATM   18  O1  UNL     1      21.017   0.306  51.380  1.00  0.00    -0.345 OA
BRANCH  18  19
HETATM   19  C9  UNL     1      19.742   0.825  51.154  1.00  0.00     0.214 C 
BRANCH  19  20
HETATM   20  C10 UNL     1      18.605   0.024  51.577  1.00  0.00    -0.031 A 
HETATM   21  C11 UNL     1      18.651  -0.684  52.754  1.00  0.00     0.009 A 
HETATM   22  C12 UNL     1      17.755  -1.497  53.348  1.00  0.00     0.004 A 
HETATM   23  C13 UNL     1      16.548  -1.678  52.673  1.00  0.00     0.042 A 
HETATM   24  C14 UNL     1      16.306  -1.033  51.439  1.00  0.00     0.117 A 
HETATM   25  F2  UNL     1      15.209  -1.088  50.665  1.00  0.00    -0.206 F 
HETATM   26  C15 UNL     1      17.379  -0.238  51.018  1.00  0.00     0.051 A 
ENDBRANCH  19  20
ENDBRANCH  18  19
ENDBRANCH   4  18
TORSDOF 5
ENDMDL
MODEL 4
REMARK VINA RESULT:      -8.4      5.600      8.132
REMARK  5 active torsions:
REMARK  status: ('A' for Active; 'I' for Inactive)
REMARK    1  A    between atoms: C4_7  and  N3_8 
REMARK    2  A    between atoms: N3_8  and  C5_9 
REMARK    3  A    between atoms: C8_12  and  O1_13 
REMARK    4  A    between atoms: O1_13  and  C9_14 
REMARK    5  A    between atoms: C9_14  and  C10_15 
ROOT
HETATM    1  C5  UNL     1      24.230   1.963  52.538  1.00  0.00     0.035 A 
HETATM    2  C6  UNL     1      24.136   3.204  53.105  1.00  0.00     0.032 A 
HETATM    3  C7  UNL     1      23.738   4.312  52.412  1.00  0.00     0.041 A 
HETATM    4  C8  UNL     1      23.397   4.278  51.080  1.00  0.00     0.091 A 
HETATM    5  C16 UNL     1      23.502   2.987  50.520  1.00  0.00     0.069 A 
HETATM    6 CL1  UNL     1      23.145   2.574  48.828  1.00  0.00    -0.081 Cl
HETATM    7  C17 UNL     1      23.904   1.858  51.214  1.00  0.00     0.056 A 
ENDROOT
BRANCH   1   8
HETATM    8  N3  UNL     1      24.679   0.954  53.429  1.00  0.00    -0.343 N 
HETATM    9  H3  UNL     1      23.990   0.392  53.995  1.00  0.00     0.167 HD
BRANCH   8  10
HETATM   10  C4  UNL     1      25.999   0.547  53.682  1.00  0.00     0.131 C 
HETATM   11  N2  UNL     1      26.659   1.188  54.579  1.00  0.00    -0.137 NA
HETATM   12  N1  UNL     1      27.968   0.882  54.940  1.00  0.00    -0.161 NA
HETATM   13  C3  UNL     1      28.677  -0.058  54.459  1.00  0.00     0.147 C 
HETATM   14  C2  UNL     1      27.980  -0.861  53.441  1.00  0.00    -0.018 C 
HETATM   15  C1  UNL     1      28.414  -2.034  52.921  1.00  0.00     0.450 C 
HETATM   16  C18 UNL     1      26.655  -0.536  52.878  1.00  0.00     0.119 C 
HETATM   17  F1  UNL     1      29.588  -2.356  53.484  1.00  0.00    -0.451 F 
ENDBRANCH   8  10
ENDBRANCH   1   8
BRANCH   4  18
HETATM   18  O1  UNL     1      22.984   5.111  50.102  1.00  0.00    -0.345 OA
BRANCH  18  19
HETATM   19  C9  UNL     1      23.532   6.323  49.679  1.00  0.00     0.214 C 
BRANCH  19  20
HETATM   20  C10 UNL     1      24.912   6.313  49.221  1.00  0.00    -0.031 A 
HETATM   21  C11 UNL     1      25.521   7.478  48.819  1.00  0.00     0.009 A 
HETATM   22  C12 UNL     1      26.759   7.727  48.347  1.00  0.00     0.004 A 
HETATM   23  C13 UNL     1      27.605   6.623  48.231  1.00  0.00     0.042 A 
HETATM   24  C14 UNL     1      27.163   5.332  48.596  1.00  0.00     0.117 A 
HETATM   25  F2  UNL     1      27.840   4.172  48.557  1.00  0.00    -0.206 F 
HETATM   26  C15 UNL     1      25.842   5.317  49.060  1.00  0.00     0.051 A 
ENDBRANCH  19  20
ENDBRANCH  18  19
ENDBRANCH   4  18
TORSDOF 5
ENDMDL
MODEL 5
REMARK VINA RESULT:      -8.4      5.221      7.535
REMARK  5 active torsions:
REMARK  status: ('A' for Active; 'I' for Inactive)
REMARK    1  A    between atoms: C4_7  and  N3_8 
REMARK    2  A    between atoms: N3_8  and  C5_9 
REMARK    3  A    between atoms: C8_12  and  O1_13 
REMARK    4  A    between atoms: O1_13  and  C9_14 
REMARK    5  A    between atoms: C9_14  and  C10_15 
ROOT
HETATM    1  C5  UNL     1      24.329   1.089  53.038  1.00  0.00     0.035 A 
HETATM    2  C6  UNL     1      24.604   2.395  53.338  1.00  0.00     0.032 A 
HETATM    3  C7  UNL     1      24.092   3.446  52.632  1.00  0.00     0.041 A 
HETATM    4  C8  UNL     1      23.253   3.285  51.554  1.00  0.00     0.091 A 
HETATM    5  C16 UNL     1      22.985   1.929  51.266  1.00  0.00     0.069 A 
HETATM    6 CL1  UNL     1      21.947   1.350  49.943  1.00  0.00    -0.081 Cl
HETATM    7  C17 UNL     1      23.498   0.857  51.977  1.00  0.00     0.056 A 
ENDROOT
BRANCH   1   8
HETATM    8  N3  UNL     1      24.976   0.153  53.886  1.00  0.00    -0.343 N 
HETATM    9  H3  UNL     1      24.501  -0.199  54.759  1.00  0.00     0.167 HD
BRANCH   8  10
HETATM   10  C4  UNL     1      26.242  -0.432  53.722  1.00  0.00     0.131 C 
HETATM   11  N2  UNL     1      26.290  -1.630  53.258  1.00  0.00    -0.137 NA
HETATM   12  N1  UNL     1      27.476  -2.322  53.032  1.00  0.00    -0.161 NA
HETATM   13  C3  UNL     1      28.652  -1.879  53.230  1.00  0.00     0.147 C 
HETATM   14  C2  UNL     1      28.683  -0.497  53.736  1.00  0.00    -0.018 C 
HETATM   15  C1  UNL     1      29.784   0.287  53.837  1.00  0.00     0.450 C 
HETATM   16  C18 UNL     1      27.495   0.273  54.152  1.00  0.00     0.119 C 
HETATM   17  F1  UNL     1      30.850  -0.397  53.397  1.00  0.00    -0.451 F 
ENDBRANCH   8  10
ENDBRANCH   1   8
BRANCH   4  18
HETATM   18  O1  UNL     1      22.584   4.030  50.650  1.00  0.00    -0.345 OA
BRANCH  18  19
HETATM   19  C9  UNL     1      23.016   4.532  49.421  1.00  0.00     0.214 C 
BRANCH  19  20
HETATM   20  C10 UNL     1      24.449   4.684  49.223  1.00  0.00    -0.031 A 
HETATM   21  C11 UNL     1      25.294   3.613  49.399  1.00  0.00     0.009 A 
HETATM   22  C12 UNL     1      26.632   3.501  49.294  1.00  0.00     0.004 A 
HETATM   23  C13 UNL     1      27.322   4.663  48.947  1.00  0.00     0.042 A 
HETATM   24  C14 UNL     1      26.629   5.874  48.722  1.00  0.00     0.117 A 
HETATM   25  F2  UNL     1      27.127   7.073  48.377  1.00  0.00    -0.206 F 
HETATM   26  C15 UNL     1      25.244   5.750  48.888  1.00  0.00     0.051 A 
ENDBRANCH  19  20
ENDBRANCH  18  19
ENDBRANCH   4  18
TORSDOF 5
ENDMDL
MODEL 6
REMARK VINA RESULT:      -8.3      6.604      9.337
REMARK  5 active torsions:
REMARK  status: ('A' for Active; 'I' for Inactive)
REMARK    1  A    between atoms: C4_7  and  N3_8 
REMARK    2  A    between atoms: N3_8  and  C5_9 
REMARK    3  A    between atoms: C8_12  and  O1_13 
REMARK    4  A    between atoms: O1_13  and  C9_14 
REMARK    5  A    between atoms: C9_14  and  C10_15 
ROOT
HETATM    1  C5  UNL     1      25.579   4.699  49.709  1.00  0.00     0.035 A 
HETATM    2  C6  UNL     1      26.567   3.755  49.757  1.00  0.00     0.032 A 
HETATM    3  C7  UNL     1      26.522   2.669  50.584  1.00  0.00     0.041 A 
HETATM    4  C8  UNL     1      25.477   2.428  51.445  1.00  0.00     0.091 A 
HETATM    5  C16 UNL     1      24.471   3.416  51.377  1.00  0.00     0.069 A 
HETATM    6 CL1  UNL     1      22.982   3.429  52.348  1.00  0.00    -0.081 Cl
HETATM    7  C17 UNL     1      24.508   4.520  50.541  1.00  0.00     0.056 A 
ENDROOT
BRANCH   1   8
HETATM    8  N3  UNL     1      25.831   5.753  48.794  1.00  0.00    -0.343 N 
HETATM    9  H3  UNL     1      25.279   5.833  47.900  1.00  0.00     0.167 HD
BRANCH   8  10
HETATM   10  C4  UNL     1      26.765   6.795  48.911  1.00  0.00     0.131 C 
HETATM   11  N2  UNL     1      26.474   7.773  49.694  1.00  0.00    -0.137 NA
HETATM   12  N1  UNL     1      27.313   8.861  49.915  1.00  0.00    -0.161 NA
HETATM   13  C3  UNL     1      28.463   9.036  49.401  1.00  0.00     0.147 C 
HETATM   14  C2  UNL     1      28.884   7.942  48.510  1.00  0.00    -0.018 C 
HETATM   15  C1  UNL     1      30.127   7.767  48.000  1.00  0.00     0.450 C 
HETATM   16  C18 UNL     1      28.021   6.822  48.089  1.00  0.00     0.119 C 
HETATM   17  F1  UNL     1      30.923   8.753  48.438  1.00  0.00    -0.451 F 
ENDBRANCH   8  10
ENDBRANCH   1   8
BRANCH   4  18
HETATM   18  O1  UNL     1      25.092   1.523  52.369  1.00  0.00    -0.345 OA
BRANCH  18  19
HETATM   19  C9  UNL     1      25.606   0.253  52.635  1.00  0.00     0.214 C 
BRANCH  19  20
HETATM   20  C10 UNL     1      26.983   0.168  53.095  1.00  0.00    -0.031 A 
HETATM   21  C11 UNL     1      27.698  -0.996  52.942  1.00  0.00     0.009 A 
HETATM   22  C12 UNL     1      28.956  -1.329  53.290  1.00  0.00     0.004 A 
HETATM   23  C13 UNL     1      29.700  -0.335  53.927  1.00  0.00     0.042 A 
HETATM   24  C14 UNL     1      29.141   0.939  54.177  1.00  0.00     0.117 A 
HETATM   25  F2  UNL     1      29.710   2.004  54.765  1.00  0.00    -0.206 F 
HETATM   26  C15 UNL     1      27.820   1.053  53.725  1.00  0.00     0.051 A 
ENDBRANCH  19  20
ENDBRANCH  18  19
ENDBRANCH   4  18
TORSDOF 5
ENDMDL
MODEL 7
REMARK VINA RESULT:      -8.2      4.940      6.927
REMARK  5 active torsions:
REMARK  status: ('A' for Active; 'I' for Inactive)
REMARK    1  A    between atoms: C4_7  and  N3_8 
REMARK    2  A    between atoms: N3_8  and  C5_9 
REMARK    3  A    between atoms: C8_12  and  O1_13 
REMARK    4  A    between atoms: O1_13  and  C9_14 
REMARK    5  A    between atoms: C9_14  and  C10_15 
ROOT
HETATM    1  C5  UNL     1      24.046   0.731  52.647  1.00  0.00     0.035 A 
HETATM    2  C6  UNL     1      22.827   0.947  53.228  1.00  0.00     0.032 A 
HETATM    3  C7  UNL     1      21.909   1.827  52.731  1.00  0.00     0.041 A 
HETATM    4  C8  UNL     1      22.129   2.578  51.600  1.00  0.00     0.091 A 
HETATM    5  C16 UNL     1      23.393   2.338  51.020  1.00  0.00     0.069 A 
HETATM    6 CL1  UNL     1      24.015   3.133  49.556  1.00  0.00    -0.081 Cl
HETATM    7  C17 UNL     1      24.330   1.446  51.516  1.00  0.00     0.056 A 
ENDROOT
BRANCH   1   8
HETATM    8  N3  UNL     1      24.854  -0.212  53.332  1.00  0.00    -0.343 N 
HETATM    9  H3  UNL     1      24.459  -1.142  53.632  1.00  0.00     0.167 HD
BRANCH   8  10
HETATM   10  C4  UNL     1      26.207  -0.094  53.689  1.00  0.00     0.131 C 
HETATM   11  N2  UNL     1      26.524   0.820  54.536  1.00  0.00    -0.137 NA
HETATM   12  N1  UNL     1      27.822   1.036  54.988  1.00  0.00    -0.161 NA
HETATM   13  C3  UNL     1      28.854   0.372  54.650  1.00  0.00     0.147 C 
HETATM   14  C2  UNL     1      28.569  -0.716  53.700  1.00  0.00    -0.018 C 
HETATM   15  C1  UNL     1      29.429  -1.698  53.337  1.00  0.00     0.450 C 
HETATM   16  C18 UNL     1      27.266  -0.939  53.044  1.00  0.00     0.119 C 
HETATM   17  F1  UNL     1      30.590  -1.526  53.986  1.00  0.00    -0.451 F 
ENDBRANCH   8  10
ENDBRANCH   1   8
BRANCH   4  18
HETATM   18  O1  UNL     1      21.507   3.506  50.843  1.00  0.00    -0.345 OA
BRANCH  18  19
HETATM   19  C9  UNL     1      21.046   4.775  51.196  1.00  0.00     0.214 C 
BRANCH  19  20
HETATM   20  C10 UNL     1      21.912   5.908  50.912  1.00  0.00    -0.031 A 
HETATM   21  C11 UNL     1      23.210   5.923  51.363  1.00  0.00     0.009 A 
HETATM   22  C12 UNL     1      24.189   6.842  51.248  1.00  0.00     0.004 A 
HETATM   23  C13 UNL     1      23.861   8.006  50.551  1.00  0.00     0.042 A 
HETATM   24  C14 UNL     1      22.569   8.182  50.006  1.00  0.00     0.117 A 
HETATM   25  F2  UNL     1      22.088   9.223  49.307  1.00  0.00    -0.206 F 
HETATM   26  C15 UNL     1      21.720   7.094  50.250  1.00  0.00     0.051 A 
ENDBRANCH  19  20
ENDBRANCH  18  19
ENDBRANCH   4  18
TORSDOF 5
ENDMDL
MODEL 8
REMARK VINA RESULT:      -8.2      6.796      9.174
REMARK  5 active torsions:
REMARK  status: ('A' for Active; 'I' for Inactive)
REMARK    1  A    between atoms: C4_7  and  N3_8 
REMARK    2  A    between atoms: N3_8  and  C5_9 
REMARK    3  A    between atoms: C8_12  and  O1_13 
REMARK    4  A    between atoms: O1_13  and  C9_14 
REMARK    5  A    between atoms: C9_14  and  C10_15 
ROOT
HETATM    1  C5  UNL     1      26.535   5.628  48.962  1.00  0.00     0.035 A 
HETATM    2  C6  UNL     1      27.065   4.370  49.049  1.00  0.00     0.032 A 
HETATM    3  C7  UNL     1      26.517   3.381  49.816  1.00  0.00     0.041 A 
HETATM    4  C8  UNL     1      25.382   3.562  50.572  1.00  0.00     0.091 A 
HETATM    5  C16 UNL     1      24.856   4.868  50.465  1.00  0.00     0.069 A 
HETATM    6 CL1  UNL     1      23.403   5.457  51.304  1.00  0.00    -0.081 Cl
HETATM    7  C17 UNL     1      25.403   5.876  49.689  1.00  0.00     0.056 A 
ENDROOT
BRANCH   1   8
HETATM    8  N3  UNL     1      27.267   6.506  48.124  1.00  0.00    -0.343 N 
HETATM    9  H3  UNL     1      26.992   6.642  47.115  1.00  0.00     0.167 HD
BRANCH   8  10
HETATM   10  C4  UNL     1      28.380   7.295  48.459  1.00  0.00     0.131 C 
HETATM   11  N2  UNL     1      28.157   8.444  48.992  1.00  0.00    -0.137 NA
HETATM   12  N1  UNL     1      29.165   9.320  49.386  1.00  0.00    -0.161 NA
HETATM   13  C3  UNL     1      30.416   9.112  49.294  1.00  0.00     0.147 C 
HETATM   14  C2  UNL     1      30.755   7.800  48.719  1.00  0.00    -0.018 C 
HETATM   15  C1  UNL     1      31.988   7.237  48.696  1.00  0.00     0.450 C 
HETATM   16  C18 UNL     1      29.779   6.862  48.132  1.00  0.00     0.119 C 
HETATM   17  F1  UNL     1      32.859   8.067  49.289  1.00  0.00    -0.451 F 
ENDBRANCH   8  10
ENDBRANCH   1   8
BRANCH   4  18
HETATM   18  O1  UNL     1      24.586   2.873  51.414  1.00  0.00    -0.345 OA
BRANCH  18  19
HETATM   19  C9  UNL     1      24.807   2.505  52.743  1.00  0.00     0.214 C 
BRANCH  19  20
HETATM   20  C10 UNL     1      25.830   1.504  53.001  1.00  0.00    -0.031 A 
HETATM   21  C11 UNL     1      25.903   0.368  52.230  1.00  0.00     0.009 A 
HETATM   22  C12 UNL     1      26.730  -0.695  52.276  1.00  0.00     0.004 A 
HETATM   23  C13 UNL     1      27.703  -0.675  53.276  1.00  0.00     0.042 A 
HETATM   24  C14 UNL     1      27.793   0.412  54.175  1.00  0.00     0.117 A 
HETATM   25  F2  UNL     1      28.662   0.598  55.182  1.00  0.00    -0.206 F 
HETATM   26  C15 UNL     1      26.830   1.401  53.935  1.00  0.00     0.051 A 
ENDBRANCH  19  20
ENDBRANCH  18  19
ENDBRANCH   4  18
TORSDOF 5
ENDMDL
MODEL 9
REMARK VINA RESULT:      -8.1      3.391      4.429
REMARK  5 active torsions:
REMARK  status: ('A' for Active; 'I' for Inactive)
REMARK    1  A    between atoms: C4_7  and  N3_8 
REMARK    2  A    between atoms: N3_8  and  C5_9 
REMARK    3  A    between atoms: C8_12  and  O1_13 
REMARK    4  A    between atoms: O1_13  and  C9_14 
REMARK    5  A    between atoms: C9_14  and  C10_15 
ROOT
HETATM    1  C5  UNL     1      23.865  -0.111  53.724  1.00  0.00     0.035 A 
HETATM    2  C6  UNL     1      22.844  -1.019  53.771  1.00  0.00     0.032 A 
HETATM    3  C7  UNL     1      21.602  -0.773  53.258  1.00  0.00     0.041 A 
HETATM    4  C8  UNL     1      21.267   0.414  52.648  1.00  0.00     0.091 A 
HETATM    5  C16 UNL     1      22.337   1.333  52.613  1.00  0.00     0.069 A 
HETATM    6 CL1  UNL     1      22.263   2.963  51.907  1.00  0.00    -0.081 Cl
HETATM    7  C17 UNL     1      23.600   1.092  53.129  1.00  0.00     0.056 A 
ENDROOT
BRANCH   1   8
HETATM    8  N3  UNL     1      25.067  -0.562  54.329  1.00  0.00    -0.343 N 
HETATM    9  H3  UNL     1      25.061  -1.382  54.990  1.00  0.00     0.167 HD
BRANCH   8  10
HETATM   10  C4  UNL     1      26.364  -0.052  54.158  1.00  0.00     0.131 C 
HETATM   11  N2  UNL     1      26.579   1.165  54.510  1.00  0.00    -0.137 NA
HETATM   12  N1  UNL     1      27.818   1.791  54.411  1.00  0.00    -0.161 NA
HETATM   13  C3  UNL     1      28.892   1.260  53.984  1.00  0.00     0.147 C 
HETATM   14  C2  UNL     1      28.737  -0.148  53.586  1.00  0.00    -0.018 C 
HETATM   15  C1  UNL     1      29.744  -1.008  53.296  1.00  0.00     0.450 C 
HETATM   16  C18 UNL     1      27.448  -0.862  53.509  1.00  0.00     0.119 C 
HETATM   17  F1  UNL     1      30.916  -0.370  53.431  1.00  0.00    -0.451 F 
ENDBRANCH   8  10
ENDBRANCH   1   8
BRANCH   4  18
HETATM   18  O1  UNL     1      20.208   1.004  52.057  1.00  0.00    -0.345 OA
BRANCH  18  19
HETATM   19  C9  UNL     1      19.602   0.718  50.832  1.00  0.00     0.214 C 
BRANCH  19  20
HETATM   20  C10 UNL     1      20.097   1.418  49.658  1.00  0.00    -0.031 A 
HETATM   21  C11 UNL     1      19.347   2.408  49.069  1.00  0.00     0.009 A 
HETATM   22  C12 UNL     1      19.570   3.179  47.987  1.00  0.00     0.004 A 
HETATM   23  C13 UNL     1      20.773   2.961  47.314  1.00  0.00     0.042 A 
HETATM   24  C14 UNL     1      21.686   1.981  47.766  1.00  0.00     0.117 A 
HETATM   25  F2  UNL     1      22.880   1.647  47.249  1.00  0.00    -0.206 F 
HETATM   26  C15 UNL     1      21.241   1.305  48.909  1.00  0.00     0.051 A 
ENDBRANCH  19  20
ENDBRANCH  18  19
ENDBRANCH   4  18
TORSDOF 5
ENDMDL
