MODEL 1
REMARK VINA RESULT:      -8.0      0.000      0.000
REMARK  4 active torsions:
REMARK  status: ('A' for Active; 'I' for Inactive)
REMARK    1  A    between atoms: C1_2  and  N1_3 
REMARK    2  A    between atoms: N1_3  and  C2_4 
REMARK    3  A    between atoms: C5_7  and  N2_8 
REMARK    4  A    between atoms: N2_8  and  C6_9 
ROOT
HETATM    1  C2  UNL     1      24.628  -0.372  53.733  1.00  0.00     0.130 A 
HETATM    2  C3  UNL     1      25.266   0.487  52.849  1.00  0.00     0.068 A 
HETATM    3  C4  UNL     1      26.476   1.092  53.049  1.00  0.00     0.044 A 
HETATM    4  C5  UNL     1      27.081   1.931  52.165  1.00  0.00     0.142 A 
HETATM    5  N3  UNL     1      28.261   2.401  52.580  1.00  0.00    -0.224 NA
HETATM    6  C12 UNL     1      28.837   2.107  53.741  1.00  0.00     0.236 A 
HETATM    7  N4  UNL     1      28.235   1.278  54.608  1.00  0.00    -0.240 NA
HETATM    8  C13 UNL     1      27.050   0.771  54.258  1.00  0.00     0.089 A 
HETATM    9  C14 UNL     1      26.455  -0.077  55.167  1.00  0.00     0.151 A 
HETATM   10  N5  UNL     1      25.243  -0.646  54.901  1.00  0.00    -0.241 NA
ENDROOT
BRANCH   4  11
HETATM   11  N2  UNL     1      26.463   2.228  50.945  1.00  0.00    -0.340 N 
HETATM   12  H4  UNL     1      26.133   1.492  50.318  1.00  0.00     0.167 HD
BRANCH  11  13
HETATM   13  C6  UNL     1      26.177   3.486  50.351  1.00  0.00     0.035 A 
HETATM   14  C7  UNL     1      26.911   4.084  49.336  1.00  0.00     0.032 A 
HETATM   15  C8  UNL     1      26.608   5.296  48.782  1.00  0.00     0.046 A 
HETATM   16  C9  UNL     1      25.519   6.015  49.216  1.00  0.00     0.138 A 
HETATM   17  F1  UNL     1      25.301   7.198  48.611  1.00  0.00    -0.204 F 
HETATM   18  C10 UNL     1      24.751   5.455  50.234  1.00  0.00     0.074 A 
HETATM   19 CL1  UNL     1      23.387   6.413  50.739  1.00  0.00    -0.081 Cl
HETATM   20  C11 UNL     1      25.102   4.229  50.758  1.00  0.00     0.056 A 
ENDBRANCH  11  13
ENDBRANCH   4  11
BRANCH   1  21
HETATM   21  N1  UNL     1      23.365  -0.958  53.443  1.00  0.00    -0.319 N 
HETATM   22  H2  UNL     1      23.218  -1.414  52.509  1.00  0.00     0.169 HD
BRANCH  21  23
HETATM   23  C1  UNL     1      22.321  -0.922  54.406  1.00  0.00     0.354 C 
HETATM   24  O1  UNL     1      22.081  -1.981  55.075  1.00  0.00    -0.283 OA
ENDBRANCH  21  23
ENDBRANCH   1  21
TORSDOF 4
ENDMDL
MODEL 2
REMARK VINA RESULT:      -8.0      3.839      5.713
REMARK  4 active torsions:
REMARK  status: ('A' for Active; 'I' for Inactive)
REMARK    1  A    between atoms: C1_2  and  N1_3 
REMARK    2  A    between atoms: N1_3  and  C2_4 
REMARK    3  A    between atoms: C5_7  and  N2_8 
REMARK    4  A    between atoms: N2_8  and  C6_9 
ROOT
HETATM    1  C2  UNL     1      22.104  -0.098  52.575  1.00  0.00     0.130 A 
HETATM    2  C3  UNL     1      23.299   0.589  52.734  1.00  0.00     0.068 A 
HETATM    3  C4  UNL     1      23.818   1.509  51.866  1.00  0.00     0.044 A 
HETATM    4  C5  UNL     1      24.994   2.170  52.046  1.00  0.00     0.142 A 
HETATM    5  N3  UNL     1      25.297   3.022  51.062  1.00  0.00    -0.224 NA
HETATM    6  C12 UNL     1      24.551   3.243  49.984  1.00  0.00     0.236 A 
HETATM    7  N4  UNL     1      23.392   2.588  49.813  1.00  0.00    -0.240 NA
HETATM    8  C13 UNL     1      23.028   1.719  50.759  1.00  0.00     0.089 A 
HETATM    9  C14 UNL     1      21.833   1.061  50.558  1.00  0.00     0.151 A 
HETATM   10  N5  UNL     1      21.375   0.152  51.468  1.00  0.00    -0.241 NA
ENDROOT
BRANCH   4  11
HETATM   11  N2  UNL     1      25.766   1.929  53.188  1.00  0.00    -0.340 N 
HETATM   12  H4  UNL     1      25.507   2.308  54.100  1.00  0.00     0.167 HD
BRANCH  11  13
HETATM   13  C6  UNL     1      26.964   1.181  53.337  1.00  0.00     0.035 A 
HETATM   14  C7  UNL     1      28.185   1.689  53.758  1.00  0.00     0.032 A 
HETATM   15  C8  UNL     1      29.322   0.942  53.894  1.00  0.00     0.046 A 
HETATM   16  C9  UNL     1      29.316  -0.404  53.612  1.00  0.00     0.138 A 
HETATM   17  F1  UNL     1      30.483  -1.056  53.776  1.00  0.00    -0.204 F 
HETATM   18  C10 UNL     1      28.112  -0.960  53.186  1.00  0.00     0.074 A 
HETATM   19 CL1  UNL     1      28.170  -2.667  52.846  1.00  0.00    -0.081 Cl
HETATM   20  C11 UNL     1      26.996  -0.160  53.066  1.00  0.00     0.056 A 
ENDBRANCH  11  13
ENDBRANCH   4  11
BRANCH   1  21
HETATM   21  N1  UNL     1      21.638  -1.042  53.531  1.00  0.00    -0.319 N 
HETATM   22  H2  UNL     1      21.053  -1.850  53.205  1.00  0.00     0.169 HD
BRANCH  21  23
HETATM   23  C1  UNL     1      21.962  -0.888  54.906  1.00  0.00     0.354 C 
HETATM   24  O1  UNL     1      22.570  -1.843  55.493  1.00  0.00    -0.283 OA
ENDBRANCH  21  23
ENDBRANCH   1  21
TORSDOF 4
ENDMDL
MODEL 3
REMARK VINA RESULT:      -7.7      2.690      4.576
REMARK  4 active torsions:
REMARK  status: ('A' for Active; 'I' for Inactive)
REMARK    1  A    between atoms: C1_2  and  N1_3 
REMARK    2  A    between atoms: N1_3  and  C2_4 
REMARK    3  A    between atoms: C5_7  and  N2_8 
REMARK    4  A    between atoms: N2_8  and  C6_9 
ROOT
HETATM    1  C2  UNL     1      25.869  -0.229  54.187  1.00  0.00     0.130 A 
HETATM    2  C3  UNL     1      24.789   0.117  53.388  1.00  0.00     0.068 A 
HETATM    3  C4  UNL     1      23.484  -0.228  53.606  1.00  0.00     0.044 A 
HETATM    4  C5  UNL     1      22.442   0.125  52.805  1.00  0.00     0.142 A 
HETATM    5  N3  UNL     1      21.257  -0.331  53.221  1.00  0.00    -0.224 NA
HETATM    6  C12 UNL     1      21.058  -1.066  54.310  1.00  0.00     0.236 A 
HETATM    7  N4  UNL     1      22.091  -1.411  55.096  1.00  0.00    -0.240 NA
HETATM    8  C13 UNL     1      23.306  -0.989  54.739  1.00  0.00     0.089 A 
HETATM    9  C14 UNL     1      24.347  -1.358  55.564  1.00  0.00     0.151 A 
HETATM   10  N5  UNL     1      25.628  -0.976  55.283  1.00  0.00    -0.241 NA
ENDROOT
BRANCH   4  11
HETATM   11  N2  UNL     1      22.667   0.902  51.664  1.00  0.00    -0.340 N 
HETATM   12  H4  UNL     1      22.546   0.521  50.723  1.00  0.00     0.167 HD
BRANCH  11  13
HETATM   13  C6  UNL     1      23.073   2.258  51.549  1.00  0.00     0.035 A 
HETATM   14  C7  UNL     1      22.589   3.311  52.313  1.00  0.00     0.032 A 
HETATM   15  C8  UNL     1      23.002   4.608  52.181  1.00  0.00     0.046 A 
HETATM   16  C9  UNL     1      23.954   4.951  51.250  1.00  0.00     0.138 A 
HETATM   17  F1  UNL     1      24.297   6.252  51.193  1.00  0.00    -0.204 F 
HETATM   18  C10 UNL     1      24.471   3.926  50.460  1.00  0.00     0.074 A 
HETATM   19 CL1  UNL     1      25.673   4.424  49.303  1.00  0.00    -0.081 Cl
HETATM   20  C11 UNL     1      24.018   2.636  50.635  1.00  0.00     0.056 A 
ENDBRANCH  11  13
ENDBRANCH   4  11
BRANCH   1  21
HETATM   21  N1  UNL     1      27.198   0.175  53.884  1.00  0.00    -0.319 N 
HETATM   22  H2  UNL     1      27.420   0.508  52.914  1.00  0.00     0.169 HD
BRANCH  21  23
HETATM   23  C1  UNL     1      28.207   0.128  54.884  1.00  0.00     0.354 C 
HETATM   24  O1  UNL     1      28.915   1.171  55.076  1.00  0.00    -0.283 OA
ENDBRANCH  21  23
ENDBRANCH   1  21
TORSDOF 4
ENDMDL
MODEL 4
REMARK VINA RESULT:      -7.7      2.340      4.013
REMARK  4 active torsions:
REMARK  status: ('A' for Active; 'I' for Inactive)
REMARK    1  A    between atoms: C1_2  and  N1_3 
REMARK    2  A    between atoms: N1_3  and  C2_4 
REMARK    3  A    between atoms: C5_7  and  N2_8 
REMARK    4  A    between atoms: N2_8  and  C6_9 
ROOT
HETATM    1  C2  UNL     1      26.677   0.227  54.572  1.00  0.00     0.130 A 
HETATM    2  C3  UNL     1      26.037   0.828  53.497  1.00  0.00     0.068 A 
HETATM    3  C4  UNL     1      24.751   0.595  53.095  1.00  0.00     0.044 A 
HETATM    4  C5  UNL     1      24.146   1.199  52.037  1.00  0.00     0.142 A 
HETATM    5  N3  UNL     1      22.884   0.809  51.835  1.00  0.00    -0.224 NA
HETATM    6  C12 UNL     1      22.231  -0.083  52.573  1.00  0.00     0.236 A 
HETATM    7  N4  UNL     1      22.834  -0.675  53.616  1.00  0.00    -0.240 NA
HETATM    8  C13 UNL     1      24.098  -0.333  53.874  1.00  0.00     0.089 A 
HETATM    9  C14 UNL     1      24.693  -0.956  54.951  1.00  0.00     0.151 A 
HETATM   10  N5  UNL     1      25.983  -0.674  55.296  1.00  0.00    -0.241 NA
ENDROOT
BRANCH   4  11
HETATM   11  N2  UNL     1      24.846   2.138  51.272  1.00  0.00    -0.340 N 
HETATM   12  H4  UNL     1      25.628   1.867  50.673  1.00  0.00     0.167 HD
BRANCH  11  13
HETATM   13  C6  UNL     1      24.657   3.541  51.155  1.00  0.00     0.035 A 
HETATM   14  C7  UNL     1      23.774   4.301  51.908  1.00  0.00     0.032 A 
HETATM   15  C8  UNL     1      23.616   5.652  51.775  1.00  0.00     0.046 A 
HETATM   16  C9  UNL     1      24.353   6.358  50.852  1.00  0.00     0.138 A 
HETATM   17  F1  UNL     1      24.129   7.684  50.793  1.00  0.00    -0.204 F 
HETATM   18  C10 UNL     1      25.255   5.637  50.072  1.00  0.00     0.074 A 
HETATM   19 CL1  UNL     1      26.158   6.587  48.925  1.00  0.00    -0.081 Cl
HETATM   20  C11 UNL     1      25.373   4.275  50.249  1.00  0.00     0.056 A 
ENDBRANCH  11  13
ENDBRANCH   4  11
BRANCH   1  21
HETATM   21  N1  UNL     1      28.023   0.530  54.920  1.00  0.00    -0.319 N 
HETATM   22  H2  UNL     1      28.406   0.173  55.829  1.00  0.00     0.169 HD
BRANCH  21  23
HETATM   23  C1  UNL     1      28.831   1.306  54.046  1.00  0.00     0.354 C 
HETATM   24  O1  UNL     1      29.015   2.536  54.327  1.00  0.00    -0.283 OA
ENDBRANCH  21  23
ENDBRANCH   1  21
TORSDOF 4
ENDMDL
MODEL 5
REMARK VINA RESULT:      -7.5      2.231      3.067
REMARK  4 active torsions:
REMARK  status: ('A' for Active; 'I' for Inactive)
REMARK    1  A    between atoms: C1_2  and  N1_3 
REMARK    2  A    between atoms: N1_3  and  C2_4 
REMARK    3  A    between atoms: C5_7  and  N2_8 
REMARK    4  A    between atoms: N2_8  and  C6_9 
ROOT
HETATM    1  C2  UNL     1      21.787  -0.613  54.523  1.00  0.00     0.130 A 
HETATM    2  C3  UNL     1      22.596   0.031  53.597  1.00  0.00     0.068 A 
HETATM    3  C4  UNL     1      23.961  -0.025  53.548  1.00  0.00     0.044 A 
HETATM    4  C5  UNL     1      24.733   0.616  52.629  1.00  0.00     0.142 A 
HETATM    5  N3  UNL     1      26.045   0.413  52.781  1.00  0.00    -0.224 NA
HETATM    6  C12 UNL     1      26.599  -0.339  53.727  1.00  0.00     0.236 A 
HETATM    7  N4  UNL     1      25.831  -0.969  54.630  1.00  0.00    -0.240 NA
HETATM    8  C13 UNL     1      24.509  -0.809  54.537  1.00  0.00     0.089 A 
HETATM    9  C14 UNL     1      23.746  -1.468  55.478  1.00  0.00     0.151 A 
HETATM   10  N5  UNL     1      22.385  -1.366  55.467  1.00  0.00    -0.241 NA
ENDROOT
BRANCH   4  11
HETATM   11  N2  UNL     1      24.135   1.402  51.637  1.00  0.00    -0.340 N 
HETATM   12  H4  UNL     1      23.641   0.983  50.847  1.00  0.00     0.167 HD
BRANCH  11  13
HETATM   13  C6  UNL     1      24.076   2.815  51.505  1.00  0.00     0.035 A 
HETATM   14  C7  UNL     1      23.424   3.678  52.374  1.00  0.00     0.032 A 
HETATM   15  C8  UNL     1      23.387   5.036  52.222  1.00  0.00     0.046 A 
HETATM   16  C9  UNL     1      24.018   5.642  51.160  1.00  0.00     0.138 A 
HETATM   17  F1  UNL     1      23.926   6.984  51.094  1.00  0.00    -0.204 F 
HETATM   18  C10 UNL     1      24.687   4.815  50.261  1.00  0.00     0.074 A 
HETATM   19 CL1  UNL     1      25.466   5.641  48.941  1.00  0.00    -0.081 Cl
HETATM   20  C11 UNL     1      24.692   3.451  50.463  1.00  0.00     0.056 A 
ENDBRANCH  11  13
ENDBRANCH   4  11
BRANCH   1  21
HETATM   21  N1  UNL     1      20.369  -0.499  54.500  1.00  0.00    -0.319 N 
HETATM   22  H2  UNL     1      19.852  -0.402  55.408  1.00  0.00     0.169 HD
BRANCH  21  23
HETATM   23  C1  UNL     1      19.669  -0.516  53.264  1.00  0.00     0.354 C 
HETATM   24  O1  UNL     1      18.437  -0.842  53.273  1.00  0.00    -0.283 OA
ENDBRANCH  21  23
ENDBRANCH   1  21
TORSDOF 4
ENDMDL
MODEL 6
REMARK VINA RESULT:      -7.2      3.740      6.379
REMARK  4 active torsions:
REMARK  status: ('A' for Active; 'I' for Inactive)
REMARK    1  A    between atoms: C1_2  and  N1_3 
REMARK    2  A    between atoms: N1_3  and  C2_4 
REMARK    3  A    between atoms: C5_7  and  N2_8 
REMARK    4  A    between atoms: N2_8  and  C6_9 
ROOT
HETATM    1  C2  UNL     1      26.623   2.178  51.308  1.00  0.00     0.130 A 
HETATM    2  C3  UNL     1      25.795   1.197  51.835  1.00  0.00     0.068 A 
HETATM    3  C4  UNL     1      25.902   0.639  53.079  1.00  0.00     0.044 A 
HETATM    4  C5  UNL     1      25.076  -0.323  53.573  1.00  0.00     0.142 A 
HETATM    5  N3  UNL     1      25.377  -0.715  54.815  1.00  0.00    -0.224 NA
HETATM    6  C12 UNL     1      26.381  -0.241  55.545  1.00  0.00     0.236 A 
HETATM    7  N4  UNL     1      27.192   0.709  55.051  1.00  0.00    -0.240 NA
HETATM    8  C13 UNL     1      26.949   1.147  53.814  1.00  0.00     0.089 A 
HETATM    9  C14 UNL     1      27.797   2.121  53.333  1.00  0.00     0.151 A 
HETATM   10  N5  UNL     1      27.631   2.633  52.078  1.00  0.00    -0.241 NA
ENDROOT
BRANCH   4  11
HETATM   11  N2  UNL     1      24.021  -0.810  52.793  1.00  0.00    -0.340 N 
HETATM   12  H4  UNL     1      24.187  -1.276  51.899  1.00  0.00     0.167 HD
BRANCH  11  13
HETATM   13  C6  UNL     1      22.621  -0.777  53.030  1.00  0.00     0.035 A 
HETATM   14  C7  UNL     1      21.956  -1.481  54.024  1.00  0.00     0.032 A 
HETATM   15  C8  UNL     1      20.605  -1.427  54.229  1.00  0.00     0.046 A 
HETATM   16  C9  UNL     1      19.804  -0.644  53.431  1.00  0.00     0.138 A 
HETATM   17  F1  UNL     1      18.487  -0.655  53.709  1.00  0.00    -0.204 F 
HETATM   18  C10 UNL     1      20.428   0.082  52.419  1.00  0.00     0.074 A 
HETATM   19 CL1  UNL     1      19.360   1.055  51.446  1.00  0.00    -0.081 Cl
HETATM   20  C11 UNL     1      21.794  -0.009  52.257  1.00  0.00     0.056 A 
ENDBRANCH  11  13
ENDBRANCH   4  11
BRANCH   1  21
HETATM   21  N1  UNL     1      26.439   2.703  49.999  1.00  0.00    -0.319 N 
HETATM   22  H2  UNL     1      26.344   2.038  49.193  1.00  0.00     0.169 HD
BRANCH  21  23
HETATM   23  C1  UNL     1      26.386   4.107  49.792  1.00  0.00     0.354 C 
HETATM   24  O1  UNL     1      25.461   4.573  49.049  1.00  0.00    -0.283 OA
ENDBRANCH  21  23
ENDBRANCH   1  21
TORSDOF 4
ENDMDL
MODEL 7
REMARK VINA RESULT:      -7.2      4.355      6.592
REMARK  4 active torsions:
REMARK  status: ('A' for Active; 'I' for Inactive)
REMARK    1  A    between atoms: C1_2  and  N1_3 
REMARK    2  A    between atoms: N1_3  and  C2_4 
REMARK    3  A    between atoms: C5_7  and  N2_8 
REMARK    4  A    between atoms: N2_8  and  C6_9 
ROOT
HETATM    1  C2  UNL     1      22.034   3.736  51.774  1.00  0.00     0.130 A 
HETATM    2  C3  UNL     1      23.008   2.756  51.903  1.00  0.00     0.068 A 
HETATM    3  C4  UNL     1      22.831   1.515  52.450  1.00  0.00     0.044 A 
HETATM    4  C5  UNL     1      23.803   0.570  52.565  1.00  0.00     0.142 A 
HETATM    5  N3  UNL     1      23.394  -0.567  53.134  1.00  0.00    -0.224 NA
HETATM    6  C12 UNL     1      22.160  -0.806  53.567  1.00  0.00     0.236 A 
HETATM    7  N4  UNL     1      21.205   0.131  53.450  1.00  0.00    -0.240 NA
HETATM    8  C13 UNL     1      21.546   1.293  52.890  1.00  0.00     0.089 A 
HETATM    9  C14 UNL     1      20.546   2.236  52.783  1.00  0.00     0.151 A 
HETATM   10  N5  UNL     1      20.795   3.457  52.225  1.00  0.00    -0.241 NA
ENDROOT
BRANCH   4  11
HETATM   11  N2  UNL     1      25.097   0.836  52.102  1.00  0.00    -0.340 N 
HETATM   12  H4  UNL     1      25.263   1.413  51.276  1.00  0.00     0.167 HD
BRANCH  11  13
HETATM   13  C6  UNL     1      26.353   0.414  52.614  1.00  0.00     0.035 A 
HETATM   14  C7  UNL     1      26.851  -0.880  52.563  1.00  0.00     0.032 A 
HETATM   15  C8  UNL     1      28.066  -1.255  53.063  1.00  0.00     0.046 A 
HETATM   16  C9  UNL     1      28.892  -0.336  53.666  1.00  0.00     0.138 A 
HETATM   17  F1  UNL     1      30.069  -0.798  54.128  1.00  0.00    -0.204 F 
HETATM   18  C10 UNL     1      28.435   0.978  53.741  1.00  0.00     0.074 A 
HETATM   19 CL1  UNL     1      29.526   2.094  54.514  1.00  0.00    -0.081 Cl
HETATM   20  C11 UNL     1      27.200   1.301  53.220  1.00  0.00     0.056 A 
ENDBRANCH  11  13
ENDBRANCH   4  11
BRANCH   1  21
HETATM   21  N1  UNL     1      22.307   5.004  51.190  1.00  0.00    -0.319 N 
HETATM   22  H2  UNL     1      21.510   5.575  50.819  1.00  0.00     0.169 HD
BRANCH  21  23
HETATM   23  C1  UNL     1      23.642   5.485  51.114  1.00  0.00     0.354 C 
HETATM   24  O1  UNL     1      23.849   6.726  51.318  1.00  0.00    -0.283 OA
ENDBRANCH  21  23
ENDBRANCH   1  21
TORSDOF 4
ENDMDL
MODEL 8
REMARK VINA RESULT:      -7.2      2.479      4.136
REMARK  4 active torsions:
REMARK  status: ('A' for Active; 'I' for Inactive)
REMARK    1  A    between atoms: C1_2  and  N1_3 
REMARK    2  A    between atoms: N1_3  and  C2_4 
REMARK    3  A    between atoms: C5_7  and  N2_8 
REMARK    4  A    between atoms: N2_8  and  C6_9 
ROOT
HETATM    1  C2  UNL     1      24.875  -0.586  54.173  1.00  0.00     0.130 A 
HETATM    2  C3  UNL     1      24.556   0.214  53.085  1.00  0.00     0.068 A 
HETATM    3  C4  UNL     1      23.296   0.578  52.697  1.00  0.00     0.044 A 
HETATM    4  C5  UNL     1      23.010   1.365  51.625  1.00  0.00     0.142 A 
HETATM    5  N3  UNL     1      21.705   1.585  51.443  1.00  0.00    -0.224 NA
HETATM    6  C12 UNL     1      20.732   1.102  52.211  1.00  0.00     0.236 A 
HETATM    7  N4  UNL     1      21.022   0.327  53.268  1.00  0.00    -0.240 NA
HETATM    8  C13 UNL     1      22.309   0.066  53.508  1.00  0.00     0.089 A 
HETATM    9  C14 UNL     1      22.577  -0.733  54.599  1.00  0.00     0.151 A 
HETATM   10  N5  UNL     1      23.862  -1.057  54.928  1.00  0.00    -0.241 NA
ENDROOT
BRANCH   4  11
HETATM   11  N2  UNL     1      24.044   1.867  50.828  1.00  0.00    -0.340 N 
HETATM   12  H4  UNL     1      24.648   1.250  50.281  1.00  0.00     0.167 HD
BRANCH  11  13
HETATM   13  C6  UNL     1      24.459   3.208  50.610  1.00  0.00     0.035 A 
HETATM   14  C7  UNL     1      23.843   4.337  51.134  1.00  0.00     0.032 A 
HETATM   15  C8  UNL     1      24.267   5.617  50.908  1.00  0.00     0.046 A 
HETATM   16  C9  UNL     1      25.368   5.864  50.121  1.00  0.00     0.138 A 
HETATM   17  F1  UNL     1      25.710   7.156  49.956  1.00  0.00    -0.204 F 
HETATM   18  C10 UNL     1      26.020   4.761  49.574  1.00  0.00     0.074 A 
HETATM   19 CL1  UNL     1      27.406   5.139  48.589  1.00  0.00    -0.081 Cl
HETATM   20  C11 UNL     1      25.549   3.492  49.834  1.00  0.00     0.056 A 
ENDBRANCH  11  13
ENDBRANCH   4  11
BRANCH   1  21
HETATM   21  N1  UNL     1      26.218  -0.917  54.504  1.00  0.00    -0.319 N 
HETATM   22  H2  UNL     1      26.498  -1.927  54.545  1.00  0.00     0.169 HD
BRANCH  21  23
HETATM   23  C1  UNL     1      27.162   0.111  54.775  1.00  0.00     0.354 C 
HETATM   24  O1  UNL     1      28.356  -0.229  55.065  1.00  0.00    -0.283 OA
ENDBRANCH  21  23
ENDBRANCH   1  21
TORSDOF 4
ENDMDL
MODEL 9
REMARK VINA RESULT:      -7.2      4.350      7.004
REMARK  4 active torsions:
REMARK  status: ('A' for Active; 'I' for Inactive)
REMARK    1  A    between atoms: C1_2  and  N1_3 
REMARK    2  A    between atoms: N1_3  and  C2_4 
REMARK    3  A    between atoms: C5_7  and  N2_8 
REMARK    4  A    between atoms: N2_8  and  C6_9 
ROOT
HETATM    1  C2  UNL     1      26.334   2.586  52.482  1.00  0.00     0.130 A 
HETATM    2  C3  UNL     1      24.947   2.547  52.450  1.00  0.00     0.068 A 
HETATM    3  C4  UNL     1      24.163   2.771  51.352  1.00  0.00     0.044 A 
HETATM    4  C5  UNL     1      22.803   2.727  51.347  1.00  0.00     0.142 A 
HETATM    5  N3  UNL     1      22.254   2.980  50.155  1.00  0.00    -0.224 NA
HETATM    6  C12 UNL     1      22.930   3.256  49.044  1.00  0.00     0.236 A 
HETATM    7  N4  UNL     1      24.272   3.297  49.056  1.00  0.00    -0.240 NA
HETATM    8  C13 UNL     1      24.886   3.054  50.216  1.00  0.00     0.089 A 
HETATM    9  C14 UNL     1      26.264   3.103  50.199  1.00  0.00     0.151 A 
HETATM   10  N5  UNL     1      26.984   2.869  51.336  1.00  0.00    -0.241 NA
ENDROOT
BRANCH   4  11
HETATM   11  N2  UNL     1      22.106   2.433  52.524  1.00  0.00    -0.340 N 
HETATM   12  H4  UNL     1      22.030   3.110  53.285  1.00  0.00     0.167 HD
BRANCH  11  13
HETATM   13  C6  UNL     1      21.413   1.253  52.902  1.00  0.00     0.035 A 
HETATM   14  C7  UNL     1      21.876   0.297  53.795  1.00  0.00     0.032 A 
HETATM   15  C8  UNL     1      21.183  -0.829  54.142  1.00  0.00     0.046 A 
HETATM   16  C9  UNL     1      19.943  -1.085  53.604  1.00  0.00     0.138 A 
HETATM   17  F1  UNL     1      19.338  -2.219  54.005  1.00  0.00    -0.204 F 
HETATM   18  C10 UNL     1      19.436  -0.152  52.702  1.00  0.00     0.074 A 
HETATM   19 CL1  UNL     1      17.863  -0.532  52.059  1.00  0.00    -0.081 Cl
HETATM   20  C11 UNL     1      20.178   0.966  52.388  1.00  0.00     0.056 A 
ENDBRANCH  11  13
ENDBRANCH   4  11
BRANCH   1  21
HETATM   21  N1  UNL     1      27.072   2.340  53.673  1.00  0.00    -0.319 N 
HETATM   22  H2  UNL     1      26.552   2.139  54.562  1.00  0.00     0.169 HD
BRANCH  21  23
HETATM   23  C1  UNL     1      28.493   2.368  53.653  1.00  0.00     0.354 C 
HETATM   24  O1  UNL     1      29.114   2.259  54.762  1.00  0.00    -0.283 OA
ENDBRANCH  21  23
ENDBRANCH   1  21
TORSDOF 4
ENDMDL
