MODEL 1
REMARK VINA RESULT:      -8.2      0.000      0.000
REMARK  6 active torsions:
REMARK  status: ('A' for Active; 'I' for Inactive)
REMARK    1  A    between atoms: C2_2  and  O1_3 
REMARK    2  A    between atoms: O1_3  and  C3_4 
REMARK    3  A    between atoms: C3_4  and  C4_5 
REMARK    4  A    between atoms: C4_5  and  C5_6 
REMARK    5  A    between atoms: C5_6  and  C6_7 
REMARK    6  A    between atoms: C6_7  and  C7_8 
ROOT
HETATM    1  C7  UNL     1      24.891   2.378  52.471  1.00  0.00     0.076 C 
HETATM    2  C8  UNL     1      24.262   3.227  51.630  1.00  0.00     0.079 C 
HETATM    3  C9  UNL     1      25.108   3.752  50.487  1.00  0.00     0.094 C 
HETATM    4  C10 UNL     1      24.354   3.442  49.214  1.00  0.00    -0.020 C 
HETATM    5  C11 UNL     1      23.320   3.050  48.537  1.00  0.00    -0.004 C 
HETATM    6  C12 UNL     1      21.981   2.589  48.659  1.00  0.00    -0.003 C 
HETATM    7  C13 UNL     1      20.751   2.160  48.708  1.00  0.00    -0.007 C 
HETATM    8  C14 UNL     1      19.390   1.711  49.027  1.00  0.00     0.148 C 
HETATM    9  N1  UNL     1      18.971   1.867  50.371  1.00  0.00    -0.372 N 
HETATM   10  C15 UNL     1      19.361   1.186  51.496  1.00  0.00     0.136 C 
HETATM   11  N2  UNL     1      18.509   0.281  51.784  1.00  0.00    -0.226 NA
HETATM   12  C16 UNL     1      18.705  -0.618  52.890  1.00  0.00     0.235 C 
HETATM   13  N3  UNL     1      19.805  -0.667  53.683  1.00  0.00    -0.244 NA
HETATM   14  C17 UNL     1      20.837   0.277  53.236  1.00  0.00     0.070 C 
HETATM   15  C18 UNL     1      22.157   0.051  53.415  1.00  0.00     0.030 C 
HETATM   16  C19 UNL     1      23.012   1.034  52.887  1.00  0.00     0.205 C 
HETATM   17  O2  UNL     1      23.947   1.871  53.493  1.00  0.00    -0.349 OA
HETATM   18  C20 UNL     1      20.243   1.451  52.642  1.00  0.00     0.242 C 
HETATM   19  O3  UNL     1      21.070   2.467  52.539  1.00  0.00    -0.370 OA
HETATM   20  C21 UNL     1      20.783   3.745  52.253  1.00  0.00     0.196 C 
HETATM   21  C22 UNL     1      22.207   4.427  52.378  1.00  0.00     0.201 C 
HETATM   22  O4  UNL     1      23.046   3.794  51.471  1.00  0.00    -0.350 OA
HETATM   23  H22 UNL     1      18.256   2.599  50.602  1.00  0.00     0.161 HD
ENDROOT
BRANCH   1  24
HETATM   24  C6  UNL     1      26.249   1.833  52.578  1.00  0.00     0.067 C 
BRANCH  24  25
HETATM   25  C5  UNL     1      26.492   0.553  51.827  1.00  0.00     0.009 C 
BRANCH  25  26
HETATM   26  C4  UNL     1      26.370  -0.557  52.886  1.00  0.00     0.027 C 
BRANCH  26  27
HETATM   27  C3  UNL     1      26.747  -0.008  54.254  1.00  0.00     0.167 C 
BRANCH  27  28
HETATM   28  O1  UNL     1      27.880  -0.618  54.725  1.00  0.00    -0.391 OA
BRANCH  28  29
HETATM   29  C2  UNL     1      29.067   0.014  54.444  1.00  0.00     0.163 C 
HETATM   30  C1  UNL     1      30.002  -0.725  53.545  1.00  0.00     0.033 C 
ENDBRANCH  28  29
ENDBRANCH  27  28
ENDBRANCH  26  27
ENDBRANCH  25  26
ENDBRANCH  24  25
ENDBRANCH   1  24
TORSDOF 6
ENDMDL
MODEL 2
REMARK VINA RESULT:      -7.4      2.838      6.148
REMARK  6 active torsions:
REMARK  status: ('A' for Active; 'I' for Inactive)
REMARK    1  A    between atoms: C2_2  and  O1_3 
REMARK    2  A    between atoms: O1_3  and  C3_4 
REMARK    3  A    between atoms: C3_4  and  C4_5 
REMARK    4  A    between atoms: C4_5  and  C5_6 
REMARK    5  A    between atoms: C5_6  and  C6_7 
REMARK    6  A    between atoms: C6_7  and  C7_8 
ROOT
HETATM    1  C7  UNL     1      22.752   0.969  52.676  1.00  0.00     0.076 C 
HETATM    2  C8  UNL     1      23.851   1.711  52.934  1.00  0.00     0.079 C 
HETATM    3  C9  UNL     1      25.030   0.947  53.502  1.00  0.00     0.094 C 
HETATM    4  C10 UNL     1      26.208   1.240  52.602  1.00  0.00    -0.020 C 
HETATM    5  C11 UNL     1      26.817   1.867  51.644  1.00  0.00    -0.004 C 
HETATM    6  C12 UNL     1      26.666   2.895  50.674  1.00  0.00    -0.003 C 
HETATM    7  C13 UNL     1      26.586   3.825  49.763  1.00  0.00    -0.007 C 
HETATM    8  C14 UNL     1      26.253   4.916  48.839  1.00  0.00     0.148 C 
HETATM    9  N1  UNL     1      25.051   5.618  49.097  1.00  0.00    -0.372 N 
HETATM   10  C15 UNL     1      23.749   5.214  48.943  1.00  0.00     0.136 C 
HETATM   11  N2  UNL     1      23.273   5.659  47.847  1.00  0.00    -0.226 NA
HETATM   12  C16 UNL     1      21.940   5.334  47.413  1.00  0.00     0.235 C 
HETATM   13  N3  UNL     1      21.086   4.491  48.047  1.00  0.00    -0.244 NA
HETATM   14  C17 UNL     1      21.711   3.870  49.222  1.00  0.00     0.070 C 
HETATM   15  C18 UNL     1      21.375   2.638  49.659  1.00  0.00     0.030 C 
HETATM   16  C19 UNL     1      22.103   2.174  50.770  1.00  0.00     0.205 C 
HETATM   17  O2  UNL     1      21.700   1.803  52.051  1.00  0.00    -0.349 OA
HETATM   18  C20 UNL     1      22.668   4.763  49.832  1.00  0.00     0.242 C 
HETATM   19  O3  UNL     1      23.003   4.422  51.056  1.00  0.00    -0.370 OA
HETATM   20  C21 UNL     1      23.672   5.144  51.965  1.00  0.00     0.196 C 
HETATM   21  C22 UNL     1      23.646   4.180  53.222  1.00  0.00     0.201 C 
HETATM   22  O4  UNL     1      24.260   2.994  52.841  1.00  0.00    -0.350 OA
HETATM   23  H22 UNL     1      25.100   6.601  49.461  1.00  0.00     0.161 HD
ENDROOT
BRANCH   1  24
HETATM   24  C6  UNL     1      22.386  -0.443  52.839  1.00  0.00     0.067 C 
BRANCH  24  25
HETATM   25  C5  UNL     1      22.060  -0.867  54.245  1.00  0.00     0.009 C 
BRANCH  25  26
HETATM   26  C4  UNL     1      20.678  -1.535  54.146  1.00  0.00     0.027 C 
BRANCH  26  27
HETATM   27  C3  UNL     1      19.672  -0.556  53.562  1.00  0.00     0.167 C 
BRANCH  27  28
HETATM   28  O1  UNL     1      18.520  -1.204  53.198  1.00  0.00    -0.391 OA
BRANCH  28  29
HETATM   29  C2  UNL     1      17.872  -0.707  52.093  1.00  0.00     0.163 C 
HETATM   30  C1  UNL     1      18.679   0.190  51.214  1.00  0.00     0.033 C 
ENDBRANCH  28  29
ENDBRANCH  27  28
ENDBRANCH  26  27
ENDBRANCH  25  26
ENDBRANCH  24  25
ENDBRANCH   1  24
TORSDOF 6
ENDMDL
MODEL 3
REMARK VINA RESULT:      -7.4      1.990      3.208
REMARK  6 active torsions:
REMARK  status: ('A' for Active; 'I' for Inactive)
REMARK    1  A    between atoms: C2_2  and  O1_3 
REMARK    2  A    between atoms: O1_3  and  C3_4 
REMARK    3  A    between atoms: C3_4  and  C4_5 
REMARK    4  A    between atoms: C4_5  and  C5_6 
REMARK    5  A    between atoms: C5_6  and  C6_7 
REMARK    6  A    between atoms: C6_7  and  C7_8 
ROOT
HETATM    1  C7  UNL     1      23.700   1.326  52.697  1.00  0.00     0.076 C 
HETATM    2  C8  UNL     1      24.369   2.449  52.356  1.00  0.00     0.079 C 
HETATM    3  C9  UNL     1      25.824   2.249  51.982  1.00  0.00     0.094 C 
HETATM    4  C10 UNL     1      26.006   2.866  50.615  1.00  0.00    -0.020 C 
HETATM    5  C11 UNL     1      25.630   3.570  49.593  1.00  0.00    -0.004 C 
HETATM    6  C12 UNL     1      24.564   4.357  49.077  1.00  0.00    -0.003 C 
HETATM    7  C13 UNL     1      23.621   5.087  48.550  1.00  0.00    -0.007 C 
HETATM    8  C14 UNL     1      22.432   5.869  48.190  1.00  0.00     0.148 C 
HETATM    9  N1  UNL     1      21.485   6.091  49.218  1.00  0.00    -0.372 N 
HETATM   10  C15 UNL     1      20.614   5.214  49.813  1.00  0.00     0.136 C 
HETATM   11  N2  UNL     1      19.451   5.328  49.303  1.00  0.00    -0.226 NA
HETATM   12  C16 UNL     1      18.360   4.483  49.709  1.00  0.00     0.235 C 
HETATM   13  N3  UNL     1      18.443   3.453  50.588  1.00  0.00    -0.244 NA
HETATM   14  C17 UNL     1      19.822   3.240  51.044  1.00  0.00     0.070 C 
HETATM   15  C18 UNL     1      20.292   2.026  51.401  1.00  0.00     0.030 C 
HETATM   16  C19 UNL     1      21.649   1.990  51.769  1.00  0.00     0.205 C 
HETATM   17  O2  UNL     1      22.276   1.633  52.961  1.00  0.00    -0.349 OA
HETATM   18  C20 UNL     1      20.550   4.486  51.090  1.00  0.00     0.242 C 
HETATM   19  O3  UNL     1      21.654   4.428  51.801  1.00  0.00    -0.370 OA
HETATM   20  C21 UNL     1      22.421   5.440  52.227  1.00  0.00     0.196 C 
HETATM   21  C22 UNL     1      23.512   4.676  53.084  1.00  0.00     0.201 C 
HETATM   22  O4  UNL     1      24.142   3.775  52.236  1.00  0.00    -0.350 OA
HETATM   23  H22 UNL     1      21.388   7.053  49.626  1.00  0.00     0.161 HD
ENDROOT
BRANCH   1  24
HETATM   24  C6  UNL     1      24.047  -0.094  52.827  1.00  0.00     0.067 C 
BRANCH  24  25
HETATM   25  C5  UNL     1      24.548  -0.514  54.181  1.00  0.00     0.009 C 
BRANCH  25  26
HETATM   26  C4  UNL     1      26.058  -0.739  53.993  1.00  0.00     0.027 C 
BRANCH  26  27
HETATM   27  C3  UNL     1      26.836   0.217  54.884  1.00  0.00     0.167 C 
BRANCH  27  28
HETATM   28  O1  UNL     1      28.097  -0.264  55.125  1.00  0.00    -0.391 OA
BRANCH  28  29
HETATM   29  C2  UNL     1      29.078   0.153  54.259  1.00  0.00     0.163 C 
HETATM   30  C1  UNL     1      29.758  -0.923  53.479  1.00  0.00     0.033 C 
ENDBRANCH  28  29
ENDBRANCH  27  28
ENDBRANCH  26  27
ENDBRANCH  25  26
ENDBRANCH  24  25
ENDBRANCH   1  24
TORSDOF 6
ENDMDL
MODEL 4
REMARK VINA RESULT:      -7.2      2.387      4.432
REMARK  6 active torsions:
REMARK  status: ('A' for Active; 'I' for Inactive)
REMARK    1  A    between atoms: C2_2  and  O1_3 
REMARK    2  A    between atoms: O1_3  and  C3_4 
REMARK    3  A    between atoms: C3_4  and  C4_5 
REMARK    4  A    between atoms: C4_5  and  C5_6 
REMARK    5  A    between atoms: C5_6  and  C6_7 
REMARK    6  A    between atoms: C6_7  and  C7_8 
ROOT
HETATM    1  C7  UNL     1      23.759   1.444  52.079  1.00  0.00     0.076 C 
HETATM    2  C8  UNL     1      22.640   1.021  51.451  1.00  0.00     0.079 C 
HETATM    3  C9  UNL     1      21.989  -0.211  52.047  1.00  0.00     0.094 C 
HETATM    4  C10 UNL     1      20.549   0.155  52.326  1.00  0.00    -0.020 C 
HETATM    5  C11 UNL     1      19.505   0.922  52.257  1.00  0.00    -0.004 C 
HETATM    6  C12 UNL     1      19.025   2.153  51.734  1.00  0.00    -0.003 C 
HETATM    7  C13 UNL     1      18.527   3.270  51.281  1.00  0.00    -0.007 C 
HETATM    8  C14 UNL     1      18.206   4.559  50.657  1.00  0.00     0.148 C 
HETATM    9  N1  UNL     1      19.167   5.084  49.760  1.00  0.00    -0.372 N 
HETATM   10  C15 UNL     1      20.404   5.620  50.014  1.00  0.00     0.136 C 
HETATM   11  N2  UNL     1      20.344   6.894  50.023  1.00  0.00    -0.226 NA
HETATM   12  C16 UNL     1      21.494   7.704  50.322  1.00  0.00     0.235 C 
HETATM   13  N3  UNL     1      22.714   7.240  50.691  1.00  0.00    -0.244 NA
HETATM   14  C17 UNL     1      22.718   5.777  50.826  1.00  0.00     0.070 C 
HETATM   15  C18 UNL     1      23.522   5.129  51.696  1.00  0.00     0.030 C 
HETATM   16  C19 UNL     1      23.367   3.731  51.731  1.00  0.00     0.205 C 
HETATM   17  O2  UNL     1      24.257   2.694  51.461  1.00  0.00    -0.349 OA
HETATM   18  C20 UNL     1      21.799   5.169  49.894  1.00  0.00     0.242 C 
HETATM   19  O3  UNL     1      21.999   3.882  49.718  1.00  0.00    -0.370 OA
HETATM   20  C21 UNL     1      21.485   3.083  48.773  1.00  0.00     0.196 C 
HETATM   21  C22 UNL     1      22.201   1.707  49.093  1.00  0.00     0.201 C 
HETATM   22  O4  UNL     1      21.869   1.366  50.397  1.00  0.00    -0.350 OA
HETATM   23  H22 UNL     1      18.957   5.092  48.732  1.00  0.00     0.161 HD
ENDROOT
BRANCH   1  24
HETATM   24  C6  UNL     1      24.551   0.977  53.222  1.00  0.00     0.067 C 
BRANCH  24  25
HETATM   25  C5  UNL     1      26.039   1.147  53.089  1.00  0.00     0.009 C 
BRANCH  25  26
HETATM   26  C4  UNL     1      26.472   0.072  52.077  1.00  0.00     0.027 C 
BRANCH  26  27
HETATM   27  C3  UNL     1      26.740  -1.239  52.799  1.00  0.00     0.167 C 
BRANCH  27  28
HETATM   28  O1  UNL     1      27.683  -1.068  53.779  1.00  0.00    -0.391 OA
BRANCH  28  29
HETATM   29  C2  UNL     1      28.981  -1.343  53.422  1.00  0.00     0.163 C 
HETATM   30  C1  UNL     1      29.939  -0.204  53.526  1.00  0.00     0.033 C 
ENDBRANCH  28  29
ENDBRANCH  27  28
ENDBRANCH  26  27
ENDBRANCH  25  26
ENDBRANCH  24  25
ENDBRANCH   1  24
TORSDOF 6
ENDMDL
MODEL 5
REMARK VINA RESULT:      -7.2      3.368      5.793
REMARK  6 active torsions:
REMARK  status: ('A' for Active; 'I' for Inactive)
REMARK    1  A    between atoms: C2_2  and  O1_3 
REMARK    2  A    between atoms: O1_3  and  C3_4 
REMARK    3  A    between atoms: C3_4  and  C4_5 
REMARK    4  A    between atoms: C4_5  and  C5_6 
REMARK    5  A    between atoms: C5_6  and  C6_7 
REMARK    6  A    between atoms: C6_7  and  C7_8 
ROOT
HETATM    1  C7  UNL     1      22.371   1.832  51.790  1.00  0.00     0.076 C 
HETATM    2  C8  UNL     1      23.523   2.420  52.176  1.00  0.00     0.079 C 
HETATM    3  C9  UNL     1      24.569   1.482  52.746  1.00  0.00     0.094 C 
HETATM    4  C10 UNL     1      25.832   1.709  51.947  1.00  0.00    -0.020 C 
HETATM    5  C11 UNL     1      26.571   2.337  51.085  1.00  0.00    -0.004 C 
HETATM    6  C12 UNL     1      26.601   3.449  50.201  1.00  0.00    -0.003 C 
HETATM    7  C13 UNL     1      26.688   4.452  49.373  1.00  0.00    -0.007 C 
HETATM    8  C14 UNL     1      26.541   5.645  48.529  1.00  0.00     0.148 C 
HETATM    9  N1  UNL     1      25.408   6.457  48.774  1.00  0.00    -0.372 N 
HETATM   10  C15 UNL     1      24.084   6.219  48.508  1.00  0.00     0.136 C 
HETATM   11  N2  UNL     1      23.736   6.802  47.428  1.00  0.00    -0.226 NA
HETATM   12  C16 UNL     1      22.409   6.669  46.889  1.00  0.00     0.235 C 
HETATM   13  N3  UNL     1      21.426   5.881  47.394  1.00  0.00    -0.244 NA
HETATM   14  C17 UNL     1      21.897   5.100  48.545  1.00  0.00     0.070 C 
HETATM   15  C18 UNL     1      21.397   3.884  48.853  1.00  0.00     0.030 C 
HETATM   16  C19 UNL     1      21.991   3.252  49.960  1.00  0.00     0.205 C 
HETATM   17  O2  UNL     1      21.462   2.829  51.178  1.00  0.00    -0.349 OA
HETATM   18  C20 UNL     1      22.901   5.826  49.288  1.00  0.00     0.242 C 
HETATM   19  O3  UNL     1      23.110   5.352  50.495  1.00  0.00    -0.370 OA
HETATM   20  C21 UNL     1      23.790   5.917  51.502  1.00  0.00     0.196 C 
HETATM   21  C22 UNL     1      23.571   4.865  52.666  1.00  0.00     0.201 C 
HETATM   22  O4  UNL     1      24.076   3.651  52.221  1.00  0.00    -0.350 OA
HETATM   23  H22 UNL     1      25.539   7.395  49.225  1.00  0.00     0.161 HD
ENDROOT
BRANCH   1  24
HETATM   24  C6  UNL     1      21.842   0.463  51.807  1.00  0.00     0.067 C 
BRANCH  24  25
HETATM   25  C5  UNL     1      20.580   0.268  52.601  1.00  0.00     0.009 C 
BRANCH  25  26
HETATM   26  C4  UNL     1      21.057  -0.094  54.019  1.00  0.00     0.027 C 
BRANCH  26  27
HETATM   27  C3  UNL     1      22.082  -1.214  53.948  1.00  0.00     0.167 C 
BRANCH  27  28
HETATM   28  O1  UNL     1      22.244  -1.800  55.176  1.00  0.00    -0.391 OA
BRANCH  28  29
HETATM   29  C2  UNL     1      23.444  -1.567  55.803  1.00  0.00     0.163 C 
HETATM   30  C1  UNL     1      24.543  -1.053  54.934  1.00  0.00     0.033 C 
ENDBRANCH  28  29
ENDBRANCH  27  28
ENDBRANCH  26  27
ENDBRANCH  25  26
ENDBRANCH  24  25
ENDBRANCH   1  24
TORSDOF 6
ENDMDL
MODEL 6
REMARK VINA RESULT:      -7.1      2.823      5.040
REMARK  6 active torsions:
REMARK  status: ('A' for Active; 'I' for Inactive)
REMARK    1  A    between atoms: C2_2  and  O1_3 
REMARK    2  A    between atoms: O1_3  and  C3_4 
REMARK    3  A    between atoms: C3_4  and  C4_5 
REMARK    4  A    between atoms: C4_5  and  C5_6 
REMARK    5  A    between atoms: C5_6  and  C6_7 
REMARK    6  A    between atoms: C6_7  and  C7_8 
ROOT
HETATM    1  C7  UNL     1      22.914   0.984  52.070  1.00  0.00     0.076 C 
HETATM    2  C8  UNL     1      21.788   1.283  51.387  1.00  0.00     0.079 C 
HETATM    3  C9  UNL     1      20.492   1.041  52.135  1.00  0.00     0.094 C 
HETATM    4  C10 UNL     1      19.723   2.341  52.099  1.00  0.00    -0.020 C 
HETATM    5  C11 UNL     1      19.501   3.555  51.698  1.00  0.00    -0.004 C 
HETATM    6  C12 UNL     1      19.985   4.583  50.844  1.00  0.00    -0.003 C 
HETATM    7  C13 UNL     1      20.381   5.563  50.082  1.00  0.00    -0.007 C 
HETATM    8  C14 UNL     1      21.016   6.496  49.143  1.00  0.00     0.148 C 
HETATM    9  N1  UNL     1      22.031   5.964  48.311  1.00  0.00    -0.372 N 
HETATM   10  C15 UNL     1      23.303   5.561  48.628  1.00  0.00     0.136 C 
HETATM   11  N2  UNL     1      24.143   6.477  48.342  1.00  0.00    -0.226 NA
HETATM   12  C16 UNL     1      25.546   6.334  48.627  1.00  0.00     0.235 C 
HETATM   13  N3  UNL     1      26.118   5.289  49.276  1.00  0.00    -0.244 NA
HETATM   14  C17 UNL     1      25.113   4.321  49.734  1.00  0.00     0.070 C 
HETATM   15  C18 UNL     1      25.281   3.565  50.840  1.00  0.00     0.030 C 
HETATM   16  C19 UNL     1      24.202   2.723  51.164  1.00  0.00     0.205 C 
HETATM   17  O2  UNL     1      24.111   1.337  51.274  1.00  0.00    -0.349 OA
HETATM   18  C20 UNL     1      23.988   4.276  48.830  1.00  0.00     0.242 C 
HETATM   19  O3  UNL     1      23.232   3.212  48.980  1.00  0.00    -0.370 OA
HETATM   20  C21 UNL     1      22.266   2.758  48.170  1.00  0.00     0.196 C 
HETATM   21  C22 UNL     1      21.841   1.417  48.897  1.00  0.00     0.201 C 
HETATM   22  O4  UNL     1      21.425   1.759  50.177  1.00  0.00    -0.350 OA
HETATM   23  H22 UNL     1      21.839   5.836  47.288  1.00  0.00     0.161 HD
ENDROOT
BRANCH   1  24
HETATM   24  C6  UNL     1      23.212   0.435  53.398  1.00  0.00     0.067 C 
BRANCH  24  25
HETATM   25  C5  UNL     1      24.173  -0.722  53.418  1.00  0.00     0.009 C 
BRANCH  25  26
HETATM   26  C4  UNL     1      25.205  -0.361  54.501  1.00  0.00     0.027 C 
BRANCH  26  27
HETATM   27  C3  UNL     1      26.591  -0.266  53.883  1.00  0.00     0.167 C 
BRANCH  27  28
HETATM   28  O1  UNL     1      27.560  -0.427  54.838  1.00  0.00    -0.391 OA
BRANCH  28  29
HETATM   29  C2  UNL     1      28.785   0.126  54.554  1.00  0.00     0.163 C 
HETATM   30  C1  UNL     1      29.711  -0.723  53.749  1.00  0.00     0.033 C 
ENDBRANCH  28  29
ENDBRANCH  27  28
ENDBRANCH  26  27
ENDBRANCH  25  26
ENDBRANCH  24  25
ENDBRANCH   1  24
TORSDOF 6
ENDMDL
MODEL 7
REMARK VINA RESULT:      -7.1      8.837     11.230
REMARK  6 active torsions:
REMARK  status: ('A' for Active; 'I' for Inactive)
REMARK    1  A    between atoms: C2_2  and  O1_3 
REMARK    2  A    between atoms: O1_3  and  C3_4 
REMARK    3  A    between atoms: C3_4  and  C4_5 
REMARK    4  A    between atoms: C4_5  and  C5_6 
REMARK    5  A    between atoms: C5_6  and  C6_7 
REMARK    6  A    between atoms: C6_7  and  C7_8 
ROOT
HETATM    1  C7  UNL     1      31.679   7.290  48.171  1.00  0.00     0.076 C 
HETATM    2  C8  UNL     1      30.565   6.867  47.537  1.00  0.00     0.079 C 
HETATM    3  C9  UNL     1      30.239   5.396  47.709  1.00  0.00     0.094 C 
HETATM    4  C10 UNL     1      28.821   5.326  48.228  1.00  0.00    -0.020 C 
HETATM    5  C11 UNL     1      27.664   5.826  48.531  1.00  0.00    -0.004 C 
HETATM    6  C12 UNL     1      26.900   7.025  48.527  1.00  0.00    -0.003 C 
HETATM    7  C13 UNL     1      26.151   8.093  48.550  1.00  0.00    -0.007 C 
HETATM    8  C14 UNL     1      25.518   9.414  48.460  1.00  0.00     0.148 C 
HETATM    9  N1  UNL     1      26.218  10.402  47.727  1.00  0.00    -0.372 N 
HETATM   10  C15 UNL     1      27.368  11.078  48.044  1.00  0.00     0.136 C 
HETATM   11  N2  UNL     1      27.091  12.232  48.513  1.00  0.00    -0.226 NA
HETATM   12  C16 UNL     1      28.117  13.127  48.977  1.00  0.00     0.235 C 
HETATM   13  N3  UNL     1      29.442  12.843  49.046  1.00  0.00    -0.244 NA
HETATM   14  C17 UNL     1      29.720  11.457  48.648  1.00  0.00     0.070 C 
HETATM   15  C18 UNL     1      30.752  10.748  49.153  1.00  0.00     0.030 C 
HETATM   16  C19 UNL     1      30.848   9.419  48.701  1.00  0.00     0.205 C 
HETATM   17  O2  UNL     1      31.849   8.751  47.999  1.00  0.00    -0.349 OA
HETATM   18  C20 UNL     1      28.782  11.008  47.646  1.00  0.00     0.242 C 
HETATM   19  O3  UNL     1      29.171   9.928  47.005  1.00  0.00    -0.370 OA
HETATM   20  C21 UNL     1      28.659   9.397  45.887  1.00  0.00     0.196 C 
HETATM   21  C22 UNL     1      29.643   8.183  45.629  1.00  0.00     0.201 C 
HETATM   22  O4  UNL     1      29.587   7.365  46.749  1.00  0.00    -0.350 OA
HETATM   23  H22 UNL     1      25.848  10.705  46.793  1.00  0.00     0.161 HD
ENDROOT
BRANCH   1  24
HETATM   24  C6  UNL     1      32.712   6.654  48.997  1.00  0.00     0.067 C 
BRANCH  24  25
HETATM   25  C5  UNL     1      34.129   6.885  48.549  1.00  0.00     0.009 C 
BRANCH  25  26
HETATM   26  C4  UNL     1      34.445   5.706  47.612  1.00  0.00     0.027 C 
BRANCH  26  27
HETATM   27  C3  UNL     1      35.041   4.557  48.410  1.00  0.00     0.167 C 
BRANCH  27  28
HETATM   28  O1  UNL     1      34.596   3.353  47.931  1.00  0.00    -0.391 OA
BRANCH  28  29
HETATM   29  C2  UNL     1      33.492   3.398  47.116  1.00  0.00     0.163 C 
HETATM   30  C1  UNL     1      32.726   2.123  46.987  1.00  0.00     0.033 C 
ENDBRANCH  28  29
ENDBRANCH  27  28
ENDBRANCH  26  27
ENDBRANCH  25  26
ENDBRANCH  24  25
ENDBRANCH   1  24
TORSDOF 6
ENDMDL
MODEL 8
REMARK VINA RESULT:      -6.8      3.366      5.047
REMARK  6 active torsions:
REMARK  status: ('A' for Active; 'I' for Inactive)
REMARK    1  A    between atoms: C2_2  and  O1_3 
REMARK    2  A    between atoms: O1_3  and  C3_4 
REMARK    3  A    between atoms: C3_4  and  C4_5 
REMARK    4  A    between atoms: C4_5  and  C5_6 
REMARK    5  A    between atoms: C5_6  and  C6_7 
REMARK    6  A    between atoms: C6_7  and  C7_8 
ROOT
HETATM    1  C7  UNL     1      24.825   5.477  49.258  1.00  0.00     0.076 C 
HETATM    2  C8  UNL     1      23.495   5.283  49.129  1.00  0.00     0.079 C 
HETATM    3  C9  UNL     1      22.925   5.593  47.760  1.00  0.00     0.094 C 
HETATM    4  C10 UNL     1      22.187   4.354  47.308  1.00  0.00    -0.020 C 
HETATM    5  C11 UNL     1      21.676   3.174  47.477  1.00  0.00    -0.004 C 
HETATM    6  C12 UNL     1      21.473   2.142  48.433  1.00  0.00    -0.003 C 
HETATM    7  C13 UNL     1      21.259   1.161  49.265  1.00  0.00    -0.007 C 
HETATM    8  C14 UNL     1      21.134   0.216  50.382  1.00  0.00     0.148 C 
HETATM    9  N1  UNL     1      21.490   0.702  51.663  1.00  0.00    -0.372 N 
HETATM   10  C15 UNL     1      22.727   1.000  52.175  1.00  0.00     0.136 C 
HETATM   11  N2  UNL     1      23.156   0.036  52.891  1.00  0.00    -0.226 NA
HETATM   12  C16 UNL     1      24.458   0.068  53.503  1.00  0.00     0.235 C 
HETATM   13  N3  UNL     1      25.383   1.047  53.341  1.00  0.00    -0.244 NA
HETATM   14  C17 UNL     1      24.929   2.069  52.390  1.00  0.00     0.070 C 
HETATM   15  C18 UNL     1      25.782   2.773  51.615  1.00  0.00     0.030 C 
HETATM   16  C19 UNL     1      25.178   3.680  50.726  1.00  0.00     0.205 C 
HETATM   17  O2  UNL     1      25.279   5.065  50.606  1.00  0.00    -0.349 OA
HETATM   18  C20 UNL     1      23.494   2.226  52.444  1.00  0.00     0.242 C 
HETATM   19  O3  UNL     1      23.063   3.336  51.889  1.00  0.00    -0.370 OA
HETATM   20  C21 UNL     1      21.843   3.885  51.971  1.00  0.00     0.196 C 
HETATM   21  C22 UNL     1      22.042   5.228  51.156  1.00  0.00     0.201 C 
HETATM   22  O4  UNL     1      22.446   4.875  49.875  1.00  0.00    -0.350 OA
HETATM   23  H22 UNL     1      20.736   0.877  52.371  1.00  0.00     0.161 HD
ENDROOT
BRANCH   1  24
HETATM   24  C6  UNL     1      25.898   5.958  48.380  1.00  0.00     0.067 C 
BRANCH  24  25
HETATM   25  C5  UNL     1      26.737   7.075  48.938  1.00  0.00     0.009 C 
BRANCH  25  26
HETATM   26  C4  UNL     1      28.132   6.866  48.325  1.00  0.00     0.027 C 
BRANCH  26  27
HETATM   27  C3  UNL     1      28.484   5.387  48.333  1.00  0.00     0.167 C 
BRANCH  27  28
HETATM   28  O1  UNL     1      29.773   5.198  48.759  1.00  0.00    -0.391 OA
BRANCH  28  29
HETATM   29  C2  UNL     1      30.759   5.672  47.928  1.00  0.00     0.163 C 
HETATM   30  C1  UNL     1      32.148   5.622  48.472  1.00  0.00     0.033 C 
ENDBRANCH  28  29
ENDBRANCH  27  28
ENDBRANCH  26  27
ENDBRANCH  25  26
ENDBRANCH  24  25
ENDBRANCH   1  24
TORSDOF 6
ENDMDL
MODEL 9
REMARK VINA RESULT:      -6.7      7.705      9.596
REMARK  6 active torsions:
REMARK  status: ('A' for Active; 'I' for Inactive)
REMARK    1  A    between atoms: C2_2  and  O1_3 
REMARK    2  A    between atoms: O1_3  and  C3_4 
REMARK    3  A    between atoms: C3_4  and  C4_5 
REMARK    4  A    between atoms: C4_5  and  C5_6 
REMARK    5  A    between atoms: C5_6  and  C6_7 
REMARK    6  A    between atoms: C6_7  and  C7_8 
ROOT
HETATM    1  C7  UNL     1      30.903   5.579  47.678  1.00  0.00     0.076 C 
HETATM    2  C8  UNL     1      30.860   6.890  47.356  1.00  0.00     0.079 C 
HETATM    3  C9  UNL     1      31.764   7.307  46.213  1.00  0.00     0.094 C 
HETATM    4  C10 UNL     1      30.885   8.006  45.201  1.00  0.00    -0.020 C 
HETATM    5  C11 UNL     1      29.779   8.545  44.791  1.00  0.00    -0.004 C 
HETATM    6  C12 UNL     1      28.449   8.860  45.179  1.00  0.00    -0.003 C 
HETATM    7  C13 UNL     1      27.218   9.173  45.476  1.00  0.00    -0.007 C 
HETATM    8  C14 UNL     1      25.892   9.427  46.053  1.00  0.00     0.148 C 
HETATM    9  N1  UNL     1      25.754   9.205  47.444  1.00  0.00    -0.372 N 
HETATM   10  C15 UNL     1      25.732   8.026  48.146  1.00  0.00     0.136 C 
HETATM   11  N2  UNL     1      24.530   7.687  48.405  1.00  0.00    -0.226 NA
HETATM   12  C16 UNL     1      24.221   6.458  49.086  1.00  0.00     0.235 C 
HETATM   13  N3  UNL     1      25.119   5.509  49.452  1.00  0.00    -0.244 NA
HETATM   14  C17 UNL     1      26.477   5.848  49.005  1.00  0.00     0.070 C 
HETATM   15  C18 UNL     1      27.397   4.909  48.696  1.00  0.00     0.030 C 
HETATM   16  C19 UNL     1      28.632   5.405  48.241  1.00  0.00     0.205 C 
HETATM   17  O2  UNL     1      29.924   5.276  48.746  1.00  0.00    -0.349 OA
HETATM   18  C20 UNL     1      26.675   7.278  48.991  1.00  0.00     0.242 C 
HETATM   19  O3  UNL     1      27.938   7.636  48.939  1.00  0.00    -0.370 OA
HETATM   20  C21 UNL     1      28.466   8.851  49.140  1.00  0.00     0.196 C 
HETATM   21  C22 UNL     1      30.016   8.552  49.014  1.00  0.00     0.201 C 
HETATM   22  O4  UNL     1      30.230   8.017  47.750  1.00  0.00    -0.350 OA
HETATM   23  H22 UNL     1      25.649  10.028  48.086  1.00  0.00     0.161 HD
ENDROOT
BRANCH   1  24
HETATM   24  C6  UNL     1      31.656   4.414  47.200  1.00  0.00     0.067 C 
BRANCH  24  25
HETATM   25  C5  UNL     1      32.664   3.855  48.166  1.00  0.00     0.009 C 
BRANCH  25  26
HETATM   26  C4  UNL     1      33.956   3.700  47.345  1.00  0.00     0.027 C 
BRANCH  26  27
HETATM   27  C3  UNL     1      35.073   4.509  47.984  1.00  0.00     0.167 C 
BRANCH  27  28
HETATM   28  O1  UNL     1      35.002   5.822  47.600  1.00  0.00    -0.391 OA
BRANCH  28  29
HETATM   29  C2  UNL     1      35.012   6.749  48.614  1.00  0.00     0.163 C 
HETATM   30  C1  UNL     1      34.876   8.175  48.194  1.00  0.00     0.033 C 
ENDBRANCH  28  29
ENDBRANCH  27  28
ENDBRANCH  26  27
ENDBRANCH  25  26
ENDBRANCH  24  25
ENDBRANCH   1  24
TORSDOF 6
ENDMDL
