MODEL 1
REMARK VINA RESULT:      -7.5      0.000      0.000
REMARK  3 active torsions:
REMARK  status: ('A' for Active; 'I' for Inactive)
REMARK    1  A    between atoms: O1_2  and  C2_3 
REMARK    2  A    between atoms: N3_20  and  C15_21 
REMARK    3  A    between atoms: C15_21  and  S1_22 
ROOT
HETATM    1  C2  UNL     1      23.894   0.878  52.705  1.00  0.00     0.114 C 
HETATM    2  C3  UNL     1      24.033   1.416  51.442  1.00  0.00     0.177 C 
HETATM    3  O2  UNL     1      25.391   1.251  51.565  1.00  0.00    -0.330 OA
HETATM    4  C4  UNL     1      26.356   0.378  52.062  1.00  0.00     0.207 C 
HETATM    5  C5  UNL     1      26.158  -0.196  53.434  1.00  0.00     0.028 C 
HETATM    6  C6  UNL     1      25.121  -0.650  54.122  1.00  0.00     0.052 A 
HETATM    7  N1  UNL     1      24.965  -1.168  55.420  1.00  0.00    -0.245 NA
HETATM    8  C7  UNL     1      23.743  -1.484  55.838  1.00  0.00     0.235 A 
HETATM    9  N2  UNL     1      22.487  -1.371  55.119  1.00  0.00    -0.221 NA
HETATM   10  C8  UNL     1      22.584  -0.914  53.925  1.00  0.00     0.159 A 
HETATM   11  O3  UNL     1      21.121  -1.009  53.688  1.00  0.00    -0.321 OA
HETATM   12  C9  UNL     1      20.450   0.284  53.746  1.00  0.00     0.113 A 
HETATM   13  C10 UNL     1      21.187   0.584  52.556  1.00  0.00     0.084 A 
HETATM   14  C11 UNL     1      22.064   0.348  51.463  1.00  0.00     0.011 A 
HETATM   15  C12 UNL     1      21.577   1.603  51.453  1.00  0.00     0.052 A 
HETATM   16  C13 UNL     1      20.750   2.378  52.145  1.00  0.00     0.029 A 
HETATM   17  C14 UNL     1      20.313   1.570  53.197  1.00  0.00     0.041 A 
HETATM   18  N3  UNL     1      22.826   1.841  50.689  1.00  0.00    -0.317 N 
HETATM   19  C16 UNL     1      23.926  -0.547  53.375  1.00  0.00     0.175 A 
ENDROOT
BRANCH  18  20
HETATM   20  C15 UNL     1      22.905   2.415  49.403  1.00  0.00     0.172 C 
BRANCH  20  21
HETATM   21  S1  UNL     1      23.549   3.902  49.249  1.00  0.00     0.075 SA
HETATM   22  O4  UNL     1      23.120   4.820  50.456  1.00  0.00    -0.144 OA
ENDBRANCH  20  21
ENDBRANCH  18  20
BRANCH   1  23
HETATM   23  O1  UNL     1      23.672   2.063  53.444  1.00  0.00    -0.355 OA
HETATM   24  C1  UNL     1      24.547   3.144  53.269  1.00  0.00     0.209 C 
ENDBRANCH   1  23
TORSDOF 3
ENDMDL
MODEL 2
REMARK VINA RESULT:      -7.2      1.780      2.154
REMARK  3 active torsions:
REMARK  status: ('A' for Active; 'I' for Inactive)
REMARK    1  A    between atoms: O1_2  and  C2_3 
REMARK    2  A    between atoms: N3_20  and  C15_21 
REMARK    3  A    between atoms: C15_21  and  S1_22 
ROOT
HETATM    1  C2  UNL     1      24.140   2.058  52.090  1.00  0.00     0.114 C 
HETATM    2  C3  UNL     1      23.559   2.619  50.971  1.00  0.00     0.177 C 
HETATM    3  O2  UNL     1      24.785   3.143  50.646  1.00  0.00    -0.330 OA
HETATM    4  C4  UNL     1      26.147   2.851  50.652  1.00  0.00     0.207 C 
HETATM    5  C5  UNL     1      26.736   2.228  51.883  1.00  0.00     0.028 C 
HETATM    6  C6  UNL     1      26.343   1.308  52.752  1.00  0.00     0.052 A 
HETATM    7  N1  UNL     1      26.914   0.755  53.912  1.00  0.00    -0.245 NA
HETATM    8  C7  UNL     1      26.210  -0.130  54.610  1.00  0.00     0.235 A 
HETATM    9  N2  UNL     1      24.878  -0.639  54.338  1.00  0.00    -0.221 NA
HETATM   10  C8  UNL     1      24.323  -0.170  53.281  1.00  0.00     0.159 A 
HETATM   11  O3  UNL     1      23.088  -0.971  53.481  1.00  0.00    -0.321 OA
HETATM   12  C9  UNL     1      21.972  -0.179  53.986  1.00  0.00     0.113 A 
HETATM   13  C10 UNL     1      22.013   0.468  52.709  1.00  0.00     0.084 A 
HETATM   14  C11 UNL     1      22.446   0.717  51.379  1.00  0.00     0.011 A 
HETATM   15  C12 UNL     1      21.474   1.568  51.757  1.00  0.00     0.052 A 
HETATM   16  C13 UNL     1      20.693   1.820  52.801  1.00  0.00     0.029 A 
HETATM   17  C14 UNL     1      21.079   0.882  53.760  1.00  0.00     0.041 A 
HETATM   18  N3  UNL     1      22.112   2.406  50.713  1.00  0.00    -0.317 N 
HETATM   19  C16 UNL     1      25.054   0.822  52.433  1.00  0.00     0.175 A 
ENDROOT
BRANCH  18  20
HETATM   20  C15 UNL     1      21.457   2.968  49.598  1.00  0.00     0.172 C 
BRANCH  20  21
HETATM   21  S1  UNL     1      21.956   2.550  48.106  1.00  0.00     0.075 SA
HETATM   22  O4  UNL     1      21.850   0.991  47.902  1.00  0.00    -0.144 OA
ENDBRANCH  20  21
ENDBRANCH  18  20
BRANCH   1  23
HETATM   23  O1  UNL     1      23.683   2.964  53.074  1.00  0.00    -0.355 OA
HETATM   24  C1  UNL     1      23.707   4.337  52.794  1.00  0.00     0.209 C 
ENDBRANCH   1  23
TORSDOF 3
ENDMDL
MODEL 3
REMARK VINA RESULT:      -7.1      2.418      4.882
REMARK  3 active torsions:
REMARK  status: ('A' for Active; 'I' for Inactive)
REMARK    1  A    between atoms: O1_2  and  C2_3 
REMARK    2  A    between atoms: N3_20  and  C15_21 
REMARK    3  A    between atoms: C15_21  and  S1_22 
ROOT
HETATM    1  C2  UNL     1      22.829   2.422  50.852  1.00  0.00     0.114 C 
HETATM    2  C3  UNL     1      24.145   2.068  51.071  1.00  0.00     0.177 C 
HETATM    3  O2  UNL     1      24.508   2.973  50.104  1.00  0.00    -0.330 OA
HETATM    4  C4  UNL     1      24.200   4.235  49.603  1.00  0.00     0.207 C 
HETATM    5  C5  UNL     1      22.756   4.585  49.394  1.00  0.00     0.028 C 
HETATM    6  C6  UNL     1      21.630   4.367  50.056  1.00  0.00     0.052 A 
HETATM    7  N1  UNL     1      20.283   4.695  49.823  1.00  0.00    -0.245 NA
HETATM    8  C7  UNL     1      19.363   4.259  50.678  1.00  0.00     0.235 A 
HETATM    9  N2  UNL     1      19.551   3.460  51.875  1.00  0.00    -0.221 NA
HETATM   10  C8  UNL     1      20.768   3.147  52.133  1.00  0.00     0.159 A 
HETATM   11  O3  UNL     1      20.396   2.398  53.361  1.00  0.00    -0.321 OA
HETATM   12  C9  UNL     1      20.438   0.952  53.179  1.00  0.00     0.113 A 
HETATM   13  C10 UNL     1      21.852   1.132  53.047  1.00  0.00     0.084 A 
HETATM   14  C11 UNL     1      23.089   1.831  53.033  1.00  0.00     0.011 A 
HETATM   15  C12 UNL     1      23.251   0.522  52.768  1.00  0.00     0.052 A 
HETATM   16  C13 UNL     1      22.533  -0.590  52.663  1.00  0.00     0.029 A 
HETATM   17  C14 UNL     1      21.219  -0.181  52.894  1.00  0.00     0.041 A 
HETATM   18  N3  UNL     1      24.467   1.039  52.093  1.00  0.00    -0.317 N 
HETATM   19  C16 UNL     1      21.865   3.610  51.226  1.00  0.00     0.175 A 
ENDROOT
BRANCH  18  20
HETATM   20  C15 UNL     1      25.789   0.622  52.349  1.00  0.00     0.172 C 
BRANCH  20  21
HETATM   21  S1  UNL     1      26.923   1.753  52.641  1.00  0.00     0.075 SA
HETATM   22  O4  UNL     1      26.777   2.321  54.103  1.00  0.00    -0.144 OA
ENDBRANCH  20  21
ENDBRANCH  18  20
BRANCH   1  23
HETATM   23  O1  UNL     1      22.411   1.315  50.079  1.00  0.00    -0.355 OA
HETATM   24  C1  UNL     1      21.195   1.392  49.388  1.00  0.00     0.209 C 
ENDBRANCH   1  23
TORSDOF 3
ENDMDL
MODEL 4
REMARK VINA RESULT:      -7.0      3.225      5.797
REMARK  3 active torsions:
REMARK  status: ('A' for Active; 'I' for Inactive)
REMARK    1  A    between atoms: O1_2  and  C2_3 
REMARK    2  A    between atoms: N3_20  and  C15_21 
REMARK    3  A    between atoms: C15_21  and  S1_22 
ROOT
HETATM    1  C2  UNL     1      24.787   3.728  50.265  1.00  0.00     0.114 C 
HETATM    2  C3  UNL     1      25.714   2.793  50.678  1.00  0.00     0.177 C 
HETATM    3  O2  UNL     1      26.604   3.338  49.786  1.00  0.00    -0.330 OA
HETATM    4  C4  UNL     1      27.029   4.552  49.254  1.00  0.00     0.207 C 
HETATM    5  C5  UNL     1      25.988   5.547  48.830  1.00  0.00     0.028 C 
HETATM    6  C6  UNL     1      24.822   5.951  49.311  1.00  0.00     0.052 A 
HETATM    7  N1  UNL     1      23.858   6.878  48.878  1.00  0.00    -0.245 NA
HETATM    8  C7  UNL     1      22.735   7.004  49.580  1.00  0.00     0.235 A 
HETATM    9  N2  UNL     1      22.340   6.298  50.784  1.00  0.00    -0.221 NA
HETATM   10  C8  UNL     1      23.197   5.450  51.222  1.00  0.00     0.159 A 
HETATM   11  O3  UNL     1      22.340   5.063  52.372  1.00  0.00    -0.321 OA
HETATM   12  C9  UNL     1      21.689   3.771  52.187  1.00  0.00     0.113 A 
HETATM   13  C10 UNL     1      23.012   3.230  52.273  1.00  0.00     0.084 A 
HETATM   14  C11 UNL     1      24.422   3.235  52.454  1.00  0.00     0.011 A 
HETATM   15  C12 UNL     1      23.952   1.998  52.206  1.00  0.00     0.052 A 
HETATM   16  C13 UNL     1      22.803   1.372  51.984  1.00  0.00     0.029 A 
HETATM   17  C14 UNL     1      21.842   2.385  52.015  1.00  0.00     0.041 A 
HETATM   18  N3  UNL     1      25.345   1.810  51.729  1.00  0.00    -0.317 N 
HETATM   19  C16 UNL     1      24.491   5.257  50.497  1.00  0.00     0.175 A 
ENDROOT
BRANCH  18  20
HETATM   20  C15 UNL     1      26.241   0.819  52.180  1.00  0.00     0.172 C 
BRANCH  20  21
HETATM   21  S1  UNL     1      27.627   1.286  52.893  1.00  0.00     0.075 SA
HETATM   22  O4  UNL     1      27.331   2.250  54.105  1.00  0.00    -0.144 OA
ENDBRANCH  20  21
ENDBRANCH  18  20
BRANCH   1  23
HETATM   23  O1  UNL     1      23.989   2.915  49.427  1.00  0.00    -0.355 OA
HETATM   24  C1  UNL     1      22.993   3.518  48.647  1.00  0.00     0.209 C 
ENDBRANCH   1  23
TORSDOF 3
ENDMDL
MODEL 5
REMARK VINA RESULT:      -7.0      2.764      5.907
REMARK  3 active torsions:
REMARK  status: ('A' for Active; 'I' for Inactive)
REMARK    1  A    between atoms: O1_2  and  C2_3 
REMARK    2  A    between atoms: N3_20  and  C15_21 
REMARK    3  A    between atoms: C15_21  and  S1_22 
ROOT
HETATM    1  C2  UNL     1      23.733   2.997  51.399  1.00  0.00     0.114 C 
HETATM    2  C3  UNL     1      22.781   2.136  51.907  1.00  0.00     0.177 C 
HETATM    3  O2  UNL     1      21.846   2.775  51.131  1.00  0.00    -0.330 OA
HETATM    4  C4  UNL     1      21.662   3.357  49.880  1.00  0.00     0.207 C 
HETATM    5  C5  UNL     1      22.728   4.275  49.358  1.00  0.00     0.028 C 
HETATM    6  C6  UNL     1      24.052   4.286  49.377  1.00  0.00     0.052 A 
HETATM    7  N1  UNL     1      25.027   5.175  48.891  1.00  0.00    -0.245 NA
HETATM    8  C7  UNL     1      26.307   4.915  49.138  1.00  0.00     0.235 A 
HETATM    9  N2  UNL     1      26.876   3.795  49.866  1.00  0.00    -0.221 NA
HETATM   10  C8  UNL     1      26.022   2.951  50.317  1.00  0.00     0.159 A 
HETATM   11  O3  UNL     1      27.074   2.093  50.919  1.00  0.00    -0.321 OA
HETATM   12  C9  UNL     1      27.164   2.235  52.367  1.00  0.00     0.113 A 
HETATM   13  C10 UNL     1      25.870   1.622  52.386  1.00  0.00     0.084 A 
HETATM   14  C11 UNL     1      24.709   0.995  51.859  1.00  0.00     0.011 A 
HETATM   15  C12 UNL     1      24.635   1.147  53.194  1.00  0.00     0.052 A 
HETATM   16  C13 UNL     1      25.357   1.611  54.206  1.00  0.00     0.029 A 
HETATM   17  C14 UNL     1      26.528   2.085  53.611  1.00  0.00     0.041 A 
HETATM   18  N3  UNL     1      23.183   1.099  52.892  1.00  0.00    -0.317 N 
HETATM   19  C16 UNL     1      24.562   3.165  50.071  1.00  0.00     0.175 A 
ENDROOT
BRANCH  18  20
HETATM   20  C15 UNL     1      22.254   0.204  53.461  1.00  0.00     0.172 C 
BRANCH  20  21
HETATM   21  S1  UNL     1      22.802  -0.955  54.465  1.00  0.00     0.075 SA
HETATM   22  O4  UNL     1      21.607  -1.826  55.011  1.00  0.00    -0.144 OA
ENDBRANCH  20  21
ENDBRANCH  18  20
BRANCH   1  23
HETATM   23  O1  UNL     1      23.861   3.881  52.495  1.00  0.00    -0.355 OA
HETATM   24  C1  UNL     1      23.662   5.253  52.286  1.00  0.00     0.209 C 
ENDBRANCH   1  23
TORSDOF 3
ENDMDL
MODEL 6
REMARK VINA RESULT:      -6.9      2.207      4.231
REMARK  3 active torsions:
REMARK  status: ('A' for Active; 'I' for Inactive)
REMARK    1  A    between atoms: O1_2  and  C2_3 
REMARK    2  A    between atoms: N3_20  and  C15_21 
REMARK    3  A    between atoms: C15_21  and  S1_22 
ROOT
HETATM    1  C2  UNL     1      23.193   1.763  51.886  1.00  0.00     0.114 C 
HETATM    2  C3  UNL     1      22.127   2.634  51.976  1.00  0.00     0.177 C 
HETATM    3  O2  UNL     1      21.472   1.693  52.731  1.00  0.00    -0.330 OA
HETATM    4  C4  UNL     1      21.676   0.737  53.722  1.00  0.00     0.207 C 
HETATM    5  C5  UNL     1      22.856  -0.181  53.594  1.00  0.00     0.028 C 
HETATM    6  C6  UNL     1      24.114  -0.047  53.201  1.00  0.00     0.052 A 
HETATM    7  N1  UNL     1      25.195  -0.936  53.075  1.00  0.00    -0.245 NA
HETATM    8  C7  UNL     1      26.340  -0.480  52.576  1.00  0.00     0.235 A 
HETATM    9  N2  UNL     1      26.657   0.862  52.124  1.00  0.00    -0.221 NA
HETATM   10  C8  UNL     1      25.701   1.710  52.233  1.00  0.00     0.159 A 
HETATM   11  O3  UNL     1      26.518   2.818  51.673  1.00  0.00    -0.321 OA
HETATM   12  C9  UNL     1      26.170   3.141  50.294  1.00  0.00     0.113 A 
HETATM   13  C10 UNL     1      24.926   3.591  50.842  1.00  0.00     0.084 A 
HETATM   14  C11 UNL     1      23.971   3.899  51.849  1.00  0.00     0.011 A 
HETATM   15  C12 UNL     1      23.501   4.161  50.615  1.00  0.00     0.052 A 
HETATM   16  C13 UNL     1      23.890   4.110  49.347  1.00  0.00     0.029 A 
HETATM   17  C14 UNL     1      25.189   3.601  49.400  1.00  0.00     0.041 A 
HETATM   18  N3  UNL     1      22.206   3.961  51.312  1.00  0.00    -0.317 N 
HETATM   19  C16 UNL     1      24.383   1.280  52.796  1.00  0.00     0.175 A 
ENDROOT
BRANCH  18  20
HETATM   20  C15 UNL     1      21.144   4.887  51.352  1.00  0.00     0.172 C 
BRANCH  20  21
HETATM   21  S1  UNL     1      21.138   6.116  50.284  1.00  0.00     0.075 SA
HETATM   22  O4  UNL     1      21.551   7.464  50.988  1.00  0.00    -0.144 OA
ENDBRANCH  20  21
ENDBRANCH  18  20
BRANCH   1  23
HETATM   23  O1  UNL     1      22.993   1.279  50.572  1.00  0.00    -0.355 OA
HETATM   24  C1  UNL     1      21.711   0.856  50.194  1.00  0.00     0.209 C 
ENDBRANCH   1  23
TORSDOF 3
ENDMDL
MODEL 7
REMARK VINA RESULT:      -6.9      1.892      4.107
REMARK  3 active torsions:
REMARK  status: ('A' for Active; 'I' for Inactive)
REMARK    1  A    between atoms: O1_2  and  C2_3 
REMARK    2  A    between atoms: N3_20  and  C15_21 
REMARK    3  A    between atoms: C15_21  and  S1_22 
ROOT
HETATM    1  C2  UNL     1      22.728   2.095  51.803  1.00  0.00     0.114 C 
HETATM    2  C3  UNL     1      22.845   3.422  51.445  1.00  0.00     0.177 C 
HETATM    3  O2  UNL     1      21.474   3.497  51.427  1.00  0.00    -0.330 OA
HETATM    4  C4  UNL     1      20.336   3.053  52.095  1.00  0.00     0.207 C 
HETATM    5  C5  UNL     1      20.255   1.605  52.480  1.00  0.00     0.028 C 
HETATM    6  C6  UNL     1      21.110   0.707  52.948  1.00  0.00     0.052 A 
HETATM    7  N1  UNL     1      21.007  -0.654  53.284  1.00  0.00    -0.245 NA
HETATM    8  C7  UNL     1      22.101  -1.298  53.678  1.00  0.00     0.235 A 
HETATM    9  N2  UNL     1      23.449  -0.781  53.823  1.00  0.00    -0.221 NA
HETATM   10  C8  UNL     1      23.587   0.462  53.539  1.00  0.00     0.159 A 
HETATM   11  O3  UNL     1      25.041   0.449  53.842  1.00  0.00    -0.321 OA
HETATM   12  C9  UNL     1      25.872   0.450  52.644  1.00  0.00     0.113 A 
HETATM   13  C10 UNL     1      25.360   1.772  52.438  1.00  0.00     0.084 A 
HETATM   14  C11 UNL     1      24.621   2.951  52.725  1.00  0.00     0.011 A 
HETATM   15  C12 UNL     1      25.277   3.043  51.553  1.00  0.00     0.052 A 
HETATM   16  C13 UNL     1      26.098   2.333  50.789  1.00  0.00     0.029 A 
HETATM   17  C14 UNL     1      26.264   1.131  51.479  1.00  0.00     0.041 A 
HETATM   18  N3  UNL     1      24.194   4.021  51.283  1.00  0.00    -0.317 N 
HETATM   19  C16 UNL     1      22.401   1.262  53.100  1.00  0.00     0.175 A 
ENDROOT
BRANCH  18  20
HETATM   20  C15 UNL     1      24.379   5.366  50.901  1.00  0.00     0.172 C 
BRANCH  20  21
HETATM   21  S1  UNL     1      24.667   5.699  49.334  1.00  0.00     0.075 SA
HETATM   22  O4  UNL     1      26.174   5.410  48.973  1.00  0.00    -0.144 OA
ENDBRANCH  20  21
ENDBRANCH  18  20
BRANCH   1  23
HETATM   23  O1  UNL     1      23.007   1.488  50.557  1.00  0.00    -0.355 OA
HETATM   24  C1  UNL     1      22.201   1.802  49.455  1.00  0.00     0.209 C 
ENDBRANCH   1  23
TORSDOF 3
ENDMDL
MODEL 8
REMARK VINA RESULT:      -6.8      2.450      3.824
REMARK  3 active torsions:
REMARK  status: ('A' for Active; 'I' for Inactive)
REMARK    1  A    between atoms: O1_2  and  C2_3 
REMARK    2  A    between atoms: N3_20  and  C15_21 
REMARK    3  A    between atoms: C15_21  and  S1_22 
ROOT
HETATM    1  C2  UNL     1      24.563   1.618  52.146  1.00  0.00     0.114 C 
HETATM    2  C3  UNL     1      23.420   1.544  51.377  1.00  0.00     0.177 C 
HETATM    3  O2  UNL     1      23.948   2.519  50.568  1.00  0.00    -0.330 OA
HETATM    4  C4  UNL     1      25.143   2.954  50.000  1.00  0.00     0.207 C 
HETATM    5  C5  UNL     1      26.366   3.006  50.868  1.00  0.00     0.028 C 
HETATM    6  C6  UNL     1      26.878   2.239  51.818  1.00  0.00     0.052 A 
HETATM    7  N1  UNL     1      28.024   2.326  52.629  1.00  0.00    -0.245 NA
HETATM    8  C7  UNL     1      28.221   1.393  53.555  1.00  0.00     0.235 A 
HETATM    9  N2  UNL     1      27.394   0.242  53.867  1.00  0.00    -0.221 NA
HETATM   10  C8  UNL     1      26.343   0.117  53.142  1.00  0.00     0.159 A 
HETATM   11  O3  UNL     1      25.916  -1.123  53.841  1.00  0.00    -0.321 OA
HETATM   12  C9  UNL     1      24.814  -0.901  54.770  1.00  0.00     0.113 A 
HETATM   13  C10 UNL     1      24.039  -0.630  53.597  1.00  0.00     0.084 A 
HETATM   14  C11 UNL     1      23.761  -0.508  52.209  1.00  0.00     0.011 A 
HETATM   15  C12 UNL     1      22.692  -0.195  52.964  1.00  0.00     0.052 A 
HETATM   16  C13 UNL     1      22.330  -0.135  54.240  1.00  0.00     0.029 A 
HETATM   17  C14 UNL     1      23.476  -0.509  54.945  1.00  0.00     0.041 A 
HETATM   18  N3  UNL     1      22.347   0.586  51.750  1.00  0.00    -0.317 N 
HETATM   19  C16 UNL     1      26.054   1.118  52.069  1.00  0.00     0.175 A 
ENDROOT
BRANCH  18  20
HETATM   20  C15 UNL     1      21.149   0.476  51.016  1.00  0.00     0.172 C 
BRANCH  20  21
HETATM   21  S1  UNL     1      19.739   0.403  51.827  1.00  0.00     0.075 SA
HETATM   22  O4  UNL     1      18.523   0.614  50.847  1.00  0.00    -0.144 OA
ENDBRANCH  20  21
ENDBRANCH  18  20
BRANCH   1  23
HETATM   23  O1  UNL     1      24.067   2.373  53.234  1.00  0.00    -0.355 OA
HETATM   24  C1  UNL     1      23.892   3.755  53.076  1.00  0.00     0.209 C 
ENDBRANCH   1  23
TORSDOF 3
ENDMDL
MODEL 9
REMARK VINA RESULT:      -6.7      2.660      5.076
REMARK  3 active torsions:
REMARK  status: ('A' for Active; 'I' for Inactive)
REMARK    1  A    between atoms: O1_2  and  C2_3 
REMARK    2  A    between atoms: N3_20  and  C15_21 
REMARK    3  A    between atoms: C15_21  and  S1_22 
ROOT
HETATM    1  C2  UNL     1      22.330   1.658  52.207  1.00  0.00     0.114 C 
HETATM    2  C3  UNL     1      23.435   1.525  53.022  1.00  0.00     0.177 C 
HETATM    3  O2  UNL     1      22.686   0.716  53.840  1.00  0.00    -0.330 OA
HETATM    4  C4  UNL     1      21.713  -0.281  53.815  1.00  0.00     0.207 C 
HETATM    5  C5  UNL     1      20.535  -0.104  52.903  1.00  0.00     0.028 C 
HETATM    6  C6  UNL     1      20.357   0.362  51.676  1.00  0.00     0.052 A 
HETATM    7  N1  UNL     1      19.231   0.531  50.852  1.00  0.00    -0.245 NA
HETATM    8  C7  UNL     1      19.391   1.102  49.662  1.00  0.00     0.235 A 
HETATM    9  N2  UNL     1      20.614   1.597  49.057  1.00  0.00    -0.221 NA
HETATM   10  C8  UNL     1      21.670   1.451  49.770  1.00  0.00     0.159 A 
HETATM   11  O3  UNL     1      22.542   2.077  48.743  1.00  0.00    -0.321 OA
HETATM   12  C9  UNL     1      22.933   3.440  49.083  1.00  0.00     0.113 A 
HETATM   13  C10 UNL     1      23.675   2.832  50.146  1.00  0.00     0.084 A 
HETATM   14  C11 UNL     1      24.212   1.780  50.936  1.00  0.00     0.011 A 
HETATM   15  C12 UNL     1      24.574   2.990  51.401  1.00  0.00     0.052 A 
HETATM   16  C13 UNL     1      24.424   4.277  51.112  1.00  0.00     0.029 A 
HETATM   17  C14 UNL     1      23.613   4.287  49.975  1.00  0.00     0.041 A 
HETATM   18  N3  UNL     1      24.699   2.218  52.662  1.00  0.00    -0.317 N 
HETATM   19  C16 UNL     1      21.577   0.806  51.117  1.00  0.00     0.175 A 
ENDROOT
BRANCH  18  20
HETATM   20  C15 UNL     1      25.855   2.136  53.464  1.00  0.00     0.172 C 
BRANCH  20  21
HETATM   21  S1  UNL     1      26.253   0.699  54.118  1.00  0.00     0.075 SA
HETATM   22  O4  UNL     1      27.586   0.817  54.950  1.00  0.00    -0.144 OA
ENDBRANCH  20  21
ENDBRANCH  18  20
BRANCH   1  23
HETATM   23  O1  UNL     1      21.902   2.948  52.595  1.00  0.00    -0.355 OA
HETATM   24  C1  UNL     1      20.619   3.376  52.229  1.00  0.00     0.209 C 
ENDBRANCH   1  23
TORSDOF 3
ENDMDL
