MODEL 1
REMARK VINA RESULT:      -7.9      0.000      0.000
REMARK  5 active torsions:
REMARK  status: ('A' for Active; 'I' for Inactive)
REMARK    1  A    between atoms: N1_1  and  C1_2 
REMARK    2  A    between atoms: C2_3  and  C3_4 
REMARK    3  A    between atoms: C6_8  and  N3_9 
REMARK    4  A    between atoms: N3_9  and  C7_10 
REMARK    5  A    between atoms: C11_14  and  N4_15 
ROOT
HETATM    1  C3  UNL     1      27.488   7.060  48.217  1.00  0.00     0.012 C 
HETATM    2  C4  UNL     1      26.987   6.012  48.846  1.00  0.00    -0.013 C 
HETATM    3  C5  UNL     1      27.620   4.698  48.865  1.00  0.00     0.123 C 
HETATM    4  N2  UNL     1      26.952   3.661  49.244  1.00  0.00    -0.247 NA
HETATM    5  C6  UNL     1      25.569   3.739  49.665  1.00  0.00     0.446 C 
HETATM    6  N6  UNL     1      24.932   4.956  49.197  1.00  0.00     0.131 N 
HETATM    7  C16 UNL     1      25.708   6.099  49.601  1.00  0.00     0.314 C 
HETATM    8  H16 UNL     1      23.974   5.028  49.543  1.00  0.00     0.321 HD
ENDROOT
BRANCH   5   9
HETATM    9  N3  UNL     1      25.531   3.641  51.111  1.00  0.00    -0.343 N 
HETATM   10  H8  UNL     1      25.528   4.479  51.733  1.00  0.00     0.163 HD
BRANCH   9  11
HETATM   11  C7  UNL     1      25.496   2.368  51.722  1.00  0.00     0.033 A 
HETATM   12  C8  UNL     1      24.326   1.700  52.013  1.00  0.00     0.029 A 
HETATM   13  C9  UNL     1      24.256   0.450  52.611  1.00  0.00     0.004 A 
HETATM   14  C10 UNL     1      25.445  -0.185  52.944  1.00  0.00     0.030 A 
HETATM   15  C11 UNL     1      26.643   0.444  52.673  1.00  0.00     0.042 A 
HETATM   16  C15 UNL     1      26.638   1.687  52.076  1.00  0.00     0.059 A 
BRANCH  15  17
HETATM   17  N4  UNL     1      27.793  -0.282  53.049  1.00  0.00    -0.315 N 
HETATM   18  C12 UNL     1      29.043  -0.039  53.500  1.00  0.00     0.117 A 
HETATM   19  C13 UNL     1      29.706  -1.230  53.685  1.00  0.00     0.135 A 
HETATM   20  N5  UNL     1      28.838  -2.219  53.338  1.00  0.00    -0.254 NA
HETATM   21  C14 UNL     1      27.678  -1.621  52.954  1.00  0.00     0.214 A 
ENDBRANCH  15  17
ENDBRANCH   9  11
ENDBRANCH   5   9
BRANCH   1  22
HETATM   22  C2  UNL     1      28.734   7.011  47.471  1.00  0.00     0.017 C 
HETATM   23  C1  UNL     1      29.827   7.563  47.958  1.00  0.00     0.080 C 
BRANCH  23  24
HETATM   24  N1  UNL     1      29.752   8.207  49.237  1.00  0.00    -0.408 N 
HETATM   25  H1  UNL     1      29.366   8.316  50.215  1.00  0.00     0.155 HD
HETATM   26  H2  UNL     1      30.449   8.990  49.187  1.00  0.00     0.155 HD
ENDBRANCH  23  24
ENDBRANCH   1  22
TORSDOF 5
ENDMDL
MODEL 2
REMARK VINA RESULT:      -7.9      2.034      3.225
REMARK  5 active torsions:
REMARK  status: ('A' for Active; 'I' for Inactive)
REMARK    1  A    between atoms: N1_1  and  C1_2 
REMARK    2  A    between atoms: C2_3  and  C3_4 
REMARK    3  A    between atoms: C6_8  and  N3_9 
REMARK    4  A    between atoms: N3_9  and  C7_10 
REMARK    5  A    between atoms: C11_14  and  N4_15 
ROOT
HETATM    1  C3  UNL     1      26.654   6.969  48.425  1.00  0.00     0.012 C 
HETATM    2  C4  UNL     1      26.434   5.825  49.048  1.00  0.00    -0.013 C 
HETATM    3  C5  UNL     1      27.312   4.664  48.949  1.00  0.00     0.123 C 
HETATM    4  N2  UNL     1      26.902   3.504  49.340  1.00  0.00    -0.247 NA
HETATM    5  C6  UNL     1      25.579   3.293  49.888  1.00  0.00     0.446 C 
HETATM    6  N6  UNL     1      24.672   4.370  49.537  1.00  0.00     0.131 N 
HETATM    7  C16 UNL     1      25.244   5.634  49.920  1.00  0.00     0.314 C 
HETATM    8  H16 UNL     1      23.758   4.239  49.971  1.00  0.00     0.321 HD
ENDROOT
BRANCH   5   9
HETATM    9  N3  UNL     1      25.704   3.151  51.326  1.00  0.00    -0.343 N 
HETATM   10  H8  UNL     1      25.786   3.969  51.968  1.00  0.00     0.163 HD
BRANCH   9  11
HETATM   11  C7  UNL     1      25.715   1.860  51.900  1.00  0.00     0.033 A 
HETATM   12  C8  UNL     1      26.833   1.055  51.930  1.00  0.00     0.029 A 
HETATM   13  C9  UNL     1      26.879  -0.215  52.485  1.00  0.00     0.004 A 
HETATM   14  C10 UNL     1      25.719  -0.724  53.055  1.00  0.00     0.030 A 
HETATM   15  C11 UNL     1      24.573   0.044  53.049  1.00  0.00     0.042 A 
HETATM   16  C15 UNL     1      24.600   1.300  52.479  1.00  0.00     0.059 A 
BRANCH  15  17
HETATM   17  N4  UNL     1      23.450  -0.561  53.651  1.00  0.00    -0.315 N 
HETATM   18  C12 UNL     1      22.160  -0.832  53.351  1.00  0.00     0.117 A 
HETATM   19  C13 UNL     1      21.564  -1.469  54.413  1.00  0.00     0.135 A 
HETATM   20  N5  UNL     1      22.513  -1.588  55.381  1.00  0.00    -0.254 NA
HETATM   21  C14 UNL     1      23.654  -1.028  54.898  1.00  0.00     0.214 A 
ENDBRANCH  15  17
ENDBRANCH   9  11
ENDBRANCH   5   9
BRANCH   1  22
HETATM   22  C2  UNL     1      27.807   7.190  47.567  1.00  0.00     0.017 C 
HETATM   23  C1  UNL     1      28.826   7.909  47.989  1.00  0.00     0.080 C 
BRANCH  23  24
HETATM   24  N1  UNL     1      28.767   8.463  49.311  1.00  0.00    -0.408 N 
HETATM   25  H1  UNL     1      28.258   8.726  50.199  1.00  0.00     0.155 HD
HETATM   26  H2  UNL     1      29.747   8.777  49.516  1.00  0.00     0.155 HD
ENDBRANCH  23  24
ENDBRANCH   1  22
TORSDOF 5
ENDMDL
MODEL 3
REMARK VINA RESULT:      -7.4      1.666      1.987
REMARK  5 active torsions:
REMARK  status: ('A' for Active; 'I' for Inactive)
REMARK    1  A    between atoms: N1_1  and  C1_2 
REMARK    2  A    between atoms: C2_3  and  C3_4 
REMARK    3  A    between atoms: C6_8  and  N3_9 
REMARK    4  A    between atoms: N3_9  and  C7_10 
REMARK    5  A    between atoms: C11_14  and  N4_15 
ROOT
HETATM    1  C3  UNL     1      25.395   8.171  50.013  1.00  0.00     0.012 C 
HETATM    2  C4  UNL     1      25.071   6.968  50.454  1.00  0.00    -0.013 C 
HETATM    3  C5  UNL     1      25.732   5.741  50.025  1.00  0.00     0.123 C 
HETATM    4  N2  UNL     1      25.192   4.594  50.266  1.00  0.00    -0.247 NA
HETATM    5  C6  UNL     1      23.928   4.461  50.960  1.00  0.00     0.446 C 
HETATM    6  N6  UNL     1      23.170   5.698  50.939  1.00  0.00     0.131 N 
HETATM    7  C16 UNL     1      23.980   6.775  51.447  1.00  0.00     0.314 C 
HETATM    8  H16 UNL     1      22.306   5.611  51.476  1.00  0.00     0.321 HD
ENDROOT
BRANCH   5   9
HETATM    9  N3  UNL     1      24.202   4.028  52.316  1.00  0.00    -0.343 N 
HETATM   10  H8  UNL     1      24.282   4.693  53.115  1.00  0.00     0.163 HD
BRANCH   9  11
HETATM   11  C7  UNL     1      24.368   2.651  52.587  1.00  0.00     0.033 A 
HETATM   12  C8  UNL     1      23.325   1.750  52.601  1.00  0.00     0.029 A 
HETATM   13  C9  UNL     1      23.453   0.395  52.862  1.00  0.00     0.004 A 
HETATM   14  C10 UNL     1      24.722  -0.104  53.130  1.00  0.00     0.030 A 
HETATM   15  C11 UNL     1      25.798   0.758  53.128  1.00  0.00     0.042 A 
HETATM   16  C15 UNL     1      25.597   2.096  52.860  1.00  0.00     0.059 A 
BRANCH  15  17
HETATM   17  N4  UNL     1      27.042   0.155  53.412  1.00  0.00    -0.315 N 
HETATM   18  C12 UNL     1      28.235   0.495  53.948  1.00  0.00     0.117 A 
HETATM   19  C13 UNL     1      29.071  -0.597  53.940  1.00  0.00     0.135 A 
HETATM   20  N5  UNL     1      28.370  -1.623  53.386  1.00  0.00    -0.254 NA
HETATM   21  C14 UNL     1      27.136  -1.144  53.071  1.00  0.00     0.214 A 
ENDBRANCH  15  17
ENDBRANCH   9  11
ENDBRANCH   5   9
BRANCH   1  22
HETATM   22  C2  UNL     1      26.455   8.396  49.044  1.00  0.00     0.017 C 
HETATM   23  C1  UNL     1      27.585   8.967  49.410  1.00  0.00     0.080 C 
BRANCH  23  24
HETATM   24  N1  UNL     1      27.737   9.355  50.783  1.00  0.00    -0.408 N 
HETATM   25  H1  UNL     1      27.361   9.661  51.721  1.00  0.00     0.155 HD
HETATM   26  H2  UNL     1      28.771   9.316  50.961  1.00  0.00     0.155 HD
ENDBRANCH  23  24
ENDBRANCH   1  22
TORSDOF 5
ENDMDL
MODEL 4
REMARK VINA RESULT:      -7.3      2.426      3.709
REMARK  5 active torsions:
REMARK  status: ('A' for Active; 'I' for Inactive)
REMARK    1  A    between atoms: N1_1  and  C1_2 
REMARK    2  A    between atoms: C2_3  and  C3_4 
REMARK    3  A    between atoms: C6_8  and  N3_9 
REMARK    4  A    between atoms: N3_9  and  C7_10 
REMARK    5  A    between atoms: C11_14  and  N4_15 
ROOT
HETATM    1  C3  UNL     1      25.523   6.957  48.322  1.00  0.00     0.012 C 
HETATM    2  C4  UNL     1      25.781   5.819  48.942  1.00  0.00    -0.013 C 
HETATM    3  C5  UNL     1      27.065   5.131  48.874  1.00  0.00     0.123 C 
HETATM    4  N2  UNL     1      27.164   3.902  49.256  1.00  0.00    -0.247 NA
HETATM    5  C6  UNL     1      26.034   3.152  49.762  1.00  0.00     0.446 C 
HETATM    6  N6  UNL     1      24.771   3.757  49.377  1.00  0.00     0.131 N 
HETATM    7  C16 UNL     1      24.752   5.140  49.775  1.00  0.00     0.314 C 
HETATM    8  H16 UNL     1      23.982   3.253  49.783  1.00  0.00     0.321 HD
ENDROOT
BRANCH   5   9
HETATM    9  N3  UNL     1      26.162   3.061  51.203  1.00  0.00    -0.343 N 
HETATM   10  H8  UNL     1      26.428   3.874  51.799  1.00  0.00     0.163 HD
BRANCH   9  11
HETATM   11  C7  UNL     1      25.918   1.826  51.846  1.00  0.00     0.033 A 
HETATM   12  C8  UNL     1      26.855   0.818  51.929  1.00  0.00     0.029 A 
HETATM   13  C9  UNL     1      26.649  -0.404  52.553  1.00  0.00     0.004 A 
HETATM   14  C10 UNL     1      25.413  -0.640  53.140  1.00  0.00     0.030 A 
HETATM   15  C11 UNL     1      24.442   0.338  53.082  1.00  0.00     0.042 A 
HETATM   16  C15 UNL     1      24.715   1.531  52.446  1.00  0.00     0.059 A 
BRANCH  15  17
HETATM   17  N4  UNL     1      23.223   0.002  53.707  1.00  0.00    -0.315 N 
HETATM   18  C12 UNL     1      21.929   0.393  53.684  1.00  0.00     0.117 A 
HETATM   19  C13 UNL     1      21.202  -0.367  54.570  1.00  0.00     0.135 A 
HETATM   20  N5  UNL     1      22.074  -1.239  55.145  1.00  0.00    -0.254 NA
HETATM   21  C14 UNL     1      23.299  -0.998  54.606  1.00  0.00     0.214 A 
ENDBRANCH  15  17
ENDBRANCH   9  11
ENDBRANCH   5   9
BRANCH   1  22
HETATM   22  C2  UNL     1      26.504   7.648  47.500  1.00  0.00     0.017 C 
HETATM   23  C1  UNL     1      26.205   8.794  46.924  1.00  0.00     0.080 C 
BRANCH  23  24
HETATM   24  N1  UNL     1      24.893   9.337  47.129  1.00  0.00    -0.408 N 
HETATM   25  H1  UNL     1      23.871   9.257  47.386  1.00  0.00     0.155 HD
HETATM   26  H2  UNL     1      24.987  10.359  46.913  1.00  0.00     0.155 HD
ENDBRANCH  23  24
ENDBRANCH   1  22
TORSDOF 5
ENDMDL
MODEL 5
REMARK VINA RESULT:      -7.3      3.670      5.678
REMARK  5 active torsions:
REMARK  status: ('A' for Active; 'I' for Inactive)
REMARK    1  A    between atoms: N1_1  and  C1_2 
REMARK    2  A    between atoms: C2_3  and  C3_4 
REMARK    3  A    between atoms: C6_8  and  N3_9 
REMARK    4  A    between atoms: N3_9  and  C7_10 
REMARK    5  A    between atoms: C11_14  and  N4_15 
ROOT
HETATM    1  C3  UNL     1      26.432   5.008  49.056  1.00  0.00     0.012 C 
HETATM    2  C4  UNL     1      25.809   4.171  49.866  1.00  0.00    -0.013 C 
HETATM    3  C5  UNL     1      24.456   4.382  50.368  1.00  0.00     0.123 C 
HETATM    4  N2  UNL     1      24.017   3.690  51.365  1.00  0.00    -0.247 NA
HETATM    5  C6  UNL     1      24.822   2.687  52.028  1.00  0.00     0.446 C 
HETATM    6  N6  UNL     1      26.237   2.868  51.758  1.00  0.00     0.131 N 
HETATM    7  C16 UNL     1      26.460   2.919  50.337  1.00  0.00     0.314 C 
HETATM    8  H16 UNL     1      26.792   2.125  52.186  1.00  0.00     0.321 HD
ENDROOT
BRANCH   5   9
HETATM    9  N3  UNL     1      24.362   1.382  51.597  1.00  0.00    -0.343 N 
HETATM   10  H8  UNL     1      24.689   0.931  50.715  1.00  0.00     0.163 HD
BRANCH   9  11
HETATM   11  C7  UNL     1      23.432   0.674  52.392  1.00  0.00     0.033 A 
HETATM   12  C8  UNL     1      23.776   0.012  53.551  1.00  0.00     0.029 A 
HETATM   13  C9  UNL     1      22.889  -0.690  54.354  1.00  0.00     0.004 A 
HETATM   14  C10 UNL     1      21.555  -0.737  53.972  1.00  0.00     0.030 A 
HETATM   15  C11 UNL     1      21.161  -0.090  52.819  1.00  0.00     0.042 A 
HETATM   16  C15 UNL     1      22.097   0.590  52.068  1.00  0.00     0.059 A 
BRANCH  15  17
HETATM   17  N4  UNL     1      19.787  -0.196  52.517  1.00  0.00    -0.315 N 
HETATM   18  C12 UNL     1      18.917   0.242  51.580  1.00  0.00     0.117 A 
HETATM   19  C13 UNL     1      17.658  -0.234  51.863  1.00  0.00     0.135 A 
HETATM   20  N5  UNL     1      17.766  -0.977  52.998  1.00  0.00    -0.254 NA
HETATM   21  C14 UNL     1      19.070  -0.941  53.380  1.00  0.00     0.214 A 
ENDBRANCH  15  17
ENDBRANCH   9  11
ENDBRANCH   5   9
BRANCH   1  22
HETATM   22  C2  UNL     1      25.827   6.239  48.576  1.00  0.00     0.017 C 
HETATM   23  C1  UNL     1      26.455   7.389  48.710  1.00  0.00     0.080 C 
BRANCH  23  24
HETATM   24  N1  UNL     1      27.745   7.391  49.336  1.00  0.00    -0.408 N 
HETATM   25  H1  UNL     1      28.786   7.572  49.347  1.00  0.00     0.155 HD
HETATM   26  H2  UNL     1      27.577   7.014  50.301  1.00  0.00     0.155 HD
ENDBRANCH  23  24
ENDBRANCH   1  22
TORSDOF 5
ENDMDL
MODEL 6
REMARK VINA RESULT:      -7.2      3.233      4.376
REMARK  5 active torsions:
REMARK  status: ('A' for Active; 'I' for Inactive)
REMARK    1  A    between atoms: N1_1  and  C1_2 
REMARK    2  A    between atoms: C2_3  and  C3_4 
REMARK    3  A    between atoms: C6_8  and  N3_9 
REMARK    4  A    between atoms: N3_9  and  C7_10 
REMARK    5  A    between atoms: C11_14  and  N4_15 
ROOT
HETATM    1  C3  UNL     1      22.096   7.920  50.201  1.00  0.00     0.012 C 
HETATM    2  C4  UNL     1      22.584   6.848  50.801  1.00  0.00    -0.013 C 
HETATM    3  C5  UNL     1      21.769   5.722  51.241  1.00  0.00     0.123 C 
HETATM    4  N2  UNL     1      22.252   4.852  52.063  1.00  0.00    -0.247 NA
HETATM    5  C6  UNL     1      23.600   4.940  52.583  1.00  0.00     0.446 C 
HETATM    6  N6  UNL     1      24.143   6.279  52.445  1.00  0.00     0.131 N 
HETATM    7  C16 UNL     1      24.040   6.710  51.076  1.00  0.00     0.314 C 
HETATM    8  H16 UNL     1      25.112   6.319  52.765  1.00  0.00     0.321 HD
ENDROOT
BRANCH   5   9
HETATM    9  N3  UNL     1      24.416   3.963  51.890  1.00  0.00    -0.343 N 
HETATM   10  H8  UNL     1      24.916   4.175  50.999  1.00  0.00     0.163 HD
BRANCH   9  11
HETATM   11  C7  UNL     1      24.552   2.663  52.428  1.00  0.00     0.033 A 
HETATM   12  C8  UNL     1      23.481   1.836  52.690  1.00  0.00     0.029 A 
HETATM   13  C9  UNL     1      23.579   0.557  53.217  1.00  0.00     0.004 A 
HETATM   14  C10 UNL     1      24.844   0.061  53.503  1.00  0.00     0.030 A 
HETATM   15  C11 UNL     1      25.948   0.851  53.258  1.00  0.00     0.042 A 
HETATM   16  C15 UNL     1      25.777   2.115  52.733  1.00  0.00     0.059 A 
BRANCH  15  17
HETATM   17  N4  UNL     1      27.187   0.258  53.582  1.00  0.00    -0.315 N 
HETATM   18  C12 UNL     1      28.304   0.560  54.281  1.00  0.00     0.117 A 
HETATM   19  C13 UNL     1      29.189  -0.490  54.209  1.00  0.00     0.135 A 
HETATM   20  N5  UNL     1      28.597  -1.451  53.449  1.00  0.00    -0.254 NA
HETATM   21  C14 UNL     1      27.378  -0.976  53.077  1.00  0.00     0.214 A 
ENDBRANCH  15  17
ENDBRANCH   9  11
ENDBRANCH   5   9
BRANCH   1  22
HETATM   22  C2  UNL     1      20.680   8.088  49.916  1.00  0.00     0.017 C 
HETATM   23  C1  UNL     1      20.240   9.190  49.345  1.00  0.00     0.080 C 
BRANCH  23  24
HETATM   24  N1  UNL     1      21.191  10.212  49.015  1.00  0.00    -0.408 N 
HETATM   25  H1  UNL     1      21.540  11.018  48.427  1.00  0.00     0.155 HD
HETATM   26  H2  UNL     1      21.949  10.119  49.735  1.00  0.00     0.155 HD
ENDBRANCH  23  24
ENDBRANCH   1  22
TORSDOF 5
ENDMDL
MODEL 7
REMARK VINA RESULT:      -7.2      2.302      7.992
REMARK  5 active torsions:
REMARK  status: ('A' for Active; 'I' for Inactive)
REMARK    1  A    between atoms: N1_1  and  C1_2 
REMARK    2  A    between atoms: C2_3  and  C3_4 
REMARK    3  A    between atoms: C6_8  and  N3_9 
REMARK    4  A    between atoms: N3_9  and  C7_10 
REMARK    5  A    between atoms: C11_14  and  N4_15 
ROOT
HETATM    1  C3  UNL     1      22.901   0.804  53.247  1.00  0.00     0.012 C 
HETATM    2  C4  UNL     1      23.837   1.347  52.490  1.00  0.00    -0.013 C 
HETATM    3  C5  UNL     1      25.109   0.703  52.184  1.00  0.00     0.123 C 
HETATM    4  N2  UNL     1      26.082   1.390  51.688  1.00  0.00    -0.247 NA
HETATM    5  C6  UNL     1      25.971   2.807  51.410  1.00  0.00     0.446 C 
HETATM    6  N6  UNL     1      24.872   3.413  52.140  1.00  0.00     0.131 N 
HETATM    7  C16 UNL     1      23.655   2.690  51.877  1.00  0.00     0.314 C 
HETATM    8  H16 UNL     1      24.767   4.399  51.897  1.00  0.00     0.321 HD
ENDROOT
BRANCH   5   9
HETATM    9  N3  UNL     1      25.815   2.975  49.979  1.00  0.00    -0.343 N 
HETATM   10  H8  UNL     1      25.470   2.213  49.355  1.00  0.00     0.163 HD
BRANCH   9  11
HETATM   11  C7  UNL     1      26.138   4.216  49.385  1.00  0.00     0.033 A 
HETATM   12  C8  UNL     1      25.214   5.216  49.169  1.00  0.00     0.029 A 
HETATM   13  C9  UNL     1      25.497   6.444  48.591  1.00  0.00     0.004 A 
HETATM   14  C10 UNL     1      26.804   6.697  48.196  1.00  0.00     0.030 A 
HETATM   15  C11 UNL     1      27.766   5.727  48.390  1.00  0.00     0.042 A 
HETATM   16  C15 UNL     1      27.414   4.527  48.973  1.00  0.00     0.059 A 
BRANCH  15  17
HETATM   17  N4  UNL     1      29.061   6.079  47.956  1.00  0.00    -0.315 N 
HETATM   18  C12 UNL     1      30.311   5.564  47.970  1.00  0.00     0.117 A 
HETATM   19  C13 UNL     1      31.176   6.440  47.356  1.00  0.00     0.135 A 
HETATM   20  N5  UNL     1      30.435   7.511  46.962  1.00  0.00    -0.254 NA
HETATM   21  C14 UNL     1      29.150   7.272  47.336  1.00  0.00     0.214 A 
ENDBRANCH  15  17
ENDBRANCH   9  11
ENDBRANCH   5   9
BRANCH   1  22
HETATM   22  C2  UNL     1      23.045  -0.506  53.861  1.00  0.00     0.017 C 
HETATM   23  C1  UNL     1      22.118  -0.968  54.676  1.00  0.00     0.080 C 
BRANCH  23  24
HETATM   24  N1  UNL     1      20.971  -0.147  54.937  1.00  0.00    -0.408 N 
HETATM   25  H1  UNL     1      20.065   0.320  54.658  1.00  0.00     0.155 HD
HETATM   26  H2  UNL     1      21.079   0.157  55.935  1.00  0.00     0.155 HD
ENDBRANCH  23  24
ENDBRANCH   1  22
TORSDOF 5
ENDMDL
MODEL 8
REMARK VINA RESULT:      -7.1      4.073      7.725
REMARK  5 active torsions:
REMARK  status: ('A' for Active; 'I' for Inactive)
REMARK    1  A    between atoms: N1_1  and  C1_2 
REMARK    2  A    between atoms: C2_3  and  C3_4 
REMARK    3  A    between atoms: C6_8  and  N3_9 
REMARK    4  A    between atoms: N3_9  and  C7_10 
REMARK    5  A    between atoms: C11_14  and  N4_15 
ROOT
HETATM    1  C3  UNL     1      27.420  -0.687  53.742  1.00  0.00     0.012 C 
HETATM    2  C4  UNL     1      26.587   0.085  53.068  1.00  0.00    -0.013 C 
HETATM    3  C5  UNL     1      26.973   0.878  51.906  1.00  0.00     0.123 C 
HETATM    4  N2  UNL     1      26.200   1.817  51.475  1.00  0.00    -0.247 NA
HETATM    5  C6  UNL     1      24.934   2.131  52.103  1.00  0.00     0.446 C 
HETATM    6  N6  UNL     1      24.862   1.614  53.457  1.00  0.00     0.131 N 
HETATM    7  C16 UNL     1      25.155   0.205  53.457  1.00  0.00     0.314 C 
HETATM    8  H16 UNL     1      23.947   1.794  53.873  1.00  0.00     0.321 HD
ENDROOT
BRANCH   5   9
HETATM    9  N3  UNL     1      23.874   1.596  51.273  1.00  0.00    -0.343 N 
HETATM   10  H8  UNL     1      24.058   1.008  50.431  1.00  0.00     0.163 HD
BRANCH   9  11
HETATM   11  C7  UNL     1      22.527   1.870  51.602  1.00  0.00     0.033 A 
HETATM   12  C8  UNL     1      22.002   3.144  51.644  1.00  0.00     0.029 A 
HETATM   13  C9  UNL     1      20.687   3.448  51.962  1.00  0.00     0.004 A 
HETATM   14  C10 UNL     1      19.826   2.400  52.261  1.00  0.00     0.030 A 
HETATM   15  C11 UNL     1      20.304   1.107  52.233  1.00  0.00     0.042 A 
HETATM   16  C15 UNL     1      21.625   0.877  51.908  1.00  0.00     0.059 A 
BRANCH  15  17
HETATM   17  N4  UNL     1      19.353   0.114  52.551  1.00  0.00    -0.315 N 
HETATM   18  C12 UNL     1      19.194  -0.891  53.441  1.00  0.00     0.117 A 
HETATM   19  C13 UNL     1      17.991  -1.518  53.217  1.00  0.00     0.135 A 
HETATM   20  N5  UNL     1      17.405  -0.879  52.168  1.00  0.00    -0.254 NA
HETATM   21  C14 UNL     1      18.251   0.112  51.777  1.00  0.00     0.214 A 
ENDBRANCH  15  17
ENDBRANCH   9  11
ENDBRANCH   5   9
BRANCH   1  22
HETATM   22  C2  UNL     1      28.824  -0.828  53.391  1.00  0.00     0.017 C 
HETATM   23  C1  UNL     1      29.340  -2.018  53.162  1.00  0.00     0.080 C 
BRANCH  23  24
HETATM   24  N1  UNL     1      28.482  -3.163  53.269  1.00  0.00    -0.408 N 
HETATM   25  H1  UNL     1      27.565  -3.669  53.125  1.00  0.00     0.155 HD
HETATM   26  H2  UNL     1      29.067  -3.896  53.740  1.00  0.00     0.155 HD
ENDBRANCH  23  24
ENDBRANCH   1  22
TORSDOF 5
ENDMDL
MODEL 9
REMARK VINA RESULT:      -7.1      2.828      8.655
REMARK  5 active torsions:
REMARK  status: ('A' for Active; 'I' for Inactive)
REMARK    1  A    between atoms: N1_1  and  C1_2 
REMARK    2  A    between atoms: C2_3  and  C3_4 
REMARK    3  A    between atoms: C6_8  and  N3_9 
REMARK    4  A    between atoms: N3_9  and  C7_10 
REMARK    5  A    between atoms: C11_14  and  N4_15 
ROOT
HETATM    1  C3  UNL     1      22.190   0.547  53.172  1.00  0.00     0.012 C 
HETATM    2  C4  UNL     1      23.013   1.375  52.554  1.00  0.00    -0.013 C 
HETATM    3  C5  UNL     1      24.389   1.041  52.203  1.00  0.00     0.123 C 
HETATM    4  N2  UNL     1      25.218   1.971  51.867  1.00  0.00    -0.247 NA
HETATM    5  C6  UNL     1      24.840   3.367  51.819  1.00  0.00     0.446 C 
HETATM    6  N6  UNL     1      23.637   3.627  52.589  1.00  0.00     0.131 N 
HETATM    7  C16 UNL     1      22.584   2.744  52.160  1.00  0.00     0.314 C 
HETATM    8  H16 UNL     1      23.349   4.602  52.505  1.00  0.00     0.321 HD
ENDROOT
BRANCH   5   9
HETATM    9  N3  UNL     1      24.672   3.741  50.429  1.00  0.00    -0.343 N 
HETATM   10  H8  UNL     1      23.842   3.458  49.864  1.00  0.00     0.163 HD
BRANCH   9  11
HETATM   11  C7  UNL     1      25.663   4.524  49.793  1.00  0.00     0.033 A 
HETATM   12  C8  UNL     1      26.798   3.990  49.223  1.00  0.00     0.029 A 
HETATM   13  C9  UNL     1      27.789   4.728  48.592  1.00  0.00     0.004 A 
HETATM   14  C10 UNL     1      27.636   6.106  48.523  1.00  0.00     0.030 A 
HETATM   15  C11 UNL     1      26.516   6.688  49.080  1.00  0.00     0.042 A 
HETATM   16  C15 UNL     1      25.570   5.893  49.692  1.00  0.00     0.059 A 
BRANCH  15  17
HETATM   17  N4  UNL     1      26.453   8.092  48.958  1.00  0.00    -0.315 N 
HETATM   18  C12 UNL     1      26.242   9.019  47.998  1.00  0.00     0.117 A 
HETATM   19  C13 UNL     1      26.313  10.278  48.548  1.00  0.00     0.135 A 
HETATM   20  N5  UNL     1      26.574  10.111  49.873  1.00  0.00    -0.254 NA
HETATM   21  C14 UNL     1      26.656   8.773  50.103  1.00  0.00     0.214 A 
ENDBRANCH  15  17
ENDBRANCH   9  11
ENDBRANCH   5   9
BRANCH   1  22
HETATM   22  C2  UNL     1      22.574  -0.797  53.570  1.00  0.00     0.017 C 
HETATM   23  C1  UNL     1      21.731  -1.566  54.228  1.00  0.00     0.080 C 
BRANCH  23  24
HETATM   24  N1  UNL     1      20.432  -1.044  54.535  1.00  0.00    -0.408 N 
HETATM   25  H1  UNL     1      19.662  -0.768  55.206  1.00  0.00     0.155 HD
HETATM   26  H2  UNL     1      20.010  -0.802  53.605  1.00  0.00     0.155 HD
ENDBRANCH  23  24
ENDBRANCH   1  22
TORSDOF 5
ENDMDL
