MODEL 1
REMARK VINA RESULT:      -8.1      0.000      0.000
REMARK  4 active torsions:
REMARK  status: ('A' for Active; 'I' for Inactive)
REMARK    1  A    between atoms: O1_1  and  C1_2 
REMARK    2  A    between atoms: C2_3  and  N1_4 
REMARK    3  A    between atoms: N1_4  and  C3_5 
REMARK    4  A    between atoms: C11_14  and  O3_15 
ROOT
HETATM    1  C3  UNL     1      22.982   1.900  52.456  1.00  0.00     0.128 C 
HETATM    2  C4  UNL     1      22.102   0.977  52.775  1.00  0.00     0.052 C 
HETATM    3  C5  UNL     1      22.304  -0.260  53.503  1.00  0.00     0.028 C 
HETATM    4  C6  UNL     1      23.458  -0.679  53.987  1.00  0.00     0.135 C 
HETATM    5  O2  UNL     1      24.682  -0.067  53.916  1.00  0.00    -0.358 OA
HETATM    6  C7  UNL     1      25.800  -0.685  53.352  1.00  0.00     0.216 C 
HETATM    7  C8  UNL     1      27.029   0.133  53.362  1.00  0.00     0.006 C 
HETATM    8  C9  UNL     1      28.187  -0.347  53.713  1.00  0.00    -0.012 C 
HETATM    9  C10 UNL     1      28.918   0.369  54.519  1.00  0.00     0.049 C 
HETATM   10  C11 UNL     1      29.134   1.793  54.247  1.00  0.00     0.068 C 
HETATM   11  C12 UNL     1      28.198   2.360  53.477  1.00  0.00     0.068 C 
HETATM   12  C13 UNL     1      27.076   1.542  52.985  1.00  0.00     0.070 C 
HETATM   13  N2  UNL     1      26.271   2.266  52.255  1.00  0.00    -0.241 NA
HETATM   14  C14 UNL     1      25.132   1.620  51.703  1.00  0.00     0.235 C 
HETATM   15  N3  UNL     1      24.361   2.224  52.575  1.00  0.00    -0.225 NA
ENDROOT
BRANCH   1  16
HETATM   16  N1  UNL     1      22.701   3.106  51.727  1.00  0.00    -0.349 N 
HETATM   17  H4  UNL     1      22.229   3.313  50.800  1.00  0.00     0.167 HD
BRANCH  16  18
HETATM   18  C2  UNL     1      23.081   4.381  52.243  1.00  0.00     0.113 C 
HETATM   19  C1  UNL     1      23.760   5.456  51.881  1.00  0.00     0.148 C 
BRANCH  19  20
HETATM   20  O1  UNL     1      24.215   6.723  52.223  1.00  0.00    -0.371 OA
HETATM   21  H1  UNL     1      24.424   6.870  53.218  1.00  0.00     0.216 HD
ENDBRANCH  19  20
ENDBRANCH  16  18
ENDBRANCH   1  16
BRANCH  10  22
HETATM   22  O3  UNL     1      30.232   2.471  54.763  1.00  0.00    -0.361 OA
HETATM   23  H11 UNL     1      30.301   3.486  54.709  1.00  0.00     0.217 HD
ENDBRANCH  10  22
TORSDOF 4
ENDMDL
MODEL 2
REMARK VINA RESULT:      -7.7      1.695      1.815
REMARK  4 active torsions:
REMARK  status: ('A' for Active; 'I' for Inactive)
REMARK    1  A    between atoms: O1_1  and  C1_2 
REMARK    2  A    between atoms: C2_3  and  N1_4 
REMARK    3  A    between atoms: N1_4  and  C3_5 
REMARK    4  A    between atoms: C11_14  and  O3_15 
ROOT
HETATM    1  C3  UNL     1      22.813   1.635  52.718  1.00  0.00     0.128 C 
HETATM    2  C4  UNL     1      21.997   0.667  53.074  1.00  0.00     0.052 C 
HETATM    3  C5  UNL     1      22.299  -0.567  53.771  1.00  0.00     0.028 C 
HETATM    4  C6  UNL     1      23.498  -0.936  54.183  1.00  0.00     0.135 C 
HETATM    5  O2  UNL     1      24.685  -0.265  54.051  1.00  0.00    -0.358 OA
HETATM    6  C7  UNL     1      25.797  -0.822  53.416  1.00  0.00     0.216 C 
HETATM    7  C8  UNL     1      26.984   0.054  53.368  1.00  0.00     0.006 C 
HETATM    8  C9  UNL     1      28.182  -0.373  53.645  1.00  0.00    -0.012 C 
HETATM    9  C10 UNL     1      28.923   0.367  54.418  1.00  0.00     0.049 C 
HETATM   10  C11 UNL     1      29.056   1.803  54.155  1.00  0.00     0.068 C 
HETATM   11  C12 UNL     1      28.051   2.334  53.448  1.00  0.00     0.068 C 
HETATM   12  C13 UNL     1      26.943   1.469  53.009  1.00  0.00     0.070 C 
HETATM   13  N2  UNL     1      26.063   2.161  52.337  1.00  0.00    -0.241 NA
HETATM   14  C14 UNL     1      24.926   1.467  51.841  1.00  0.00     0.235 C 
HETATM   15  N3  UNL     1      24.179   2.023  52.764  1.00  0.00    -0.225 NA
ENDROOT
BRANCH   1  16
HETATM   16  N1  UNL     1      22.433   2.834  52.024  1.00  0.00    -0.349 N 
HETATM   17  H4  UNL     1      22.913   3.457  51.312  1.00  0.00     0.167 HD
BRANCH  16  18
HETATM   18  C2  UNL     1      21.156   3.433  52.240  1.00  0.00     0.113 C 
HETATM   19  C1  UNL     1      19.901   3.308  51.843  1.00  0.00     0.148 C 
BRANCH  19  20
HETATM   20  O1  UNL     1      18.593   3.768  51.934  1.00  0.00    -0.371 OA
HETATM   21  H1  UNL     1      17.870   3.042  52.024  1.00  0.00     0.216 HD
ENDBRANCH  19  20
ENDBRANCH  16  18
ENDBRANCH   1  16
BRANCH  10  22
HETATM   22  O3  UNL     1      30.148   2.528  54.617  1.00  0.00    -0.361 OA
HETATM   23  H11 UNL     1      30.533   2.371  55.547  1.00  0.00     0.217 HD
ENDBRANCH  10  22
TORSDOF 4
ENDMDL
MODEL 3
REMARK VINA RESULT:      -7.5      2.579      3.708
REMARK  4 active torsions:
REMARK  status: ('A' for Active; 'I' for Inactive)
REMARK    1  A    between atoms: O1_1  and  C1_2 
REMARK    2  A    between atoms: C2_3  and  N1_4 
REMARK    3  A    between atoms: N1_4  and  C3_5 
REMARK    4  A    between atoms: C11_14  and  O3_15 
ROOT
HETATM    1  C3  UNL     1      23.805   1.919  51.221  1.00  0.00     0.128 C 
HETATM    2  C4  UNL     1      24.065   3.073  50.648  1.00  0.00     0.052 C 
HETATM    3  C5  UNL     1      25.349   3.701  50.409  1.00  0.00     0.028 C 
HETATM    4  C6  UNL     1      26.520   3.192  50.744  1.00  0.00     0.135 C 
HETATM    5  O2  UNL     1      26.782   2.002  51.369  1.00  0.00    -0.358 OA
HETATM    6  C7  UNL     1      27.495   1.921  52.566  1.00  0.00     0.216 C 
HETATM    7  C8  UNL     1      27.673   0.553  53.089  1.00  0.00     0.006 C 
HETATM    8  C9  UNL     1      28.813   0.119  53.545  1.00  0.00    -0.012 C 
HETATM    9  C10 UNL     1      29.205  -1.063  53.167  1.00  0.00     0.049 C 
HETATM   10  C11 UNL     1      28.282  -2.200  53.236  1.00  0.00     0.068 C 
HETATM   11  C12 UNL     1      26.986  -1.866  53.226  1.00  0.00     0.068 C 
HETATM   12  C13 UNL     1      26.609  -0.444  53.151  1.00  0.00     0.070 C 
HETATM   13  N2  UNL     1      25.309  -0.318  53.152  1.00  0.00    -0.241 NA
HETATM   14  C14 UNL     1      24.782   1.000  53.084  1.00  0.00     0.235 C 
HETATM   15  N3  UNL     1      24.438   0.803  51.834  1.00  0.00    -0.225 NA
ENDROOT
BRANCH   1  16
HETATM   16  N1  UNL     1      22.495   1.362  51.422  1.00  0.00    -0.349 N 
HETATM   17  H4  UNL     1      22.132   0.384  51.615  1.00  0.00     0.167 HD
BRANCH  16  18
HETATM   18  C2  UNL     1      21.333   2.189  51.380  1.00  0.00     0.113 C 
HETATM   19  C1  UNL     1      20.433   2.709  52.198  1.00  0.00     0.148 C 
BRANCH  19  20
HETATM   20  O1  UNL     1      19.296   3.494  52.339  1.00  0.00    -0.371 OA
HETATM   21  H1  UNL     1      18.539   3.309  51.668  1.00  0.00     0.216 HD
ENDBRANCH  19  20
ENDBRANCH  16  18
ENDBRANCH   1  16
BRANCH  10  22
HETATM   22  O3  UNL     1      28.746  -3.509  53.304  1.00  0.00    -0.361 OA
HETATM   23  H11 UNL     1      29.539  -3.760  53.890  1.00  0.00     0.217 HD
ENDBRANCH  10  22
TORSDOF 4
ENDMDL
MODEL 4
REMARK VINA RESULT:      -7.5      2.635      5.594
REMARK  4 active torsions:
REMARK  status: ('A' for Active; 'I' for Inactive)
REMARK    1  A    between atoms: O1_1  and  C1_2 
REMARK    2  A    between atoms: C2_3  and  N1_4 
REMARK    3  A    between atoms: N1_4  and  C3_5 
REMARK    4  A    between atoms: C11_14  and  O3_15 
ROOT
HETATM    1  C3  UNL     1      25.666   1.648  51.563  1.00  0.00     0.128 C 
HETATM    2  C4  UNL     1      26.796   1.004  51.756  1.00  0.00     0.052 C 
HETATM    3  C5  UNL     1      27.021  -0.254  52.441  1.00  0.00     0.028 C 
HETATM    4  C6  UNL     1      26.084  -0.990  53.008  1.00  0.00     0.135 C 
HETATM    5  O2  UNL     1      24.737  -0.747  53.077  1.00  0.00    -0.358 OA
HETATM    6  C7  UNL     1      24.047  -0.671  54.288  1.00  0.00     0.216 C 
HETATM    7  C8  UNL     1      22.602  -0.397  54.160  1.00  0.00     0.006 C 
HETATM    8  C9  UNL     1      21.703  -1.049  54.840  1.00  0.00    -0.012 C 
HETATM    9  C10 UNL     1      20.648  -1.466  54.200  1.00  0.00     0.049 C 
HETATM   10  C11 UNL     1      19.911  -0.553  53.322  1.00  0.00     0.068 C 
HETATM   11  C12 UNL     1      20.627   0.483  52.870  1.00  0.00     0.068 C 
HETATM   12  C13 UNL     1      22.037   0.616  53.275  1.00  0.00     0.070 C 
HETATM   13  N2  UNL     1      22.566   1.682  52.737  1.00  0.00    -0.241 NA
HETATM   14  C14 UNL     1      23.930   1.953  53.031  1.00  0.00     0.235 C 
HETATM   15  N3  UNL     1      24.272   1.569  51.825  1.00  0.00    -0.225 NA
ENDROOT
BRANCH   1  16
HETATM   16  N1  UNL     1      25.526   2.898  50.868  1.00  0.00    -0.349 N 
HETATM   17  H4  UNL     1      24.805   3.675  50.889  1.00  0.00     0.167 HD
BRANCH  16  18
HETATM   18  C2  UNL     1      26.497   3.318  49.911  1.00  0.00     0.113 C 
HETATM   19  C1  UNL     1      26.888   4.414  49.282  1.00  0.00     0.148 C 
BRANCH  19  20
HETATM   20  O1  UNL     1      27.762   4.991  48.370  1.00  0.00    -0.371 OA
HETATM   21  H1  UNL     1      28.093   5.936  48.604  1.00  0.00     0.216 HD
ENDBRANCH  19  20
ENDBRANCH  16  18
ENDBRANCH   1  16
BRANCH  10  22
HETATM   22  O3  UNL     1      18.576  -0.773  53.003  1.00  0.00    -0.361 OA
HETATM   23  H11 UNL     1      17.912  -0.003  52.939  1.00  0.00     0.217 HD
ENDBRANCH  10  22
TORSDOF 4
ENDMDL
MODEL 5
REMARK VINA RESULT:      -7.0      2.422      6.095
REMARK  4 active torsions:
REMARK  status: ('A' for Active; 'I' for Inactive)
REMARK    1  A    between atoms: O1_1  and  C1_2 
REMARK    2  A    between atoms: C2_3  and  N1_4 
REMARK    3  A    between atoms: N1_4  and  C3_5 
REMARK    4  A    between atoms: C11_14  and  O3_15 
ROOT
HETATM    1  C3  UNL     1      25.426  -0.302  53.825  1.00  0.00     0.128 C 
HETATM    2  C4  UNL     1      25.201  -0.933  54.956  1.00  0.00     0.052 C 
HETATM    3  C5  UNL     1      23.936  -1.345  55.532  1.00  0.00     0.028 C 
HETATM    4  C6  UNL     1      22.750  -1.142  54.988  1.00  0.00     0.135 C 
HETATM    5  O2  UNL     1      22.453  -0.523  53.803  1.00  0.00    -0.358 OA
HETATM    6  C7  UNL     1      21.600   0.580  53.723  1.00  0.00     0.216 C 
HETATM    7  C8  UNL     1      21.405   1.113  52.361  1.00  0.00     0.006 C 
HETATM    8  C9  UNL     1      20.233   1.437  51.896  1.00  0.00    -0.012 C 
HETATM    9  C10 UNL     1      19.931   1.045  50.692  1.00  0.00     0.049 C 
HETATM   10  C11 UNL     1      20.876   1.256  49.591  1.00  0.00     0.068 C 
HETATM   11  C12 UNL     1      22.151   1.396  49.972  1.00  0.00     0.068 C 
HETATM   12  C13 UNL     1      22.487   1.331  51.404  1.00  0.00     0.070 C 
HETATM   13  N2  UNL     1      23.771   1.487  51.579  1.00  0.00    -0.241 NA
HETATM   14  C14 UNL     1      24.259   1.450  52.913  1.00  0.00     0.235 C 
HETATM   15  N3  UNL     1      24.761   0.258  52.701  1.00  0.00    -0.225 NA
ENDROOT
BRANCH   1  16
HETATM   16  N1  UNL     1      26.720   0.072  53.321  1.00  0.00    -0.349 N 
HETATM   17  H4  UNL     1      27.214  -0.059  52.392  1.00  0.00     0.167 HD
BRANCH  16  18
HETATM   18  C2  UNL     1      27.648   0.781  54.140  1.00  0.00     0.113 C 
HETATM   19  C1  UNL     1      28.653   1.633  54.024  1.00  0.00     0.148 C 
BRANCH  19  20
HETATM   20  O1  UNL     1      29.624   2.392  54.664  1.00  0.00    -0.371 OA
HETATM   21  H1  UNL     1      29.304   2.929  55.480  1.00  0.00     0.216 HD
ENDBRANCH  19  20
ENDBRANCH  16  18
ENDBRANCH   1  16
BRANCH  10  22
HETATM   22  O3  UNL     1      20.451   1.301  48.268  1.00  0.00    -0.361 OA
HETATM   23  H11 UNL     1      19.533   0.955  47.994  1.00  0.00     0.217 HD
ENDBRANCH  10  22
TORSDOF 4
ENDMDL
MODEL 6
REMARK VINA RESULT:      -7.0      2.473      5.700
REMARK  4 active torsions:
REMARK  status: ('A' for Active; 'I' for Inactive)
REMARK    1  A    between atoms: O1_1  and  C1_2 
REMARK    2  A    between atoms: C2_3  and  N1_4 
REMARK    3  A    between atoms: N1_4  and  C3_5 
REMARK    4  A    between atoms: C11_14  and  O3_15 
ROOT
HETATM    1  C3  UNL     1      24.000   1.480  52.620  1.00  0.00     0.128 C 
HETATM    2  C4  UNL     1      24.878   0.502  52.639  1.00  0.00     0.052 C 
HETATM    3  C5  UNL     1      26.228   0.480  52.112  1.00  0.00     0.028 C 
HETATM    4  C6  UNL     1      26.822   1.487  51.498  1.00  0.00     0.135 C 
HETATM    5  O2  UNL     1      26.320   2.734  51.230  1.00  0.00    -0.358 OA
HETATM    6  C7  UNL     1      26.252   3.255  49.936  1.00  0.00     0.216 C 
HETATM    7  C8  UNL     1      25.678   4.611  49.846  1.00  0.00     0.006 C 
HETATM    8  C9  UNL     1      26.210   5.551  49.118  1.00  0.00    -0.012 C 
HETATM    9  C10 UNL     1      26.325   6.734  49.650  1.00  0.00     0.049 C 
HETATM   10  C11 UNL     1      25.182   7.348  50.332  1.00  0.00     0.068 C 
HETATM   11  C12 UNL     1      24.266   6.478  50.775  1.00  0.00     0.068 C 
HETATM   12  C13 UNL     1      24.472   5.037  50.549  1.00  0.00     0.070 C 
HETATM   13  N2  UNL     1      23.479   4.352  51.049  1.00  0.00    -0.241 NA
HETATM   14  C14 UNL     1      23.527   2.938  50.913  1.00  0.00     0.235 C 
HETATM   15  N3  UNL     1      23.825   2.821  52.184  1.00  0.00    -0.225 NA
ENDROOT
BRANCH   1  16
HETATM   16  N1  UNL     1      22.673   1.421  53.169  1.00  0.00    -0.349 N 
HETATM   17  H4  UNL     1      21.948   2.152  53.424  1.00  0.00     0.167 HD
BRANCH  16  18
HETATM   18  C2  UNL     1      22.067   0.170  53.490  1.00  0.00     0.113 C 
HETATM   19  C1  UNL     1      21.666  -0.517  54.546  1.00  0.00     0.148 C 
BRANCH  19  20
HETATM   20  O1  UNL     1      21.087  -1.681  55.034  1.00  0.00    -0.371 OA
HETATM   21  H1  UNL     1      20.129  -1.586  55.396  1.00  0.00     0.216 HD
ENDBRANCH  19  20
ENDBRANCH  16  18
ENDBRANCH   1  16
BRANCH  10  22
HETATM   22  O3  UNL     1      25.086   8.725  50.492  1.00  0.00    -0.361 OA
HETATM   23  H11 UNL     1      25.872   9.338  50.286  1.00  0.00     0.217 HD
ENDBRANCH  10  22
TORSDOF 4
ENDMDL
MODEL 7
REMARK VINA RESULT:      -6.9      3.592      5.396
REMARK  4 active torsions:
REMARK  status: ('A' for Active; 'I' for Inactive)
REMARK    1  A    between atoms: O1_1  and  C1_2 
REMARK    2  A    between atoms: C2_3  and  N1_4 
REMARK    3  A    between atoms: N1_4  and  C3_5 
REMARK    4  A    between atoms: C11_14  and  O3_15 
ROOT
HETATM    1  C3  UNL     1      23.636   3.699  50.439  1.00  0.00     0.128 C 
HETATM    2  C4  UNL     1      22.922   4.795  50.315  1.00  0.00     0.052 C 
HETATM    3  C5  UNL     1      21.730   5.192  51.039  1.00  0.00     0.028 C 
HETATM    4  C6  UNL     1      21.142   4.482  51.984  1.00  0.00     0.135 C 
HETATM    5  O2  UNL     1      21.507   3.258  52.479  1.00  0.00    -0.358 OA
HETATM    6  C7  UNL     1      20.649   2.156  52.470  1.00  0.00     0.216 C 
HETATM    7  C8  UNL     1      21.221   0.922  53.042  1.00  0.00     0.006 C 
HETATM    8  C9  UNL     1      20.563   0.162  53.870  1.00  0.00    -0.012 C 
HETATM    9  C10 UNL     1      21.190  -0.264  54.928  1.00  0.00     0.049 C 
HETATM   10  C11 UNL     1      22.523  -0.861  54.802  1.00  0.00     0.068 C 
HETATM   11  C12 UNL     1      23.193  -0.499  53.701  1.00  0.00     0.068 C 
HETATM   12  C13 UNL     1      22.563   0.429  52.747  1.00  0.00     0.070 C 
HETATM   13  N2  UNL     1      23.365   0.663  51.743  1.00  0.00    -0.241 NA
HETATM   14  C14 UNL     1      22.901   1.544  50.729  1.00  0.00     0.235 C 
HETATM   15  N3  UNL     1      23.705   2.481  51.170  1.00  0.00    -0.225 NA
ENDROOT
BRANCH   1  16
HETATM   16  N1  UNL     1      24.813   3.378  49.678  1.00  0.00    -0.349 N 
HETATM   17  H4  UNL     1      25.059   2.607  48.992  1.00  0.00     0.167 HD
BRANCH  16  18
HETATM   18  C2  UNL     1      25.984   4.188  49.763  1.00  0.00     0.113 C 
HETATM   19  C1  UNL     1      27.139   4.363  49.144  1.00  0.00     0.148 C 
BRANCH  19  20
HETATM   20  O1  UNL     1      28.339   5.059  49.079  1.00  0.00    -0.371 OA
HETATM   21  H1  UNL     1      28.497   5.746  49.827  1.00  0.00     0.216 HD
ENDBRANCH  19  20
ENDBRANCH  16  18
ENDBRANCH   1  16
BRANCH  10  22
HETATM   22  O3  UNL     1      23.024  -1.729  55.766  1.00  0.00    -0.361 OA
HETATM   23  H11 UNL     1      23.187  -2.712  55.560  1.00  0.00     0.217 HD
ENDBRANCH  10  22
TORSDOF 4
ENDMDL
MODEL 8
REMARK VINA RESULT:      -6.9      7.159     10.218
REMARK  4 active torsions:
REMARK  status: ('A' for Active; 'I' for Inactive)
REMARK    1  A    between atoms: O1_1  and  C1_2 
REMARK    2  A    between atoms: C2_3  and  N1_4 
REMARK    3  A    between atoms: N1_4  and  C3_5 
REMARK    4  A    between atoms: C11_14  and  O3_15 
ROOT
HETATM    1  C3  UNL     1      32.630   5.829  48.761  1.00  0.00     0.128 C 
HETATM    2  C4  UNL     1      33.270   6.975  48.835  1.00  0.00     0.052 C 
HETATM    3  C5  UNL     1      32.728   8.316  48.931  1.00  0.00     0.028 C 
HETATM    4  C6  UNL     1      31.443   8.617  48.962  1.00  0.00     0.135 C 
HETATM    5  O2  UNL     1      30.369   7.768  48.913  1.00  0.00    -0.358 OA
HETATM    6  C7  UNL     1      29.374   7.867  47.938  1.00  0.00     0.216 C 
HETATM    7  C8  UNL     1      28.301   6.861  48.046  1.00  0.00     0.006 C 
HETATM    8  C9  UNL     1      27.040   7.167  47.933  1.00  0.00    -0.012 C 
HETATM    9  C10 UNL     1      26.215   6.658  48.803  1.00  0.00     0.049 C 
HETATM   10  C11 UNL     1      26.259   5.225  49.109  1.00  0.00     0.068 C 
HETATM   11  C12 UNL     1      27.431   4.636  48.841  1.00  0.00     0.068 C 
HETATM   12  C13 UNL     1      28.532   5.440  48.285  1.00  0.00     0.070 C 
HETATM   13  N2  UNL     1      29.587   4.695  48.093  1.00  0.00    -0.241 NA
HETATM   14  C14 UNL     1      30.743   5.326  47.557  1.00  0.00     0.235 C 
HETATM   15  N3  UNL     1      31.321   5.276  48.732  1.00  0.00    -0.225 NA
ENDROOT
BRANCH   1  16
HETATM   16  N1  UNL     1      33.245   4.534  48.667  1.00  0.00    -0.349 N 
HETATM   17  H4  UNL     1      33.124   3.621  49.194  1.00  0.00     0.167 HD
BRANCH  16  18
HETATM   18  C2  UNL     1      34.258   4.271  47.698  1.00  0.00     0.113 C 
HETATM   19  C1  UNL     1      34.526   4.513  46.425  1.00  0.00     0.148 C 
BRANCH  19  20
HETATM   20  O1  UNL     1      35.407   4.353  45.364  1.00  0.00    -0.371 OA
HETATM   21  H1  UNL     1      36.320   3.943  45.599  1.00  0.00     0.216 HD
ENDBRANCH  19  20
ENDBRANCH  16  18
ENDBRANCH   1  16
BRANCH  10  22
HETATM   22  O3  UNL     1      25.158   4.561  49.634  1.00  0.00    -0.361 OA
HETATM   23  H11 UNL     1      24.283   4.493  49.117  1.00  0.00     0.217 HD
ENDBRANCH  10  22
TORSDOF 4
ENDMDL
MODEL 9
REMARK VINA RESULT:      -6.8      2.260      3.695
REMARK  4 active torsions:
REMARK  status: ('A' for Active; 'I' for Inactive)
REMARK    1  A    between atoms: O1_1  and  C1_2 
REMARK    2  A    between atoms: C2_3  and  N1_4 
REMARK    3  A    between atoms: N1_4  and  C3_5 
REMARK    4  A    between atoms: C11_14  and  O3_15 
ROOT
HETATM    1  C3  UNL     1      22.447   4.336  50.785  1.00  0.00     0.128 C 
HETATM    2  C4  UNL     1      21.155   4.571  50.854  1.00  0.00     0.052 C 
HETATM    3  C5  UNL     1      20.142   3.866  51.614  1.00  0.00     0.028 C 
HETATM    4  C6  UNL     1      20.363   2.826  52.396  1.00  0.00     0.135 C 
HETATM    5  O2  UNL     1      21.552   2.199  52.660  1.00  0.00    -0.358 OA
HETATM    6  C7  UNL     1      21.752   0.836  52.427  1.00  0.00     0.216 C 
HETATM    7  C8  UNL     1      23.099   0.342  52.769  1.00  0.00     0.006 C 
HETATM    8  C9  UNL     1      23.294  -0.766  53.425  1.00  0.00    -0.012 C 
HETATM    9  C10 UNL     1      24.159  -0.748  54.398  1.00  0.00     0.049 C 
HETATM   10  C11 UNL     1      25.487  -0.161  54.190  1.00  0.00     0.068 C 
HETATM   11  C12 UNL     1      25.552   0.727  53.192  1.00  0.00     0.068 C 
HETATM   12  C13 UNL     1      24.338   1.029  52.415  1.00  0.00     0.070 C 
HETATM   13  N2  UNL     1      24.597   1.914  51.490  1.00  0.00    -0.241 NA
HETATM   14  C14 UNL     1      23.523   2.314  50.650  1.00  0.00     0.235 C 
HETATM   15  N3  UNL     1      23.456   3.464  51.276  1.00  0.00    -0.225 NA
ENDROOT
BRANCH   1  16
HETATM   16  N1  UNL     1      23.391   5.086  50.003  1.00  0.00    -0.349 N 
HETATM   17  H4  UNL     1      23.530   5.237  48.962  1.00  0.00     0.167 HD
BRANCH  16  18
HETATM   18  C2  UNL     1      24.425   5.843  50.629  1.00  0.00     0.113 C 
HETATM   19  C1  UNL     1      25.306   6.785  50.338  1.00  0.00     0.148 C 
BRANCH  19  20
HETATM   20  O1  UNL     1      26.336   7.604  50.784  1.00  0.00    -0.371 OA
HETATM   21  H1  UNL     1      26.402   7.722  51.803  1.00  0.00     0.216 HD
ENDBRANCH  19  20
ENDBRANCH  16  18
ENDBRANCH   1  16
BRANCH  10  22
HETATM   22  O3  UNL     1      26.570  -0.519  54.984  1.00  0.00    -0.361 OA
HETATM   23  H11 UNL     1      27.519  -0.242  54.741  1.00  0.00     0.217 HD
ENDBRANCH  10  22
TORSDOF 4
ENDMDL
