MODEL 1
REMARK VINA RESULT:      -9.6      0.000      0.000
REMARK  5 active torsions:
REMARK  status: ('A' for Active; 'I' for Inactive)
REMARK    1  A    between atoms: O1_1  and  C1_2 
REMARK    2  A    between atoms: C3_4  and  O2_5 
REMARK    3  A    between atoms: O2_5  and  C4_6 
REMARK    4  A    between atoms: C10_13  and  N2_14 
REMARK    5  A    between atoms: N2_14  and  C11_15 
ROOT
HETATM    1  C1  UNL     1      28.056  -2.158  53.000  1.00  0.00     0.070 A 
HETATM    2  C2  UNL     1      26.748  -1.722  52.821  1.00  0.00     0.074 A 
HETATM    3  C3  UNL     1      26.282  -0.436  52.987  1.00  0.00     0.088 A 
HETATM    4  C9  UNL     1      27.253   0.465  53.369  1.00  0.00     0.072 A 
HETATM    5  C10 UNL     1      26.985   1.779  53.576  1.00  0.00     0.144 A 
HETATM    6  N3  UNL     1      27.953   2.628  53.945  1.00  0.00    -0.223 NA
HETATM    7  C17 UNL     1      29.215   2.232  54.125  1.00  0.00     0.236 A 
HETATM    8  N4  UNL     1      29.538   0.942  53.932  1.00  0.00    -0.241 NA
HETATM    9  C18 UNL     1      28.563   0.092  53.561  1.00  0.00     0.077 A 
HETATM   10  C19 UNL     1      28.982  -1.204  53.384  1.00  0.00     0.069 A 
ENDROOT
BRANCH   5  11
HETATM   11  N2  UNL     1      25.701   2.340  53.399  1.00  0.00    -0.340 N 
HETATM   12  H13 UNL     1      24.808   2.464  53.911  1.00  0.00     0.167 HD
BRANCH  11  13
HETATM   13  C11 UNL     1      25.310   3.001  52.184  1.00  0.00     0.035 A 
HETATM   14  C12 UNL     1      26.150   2.834  51.081  1.00  0.00     0.032 A 
HETATM   15  C13 UNL     1      25.862   3.398  49.853  1.00  0.00     0.046 A 
HETATM   16  C14 UNL     1      24.737   4.147  49.669  1.00  0.00     0.138 A 
HETATM   17  F1  UNL     1      24.375   4.737  48.506  1.00  0.00    -0.204 F 
HETATM   18  C15 UNL     1      23.881   4.339  50.728  1.00  0.00     0.074 A 
HETATM   19 CL1  UNL     1      22.402   5.264  50.676  1.00  0.00    -0.081 Cl
HETATM   20  C16 UNL     1      24.176   3.776  51.934  1.00  0.00     0.056 A 
ENDBRANCH  11  13
ENDBRANCH   5  11
BRANCH   3  21
HETATM   21  O2  UNL     1      25.016  -0.050  52.810  1.00  0.00    -0.345 OA
BRANCH  21  22
HETATM   22  C4  UNL     1      23.778  -0.475  53.186  1.00  0.00     0.132 C 
HETATM   23  C5  UNL     1      22.612   0.426  52.843  1.00  0.00     0.051 C 
HETATM   24  C6  UNL     1      21.342  -0.370  53.014  1.00  0.00     0.116 C 
HETATM   25  N1  UNL     1      21.415  -1.401  53.986  1.00  0.00    -0.421 N 
HETATM   26  C7  UNL     1      22.338  -1.201  55.071  1.00  0.00     0.116 C 
HETATM   27  H8  UNL     1      21.391  -2.374  53.627  1.00  0.00     0.153 HD
HETATM   28  C8  UNL     1      23.746  -0.870  54.626  1.00  0.00     0.051 C 
ENDBRANCH  21  22
ENDBRANCH   3  21
BRANCH   1  29
HETATM   29  O1  UNL     1      28.445  -3.475  52.813  1.00  0.00    -0.361 OA
HETATM   30  H1  UNL     1      29.391  -3.749  53.068  1.00  0.00     0.217 HD
ENDBRANCH   1  29
TORSDOF 5
ENDMDL
MODEL 2
REMARK VINA RESULT:      -9.0      1.944      5.200
REMARK  5 active torsions:
REMARK  status: ('A' for Active; 'I' for Inactive)
REMARK    1  A    between atoms: O1_1  and  C1_2 
REMARK    2  A    between atoms: C3_4  and  O2_5 
REMARK    3  A    between atoms: O2_5  and  C4_6 
REMARK    4  A    between atoms: C10_13  and  N2_14 
REMARK    5  A    between atoms: N2_14  and  C11_15 
ROOT
HETATM    1  C1  UNL     1      23.078  -1.243  54.943  1.00  0.00     0.070 A 
HETATM    2  C2  UNL     1      24.245  -0.662  54.458  1.00  0.00     0.074 A 
HETATM    3  C3  UNL     1      24.355   0.164  53.360  1.00  0.00     0.088 A 
HETATM    4  C9  UNL     1      23.158   0.404  52.720  1.00  0.00     0.072 A 
HETATM    5  C10 UNL     1      23.067   1.198  51.623  1.00  0.00     0.144 A 
HETATM    6  N3  UNL     1      21.888   1.412  51.026  1.00  0.00    -0.223 NA
HETATM    7  C17 UNL     1      20.755   0.864  51.472  1.00  0.00     0.236 A 
HETATM    8  N4  UNL     1      20.786   0.070  52.556  1.00  0.00    -0.241 NA
HETATM    9  C18 UNL     1      21.973  -0.142  53.154  1.00  0.00     0.077 A 
HETATM   10  C19 UNL     1      21.912  -0.962  54.254  1.00  0.00     0.069 A 
ENDROOT
BRANCH   5  11
HETATM   11  N2  UNL     1      24.179   1.861  51.058  1.00  0.00    -0.340 N 
HETATM   12  H13 UNL     1      25.094   1.650  50.619  1.00  0.00     0.167 HD
BRANCH  11  13
HETATM   13  C11 UNL     1      24.256   3.293  50.965  1.00  0.00     0.035 A 
HETATM   14  C12 UNL     1      23.658   4.022  51.996  1.00  0.00     0.032 A 
HETATM   15  C13 UNL     1      23.694   5.402  52.028  1.00  0.00     0.046 A 
HETATM   16  C14 UNL     1      24.318   6.114  51.045  1.00  0.00     0.138 A 
HETATM   17  F1  UNL     1      24.403   7.464  50.994  1.00  0.00    -0.204 F 
HETATM   18  C15 UNL     1      24.920   5.438  50.010  1.00  0.00     0.074 A 
HETATM   19 CL1  UNL     1      25.761   6.181  48.673  1.00  0.00    -0.081 Cl
HETATM   20  C16 UNL     1      24.879   4.075  49.990  1.00  0.00     0.056 A 
ENDBRANCH  11  13
ENDBRANCH   5  11
BRANCH   3  21
HETATM   21  O2  UNL     1      25.493   0.704  52.918  1.00  0.00    -0.345 OA
BRANCH  21  22
HETATM   22  C4  UNL     1      26.728   0.986  53.419  1.00  0.00     0.132 C 
HETATM   23  C5  UNL     1      27.486   2.123  52.768  1.00  0.00     0.051 C 
HETATM   24  C6  UNL     1      28.633   2.496  53.675  1.00  0.00     0.116 C 
HETATM   25  N1  UNL     1      29.134   1.430  54.467  1.00  0.00    -0.421 N 
HETATM   26  C7  UNL     1      28.990   0.104  53.930  1.00  0.00     0.116 C 
HETATM   27  H8  UNL     1      28.955   1.493  55.487  1.00  0.00     0.153 HD
HETATM   28  C8  UNL     1      27.576  -0.240  53.512  1.00  0.00     0.051 C 
ENDBRANCH  21  22
ENDBRANCH   3  21
BRANCH   1  29
HETATM   29  O1  UNL     1      23.052  -2.066  56.057  1.00  0.00    -0.361 OA
HETATM   30  H1  UNL     1      23.739  -1.921  56.793  1.00  0.00     0.217 HD
ENDBRANCH   1  29
TORSDOF 5
ENDMDL
MODEL 3
REMARK VINA RESULT:      -9.0      3.335      6.407
REMARK  5 active torsions:
REMARK  status: ('A' for Active; 'I' for Inactive)
REMARK    1  A    between atoms: O1_1  and  C1_2 
REMARK    2  A    between atoms: C3_4  and  O2_5 
REMARK    3  A    between atoms: O2_5  and  C4_6 
REMARK    4  A    between atoms: C10_13  and  N2_14 
REMARK    5  A    between atoms: N2_14  and  C11_15 
ROOT
HETATM    1  C1  UNL     1      19.903  -0.187  52.768  1.00  0.00     0.070 A 
HETATM    2  C2  UNL     1      20.823   0.501  51.985  1.00  0.00     0.074 A 
HETATM    3  C3  UNL     1      22.183   0.577  52.194  1.00  0.00     0.088 A 
HETATM    4  C9  UNL     1      22.618  -0.117  53.302  1.00  0.00     0.072 A 
HETATM    5  C10 UNL     1      23.925  -0.162  53.665  1.00  0.00     0.144 A 
HETATM    6  N3  UNL     1      24.313  -0.848  54.748  1.00  0.00    -0.223 NA
HETATM    7  C17 UNL     1      23.448  -1.515  55.517  1.00  0.00     0.236 A 
HETATM    8  N4  UNL     1      22.141  -1.506  55.202  1.00  0.00    -0.241 NA
HETATM    9  C18 UNL     1      21.754  -0.816  54.114  1.00  0.00     0.077 A 
HETATM   10  C19 UNL     1      20.404  -0.863  53.866  1.00  0.00     0.069 A 
ENDROOT
BRANCH   5  11
HETATM   11  N2  UNL     1      24.950   0.475  52.933  1.00  0.00    -0.340 N 
HETATM   12  H13 UNL     1      25.073   1.155  52.160  1.00  0.00     0.167 HD
BRANCH  11  13
HETATM   13  C11 UNL     1      26.344   0.238  53.193  1.00  0.00     0.035 A 
HETATM   14  C12 UNL     1      26.845  -1.014  52.833  1.00  0.00     0.032 A 
HETATM   15  C13 UNL     1      28.175  -1.345  53.009  1.00  0.00     0.046 A 
HETATM   16  C14 UNL     1      29.057  -0.454  53.547  1.00  0.00     0.138 A 
HETATM   17  F1  UNL     1      30.374  -0.689  53.757  1.00  0.00    -0.204 F 
HETATM   18  C15 UNL     1      28.607   0.792  53.918  1.00  0.00     0.074 A 
HETATM   19 CL1  UNL     1      29.589   2.053  54.619  1.00  0.00    -0.081 Cl
HETATM   20  C16 UNL     1      27.293   1.106  53.738  1.00  0.00     0.056 A 
ENDBRANCH  11  13
ENDBRANCH   5  11
BRANCH   3  21
HETATM   21  O2  UNL     1      23.040   1.251  51.423  1.00  0.00    -0.345 OA
BRANCH  21  22
HETATM   22  C4  UNL     1      23.210   2.534  50.999  1.00  0.00     0.132 C 
HETATM   23  C5  UNL     1      24.450   2.826  50.182  1.00  0.00     0.051 C 
HETATM   24  C6  UNL     1      24.268   4.173  49.526  1.00  0.00     0.116 C 
HETATM   25  N1  UNL     1      23.444   5.076  50.245  1.00  0.00    -0.421 N 
HETATM   26  C7  UNL     1      23.401   4.914  51.674  1.00  0.00     0.116 C 
HETATM   27  H8  UNL     1      22.524   5.297  49.819  1.00  0.00     0.153 HD
HETATM   28  C8  UNL     1      23.067   3.507  52.123  1.00  0.00     0.051 C 
ENDBRANCH  21  22
ENDBRANCH   3  21
BRANCH   1  29
HETATM   29  O1  UNL     1      18.546  -0.214  52.490  1.00  0.00    -0.361 OA
HETATM   30  H1  UNL     1      18.210   0.227  51.637  1.00  0.00     0.217 HD
ENDBRANCH   1  29
TORSDOF 5
ENDMDL
MODEL 4
REMARK VINA RESULT:      -8.9      2.317      2.908
REMARK  5 active torsions:
REMARK  status: ('A' for Active; 'I' for Inactive)
REMARK    1  A    between atoms: O1_1  and  C1_2 
REMARK    2  A    between atoms: C3_4  and  O2_5 
REMARK    3  A    between atoms: O2_5  and  C4_6 
REMARK    4  A    between atoms: C10_13  and  N2_14 
REMARK    5  A    between atoms: N2_14  and  C11_15 
ROOT
HETATM    1  C1  UNL     1      25.202  -0.647  55.030  1.00  0.00     0.070 A 
HETATM    2  C2  UNL     1      24.431  -0.345  53.914  1.00  0.00     0.074 A 
HETATM    3  C3  UNL     1      24.771   0.511  52.889  1.00  0.00     0.088 A 
HETATM    4  C9  UNL     1      26.010   1.095  53.037  1.00  0.00     0.072 A 
HETATM    5  C10 UNL     1      26.519   1.963  52.126  1.00  0.00     0.144 A 
HETATM    6  N3  UNL     1      27.728   2.512  52.300  1.00  0.00    -0.223 NA
HETATM    7  C17 UNL     1      28.487   2.239  53.365  1.00  0.00     0.236 A 
HETATM    8  N4  UNL     1      28.033   1.384  54.299  1.00  0.00    -0.241 NA
HETATM    9  C18 UNL     1      26.818   0.835  54.120  1.00  0.00     0.077 A 
HETATM   10  C19 UNL     1      26.436  -0.026  55.119  1.00  0.00     0.069 A 
ENDROOT
BRANCH   5  11
HETATM   11  N2  UNL     1      25.838   2.323  50.943  1.00  0.00    -0.340 N 
HETATM   12  H13 UNL     1      25.230   1.906  50.214  1.00  0.00     0.167 HD
BRANCH  11  13
HETATM   13  C11 UNL     1      25.873   3.659  50.410  1.00  0.00     0.035 A 
HETATM   14  C12 UNL     1      26.802   3.905  49.397  1.00  0.00     0.032 A 
HETATM   15  C13 UNL     1      26.907   5.142  48.790  1.00  0.00     0.046 A 
HETATM   16  C14 UNL     1      26.102   6.179  49.161  1.00  0.00     0.138 A 
HETATM   17  F1  UNL     1      26.135   7.422  48.625  1.00  0.00    -0.204 F 
HETATM   18  C15 UNL     1      25.173   5.982  50.156  1.00  0.00     0.074 A 
HETATM   19 CL1  UNL     1      24.066   7.190  50.757  1.00  0.00    -0.081 Cl
HETATM   20  C16 UNL     1      25.079   4.757  50.746  1.00  0.00     0.056 A 
ENDBRANCH  11  13
ENDBRANCH   5  11
BRANCH   3  21
HETATM   21  O2  UNL     1      24.004   0.783  51.830  1.00  0.00    -0.345 OA
BRANCH  21  22
HETATM   22  C4  UNL     1      22.745   1.250  51.600  1.00  0.00     0.132 C 
HETATM   23  C5  UNL     1      22.343   1.445  50.154  1.00  0.00     0.051 C 
HETATM   24  C6  UNL     1      20.843   1.613  50.107  1.00  0.00     0.116 C 
HETATM   25  N1  UNL     1      20.274   2.184  51.275  1.00  0.00    -0.421 N 
HETATM   26  C7  UNL     1      21.115   3.068  52.037  1.00  0.00     0.116 C 
HETATM   27  H8  UNL     1      19.689   1.555  51.856  1.00  0.00     0.153 HD
HETATM   28  C8  UNL     1      22.457   2.473  52.407  1.00  0.00     0.051 C 
ENDBRANCH  21  22
ENDBRANCH   3  21
BRANCH   1  29
HETATM   29  O1  UNL     1      24.786  -1.521  56.022  1.00  0.00    -0.361 OA
HETATM   30  H1  UNL     1      24.193  -2.307  55.767  1.00  0.00     0.217 HD
ENDBRANCH   1  29
TORSDOF 5
ENDMDL
MODEL 5
REMARK VINA RESULT:      -8.8      3.472      6.867
REMARK  5 active torsions:
REMARK  status: ('A' for Active; 'I' for Inactive)
REMARK    1  A    between atoms: O1_1  and  C1_2 
REMARK    2  A    between atoms: C3_4  and  O2_5 
REMARK    3  A    between atoms: O2_5  and  C4_6 
REMARK    4  A    between atoms: C10_13  and  N2_14 
REMARK    5  A    between atoms: N2_14  and  C11_15 
ROOT
HETATM    1  C1  UNL     1      21.662   1.519  49.464  1.00  0.00     0.070 A 
HETATM    2  C2  UNL     1      22.818   2.233  49.758  1.00  0.00     0.074 A 
HETATM    3  C3  UNL     1      23.584   2.120  50.898  1.00  0.00     0.088 A 
HETATM    4  C9  UNL     1      23.110   1.192  51.800  1.00  0.00     0.072 A 
HETATM    5  C10 UNL     1      23.733   0.939  52.979  1.00  0.00     0.144 A 
HETATM    6  N3  UNL     1      23.246   0.029  53.832  1.00  0.00    -0.223 NA
HETATM    7  C17 UNL     1      22.136  -0.667  53.573  1.00  0.00     0.236 A 
HETATM    8  N4  UNL     1      21.478  -0.457  52.420  1.00  0.00    -0.241 NA
HETATM    9  C18 UNL     1      21.971   0.457  51.564  1.00  0.00     0.077 A 
HETATM   10  C19 UNL     1      21.239   0.604  50.412  1.00  0.00     0.069 A 
ENDROOT
BRANCH   5  11
HETATM   11  N2  UNL     1      24.928   1.582  53.371  1.00  0.00    -0.340 N 
HETATM   12  H13 UNL     1      25.261   2.498  53.724  1.00  0.00     0.167 HD
BRANCH  11  13
HETATM   13  C11 UNL     1      26.203   0.918  53.350  1.00  0.00     0.035 A 
HETATM   14  C12 UNL     1      27.318   1.692  53.678  1.00  0.00     0.032 A 
HETATM   15  C13 UNL     1      28.591   1.156  53.718  1.00  0.00     0.046 A 
HETATM   16  C14 UNL     1      28.809  -0.161  53.434  1.00  0.00     0.138 A 
HETATM   17  F1  UNL     1      30.018  -0.771  53.448  1.00  0.00    -0.204 F 
HETATM   18  C15 UNL     1      27.740  -0.961  53.105  1.00  0.00     0.074 A 
HETATM   19 CL1  UNL     1      27.833  -2.658  52.714  1.00  0.00    -0.081 Cl
HETATM   20  C16 UNL     1      26.489  -0.419  53.070  1.00  0.00     0.056 A 
ENDBRANCH  11  13
ENDBRANCH   5  11
BRANCH   3  21
HETATM   21  O2  UNL     1      24.690   2.824  51.152  1.00  0.00    -0.345 OA
BRANCH  21  22
HETATM   22  C4  UNL     1      25.389   3.835  50.566  1.00  0.00     0.132 C 
HETATM   23  C5  UNL     1      24.583   4.907  49.864  1.00  0.00     0.051 C 
HETATM   24  C6  UNL     1      25.494   6.082  49.608  1.00  0.00     0.116 C 
HETATM   25  N1  UNL     1      26.862   5.746  49.442  1.00  0.00    -0.421 N 
HETATM   26  C7  UNL     1      27.147   4.436  48.921  1.00  0.00     0.116 C 
HETATM   27  H8  UNL     1      27.504   6.046  50.200  1.00  0.00     0.153 HD
HETATM   28  C8  UNL     1      26.472   3.313  49.679  1.00  0.00     0.051 C 
ENDBRANCH  21  22
ENDBRANCH   3  21
BRANCH   1  29
HETATM   29  O1  UNL     1      20.945   1.692  48.291  1.00  0.00    -0.361 OA
HETATM   30  H1  UNL     1      21.453   1.849  47.423  1.00  0.00     0.217 HD
ENDBRANCH   1  29
TORSDOF 5
ENDMDL
MODEL 6
REMARK VINA RESULT:      -8.7      3.374      5.997
REMARK  5 active torsions:
REMARK  status: ('A' for Active; 'I' for Inactive)
REMARK    1  A    between atoms: O1_1  and  C1_2 
REMARK    2  A    between atoms: C3_4  and  O2_5 
REMARK    3  A    between atoms: O2_5  and  C4_6 
REMARK    4  A    between atoms: C10_13  and  N2_14 
REMARK    5  A    between atoms: N2_14  and  C11_15 
ROOT
HETATM    1  C1  UNL     1      22.849   5.734  51.424  1.00  0.00     0.070 A 
HETATM    2  C2  UNL     1      22.701   4.507  52.060  1.00  0.00     0.074 A 
HETATM    3  C3  UNL     1      23.546   3.422  51.957  1.00  0.00     0.088 A 
HETATM    4  C9  UNL     1      24.626   3.632  51.128  1.00  0.00     0.072 A 
HETATM    5  C10 UNL     1      25.568   2.681  50.905  1.00  0.00     0.144 A 
HETATM    6  N3  UNL     1      26.607   2.920  50.094  1.00  0.00    -0.223 NA
HETATM    7  C17 UNL     1      26.769   4.089  49.470  1.00  0.00     0.236 A 
HETATM    8  N4  UNL     1      25.866   5.068  49.655  1.00  0.00    -0.241 NA
HETATM    9  C18 UNL     1      24.824   4.825  50.471  1.00  0.00     0.077 A 
HETATM   10  C19 UNL     1      23.954   5.879  50.604  1.00  0.00     0.069 A 
ENDROOT
BRANCH   5  11
HETATM   11  N2  UNL     1      25.537   1.409  51.518  1.00  0.00    -0.340 N 
HETATM   12  H13 UNL     1      24.912   0.589  51.620  1.00  0.00     0.167 HD
BRANCH  11  13
HETATM   13  C11 UNL     1      26.636   0.901  52.294  1.00  0.00     0.035 A 
HETATM   14  C12 UNL     1      26.830  -0.482  52.275  1.00  0.00     0.032 A 
HETATM   15  C13 UNL     1      27.870  -1.081  52.959  1.00  0.00     0.046 A 
HETATM   16  C14 UNL     1      28.754  -0.339  53.687  1.00  0.00     0.138 A 
HETATM   17  F1  UNL     1      29.799  -0.839  54.388  1.00  0.00    -0.204 F 
HETATM   18  C15 UNL     1      28.600   1.027  53.735  1.00  0.00     0.074 A 
HETATM   19 CL1  UNL     1      29.631   2.128  54.612  1.00  0.00    -0.081 Cl
HETATM   20  C16 UNL     1      27.571   1.606  53.054  1.00  0.00     0.056 A 
ENDBRANCH  11  13
ENDBRANCH   5  11
BRANCH   3  21
HETATM   21  O2  UNL     1      23.374   2.254  52.581  1.00  0.00    -0.345 OA
BRANCH  21  22
HETATM   22  C4  UNL     1      22.336   1.429  52.891  1.00  0.00     0.132 C 
HETATM   23  C5  UNL     1      22.669   0.175  53.670  1.00  0.00     0.051 C 
HETATM   24  C6  UNL     1      21.379  -0.395  54.209  1.00  0.00     0.116 C 
HETATM   25  N1  UNL     1      20.233  -0.115  53.421  1.00  0.00    -0.421 N 
HETATM   26  C7  UNL     1      20.448   0.078  52.012  1.00  0.00     0.116 C 
HETATM   27  H8  UNL     1      19.540   0.538  53.834  1.00  0.00     0.153 HD
HETATM   28  C8  UNL     1      21.509   1.109  51.688  1.00  0.00     0.051 C 
ENDBRANCH  21  22
ENDBRANCH   3  21
BRANCH   1  29
HETATM   29  O1  UNL     1      21.951   6.778  51.579  1.00  0.00    -0.361 OA
HETATM   30  H1  UNL     1      22.142   7.663  51.116  1.00  0.00     0.217 HD
ENDBRANCH   1  29
TORSDOF 5
ENDMDL
MODEL 7
REMARK VINA RESULT:      -8.7      2.994      6.040
REMARK  5 active torsions:
REMARK  status: ('A' for Active; 'I' for Inactive)
REMARK    1  A    between atoms: O1_1  and  C1_2 
REMARK    2  A    between atoms: C3_4  and  O2_5 
REMARK    3  A    between atoms: O2_5  and  C4_6 
REMARK    4  A    between atoms: C10_13  and  N2_14 
REMARK    5  A    between atoms: N2_14  and  C11_15 
ROOT
HETATM    1  C1  UNL     1      26.526   3.999  49.676  1.00  0.00     0.070 A 
HETATM    2  C2  UNL     1      26.556   2.785  50.352  1.00  0.00     0.074 A 
HETATM    3  C3  UNL     1      25.618   2.321  51.249  1.00  0.00     0.088 A 
HETATM    4  C9  UNL     1      24.567   3.188  51.455  1.00  0.00     0.072 A 
HETATM    5  C10 UNL     1      23.543   2.902  52.300  1.00  0.00     0.144 A 
HETATM    6  N3  UNL     1      22.536   3.768  52.477  1.00  0.00    -0.223 NA
HETATM    7  C17 UNL     1      22.486   4.940  51.840  1.00  0.00     0.236 A 
HETATM    8  N4  UNL     1      23.473   5.275  50.990  1.00  0.00    -0.241 NA
HETATM    9  C18 UNL     1      24.483   4.403  50.815  1.00  0.00     0.077 A 
HETATM   10  C19 UNL     1      25.444   4.824  49.929  1.00  0.00     0.069 A 
ENDROOT
BRANCH   5  11
HETATM   11  N2  UNL     1      23.454   1.690  53.019  1.00  0.00    -0.340 N 
HETATM   12  H13 UNL     1      24.033   1.076  53.620  1.00  0.00     0.167 HD
BRANCH  11  13
HETATM   13  C11 UNL     1      22.251   0.903  53.055  1.00  0.00     0.035 A 
HETATM   14  C12 UNL     1      22.118   0.011  54.122  1.00  0.00     0.032 A 
HETATM   15  C13 UNL     1      20.993  -0.776  54.276  1.00  0.00     0.046 A 
HETATM   16  C14 UNL     1      19.962  -0.713  53.386  1.00  0.00     0.138 A 
HETATM   17  F1  UNL     1      18.825  -1.445  53.457  1.00  0.00    -0.204 F 
HETATM   18  C15 UNL     1      20.050   0.150  52.319  1.00  0.00     0.074 A 
HETATM   19 CL1  UNL     1      18.833   0.362  51.088  1.00  0.00    -0.081 Cl
HETATM   20  C16 UNL     1      21.165   0.923  52.178  1.00  0.00     0.056 A 
ENDBRANCH  11  13
ENDBRANCH   5  11
BRANCH   3  21
HETATM   21  O2  UNL     1      25.678   1.149  51.884  1.00  0.00    -0.345 OA
BRANCH  21  22
HETATM   22  C4  UNL     1      26.624   0.403  52.520  1.00  0.00     0.132 C 
HETATM   23  C5  UNL     1      26.342  -1.077  52.668  1.00  0.00     0.051 C 
HETATM   24  C6  UNL     1      27.630  -1.759  53.060  1.00  0.00     0.116 C 
HETATM   25  N1  UNL     1      28.531  -0.947  53.796  1.00  0.00    -0.421 N 
HETATM   26  C7  UNL     1      27.952   0.100  54.594  1.00  0.00     0.116 C 
HETATM   27  H8  UNL     1      29.404  -0.670  53.307  1.00  0.00     0.153 HD
HETATM   28  C8  UNL     1      27.012   1.008  53.830  1.00  0.00     0.051 C 
ENDBRANCH  21  22
ENDBRANCH   3  21
BRANCH   1  29
HETATM   29  O1  UNL     1      27.513   4.394  48.788  1.00  0.00    -0.361 OA
HETATM   30  H1  UNL     1      28.413   4.695  49.156  1.00  0.00     0.217 HD
ENDBRANCH   1  29
TORSDOF 5
ENDMDL
MODEL 8
REMARK VINA RESULT:      -8.6      3.036      5.388
REMARK  5 active torsions:
REMARK  status: ('A' for Active; 'I' for Inactive)
REMARK    1  A    between atoms: O1_1  and  C1_2 
REMARK    2  A    between atoms: C3_4  and  O2_5 
REMARK    3  A    between atoms: O2_5  and  C4_6 
REMARK    4  A    between atoms: C10_13  and  N2_14 
REMARK    5  A    between atoms: N2_14  and  C11_15 
ROOT
HETATM    1  C1  UNL     1      28.354   1.237  53.798  1.00  0.00     0.070 A 
HETATM    2  C2  UNL     1      27.771   1.909  52.730  1.00  0.00     0.074 A 
HETATM    3  C3  UNL     1      26.476   1.767  52.278  1.00  0.00     0.088 A 
HETATM    4  C9  UNL     1      25.732   0.856  52.996  1.00  0.00     0.072 A 
HETATM    5  C10 UNL     1      24.435   0.586  52.703  1.00  0.00     0.144 A 
HETATM    6  N3  UNL     1      23.739  -0.305  53.422  1.00  0.00    -0.223 NA
HETATM    7  C17 UNL     1      24.277  -0.964  54.451  1.00  0.00     0.236 A 
HETATM    8  N4  UNL     1      25.558  -0.734  54.787  1.00  0.00    -0.241 NA
HETATM    9  C18 UNL     1      26.254   0.161  54.062  1.00  0.00     0.077 A 
HETATM   10  C19 UNL     1      27.552   0.335  54.476  1.00  0.00     0.069 A 
ENDROOT
BRANCH   5  11
HETATM   11  N2  UNL     1      23.732   1.226  51.659  1.00  0.00    -0.340 N 
HETATM   12  H13 UNL     1      23.886   1.592  50.702  1.00  0.00     0.167 HD
BRANCH  11  13
HETATM   13  C11 UNL     1      22.337   1.561  51.761  1.00  0.00     0.035 A 
HETATM   14  C12 UNL     1      22.033   2.836  52.245  1.00  0.00     0.032 A 
HETATM   15  C13 UNL     1      20.730   3.279  52.360  1.00  0.00     0.046 A 
HETATM   16  C14 UNL     1      19.681   2.483  52.005  1.00  0.00     0.138 A 
HETATM   17  F1  UNL     1      18.375   2.832  52.084  1.00  0.00    -0.204 F 
HETATM   18  C15 UNL     1      19.933   1.219  51.524  1.00  0.00     0.074 A 
HETATM   19 CL1  UNL     1      18.721   0.069  51.024  1.00  0.00    -0.081 Cl
HETATM   20  C16 UNL     1      21.224   0.794  51.414  1.00  0.00     0.056 A 
ENDBRANCH  11  13
ENDBRANCH   5  11
BRANCH   3  21
HETATM   21  O2  UNL     1      25.948   2.427  51.245  1.00  0.00    -0.345 OA
BRANCH  21  22
HETATM   22  C4  UNL     1      26.047   3.669  50.695  1.00  0.00     0.132 C 
HETATM   23  C5  UNL     1      24.755   4.431  50.490  1.00  0.00     0.051 C 
HETATM   24  C6  UNL     1      25.104   5.874  50.219  1.00  0.00     0.116 C 
HETATM   25  N1  UNL     1      26.362   6.072  49.594  1.00  0.00    -0.421 N 
HETATM   26  C7  UNL     1      26.846   5.004  48.761  1.00  0.00     0.116 C 
HETATM   27  H8  UNL     1      27.097   6.519  50.174  1.00  0.00     0.153 HD
HETATM   28  C8  UNL     1      26.863   3.652  49.444  1.00  0.00     0.051 C 
ENDBRANCH  21  22
ENDBRANCH   3  21
BRANCH   1  29
HETATM   29  O1  UNL     1      29.667   1.436  54.189  1.00  0.00    -0.361 OA
HETATM   30  H1  UNL     1      30.120   2.318  53.962  1.00  0.00     0.217 HD
ENDBRANCH   1  29
TORSDOF 5
ENDMDL
MODEL 9
REMARK VINA RESULT:      -8.4      3.494      7.055
REMARK  5 active torsions:
REMARK  status: ('A' for Active; 'I' for Inactive)
REMARK    1  A    between atoms: O1_1  and  C1_2 
REMARK    2  A    between atoms: C3_4  and  O2_5 
REMARK    3  A    between atoms: O2_5  and  C4_6 
REMARK    4  A    between atoms: C10_13  and  N2_14 
REMARK    5  A    between atoms: N2_14  and  C11_15 
ROOT
HETATM    1  C1  UNL     1      20.758   3.236  51.853  1.00  0.00     0.070 A 
HETATM    2  C2  UNL     1      21.967   3.451  51.200  1.00  0.00     0.074 A 
HETATM    3  C3  UNL     1      23.114   2.699  51.331  1.00  0.00     0.088 A 
HETATM    4  C9  UNL     1      22.993   1.642  52.207  1.00  0.00     0.072 A 
HETATM    5  C10 UNL     1      24.016   0.787  52.461  1.00  0.00     0.144 A 
HETATM    6  N3  UNL     1      23.863  -0.231  53.318  1.00  0.00    -0.223 NA
HETATM    7  C17 UNL     1      22.713  -0.457  53.958  1.00  0.00     0.236 A 
HETATM    8  N4  UNL     1      21.666   0.358  53.742  1.00  0.00    -0.241 NA
HETATM    9  C18 UNL     1      21.822   1.380  52.881  1.00  0.00     0.077 A 
HETATM   10  C19 UNL     1      20.703   2.159  52.719  1.00  0.00     0.069 A 
ENDROOT
BRANCH   5  11
HETATM   11  N2  UNL     1      25.279   0.890  51.838  1.00  0.00    -0.340 N 
HETATM   12  H13 UNL     1      25.702   1.190  50.941  1.00  0.00     0.167 HD
BRANCH  11  13
HETATM   13  C11 UNL     1      26.497   0.510  52.499  1.00  0.00     0.035 A 
HETATM   14  C12 UNL     1      26.856  -0.838  52.426  1.00  0.00     0.032 A 
HETATM   15  C13 UNL     1      28.019  -1.314  52.999  1.00  0.00     0.046 A 
HETATM   16  C14 UNL     1      28.869  -0.480  53.665  1.00  0.00     0.138 A 
HETATM   17  F1  UNL     1      30.027  -0.857  54.257  1.00  0.00    -0.204 F 
HETATM   18  C15 UNL     1      28.555   0.855  53.764  1.00  0.00     0.074 A 
HETATM   19 CL1  UNL     1      29.520   2.061  54.575  1.00  0.00    -0.081 Cl
HETATM   20  C16 UNL     1      27.405   1.313  53.193  1.00  0.00     0.056 A 
ENDBRANCH  11  13
ENDBRANCH   5  11
BRANCH   3  21
HETATM   21  O2  UNL     1      24.262   2.934  50.691  1.00  0.00    -0.345 OA
BRANCH  21  22
HETATM   22  C4  UNL     1      24.884   3.997  50.110  1.00  0.00     0.132 C 
HETATM   23  C5  UNL     1      24.156   4.679  48.972  1.00  0.00     0.051 C 
HETATM   24  C6  UNL     1      24.825   6.008  48.721  1.00  0.00     0.116 C 
HETATM   25  N1  UNL     1      26.206   6.046  49.043  1.00  0.00    -0.421 N 
HETATM   26  C7  UNL     1      26.925   4.804  48.952  1.00  0.00     0.116 C 
HETATM   27  H8  UNL     1      26.471   6.628  49.860  1.00  0.00     0.153 HD
HETATM   28  C8  UNL     1      26.290   3.668  49.726  1.00  0.00     0.051 C 
ENDBRANCH  21  22
ENDBRANCH   3  21
BRANCH   1  29
HETATM   29  O1  UNL     1      19.646   4.042  51.668  1.00  0.00    -0.361 OA
HETATM   30  H1  UNL     1      19.156   4.399  52.485  1.00  0.00     0.217 HD
ENDBRANCH   1  29
TORSDOF 5
ENDMDL
