MODEL 1
REMARK VINA RESULT:      -7.5      0.000      0.000
REMARK  5 active torsions:
REMARK  status: ('A' for Active; 'I' for Inactive)
REMARK    1  A    between atoms: C1_2  and  C2_3 
REMARK    2  A    between atoms: C3_4  and  C4_5 
REMARK    3  A    between atoms: C4_5  and  N1_6 
REMARK    4  A    between atoms: N1_6  and  C5_7 
REMARK    5  A    between atoms: C9_12  and  C10_13 
ROOT
HETATM    1  C5  UNL     1      20.557   2.912  52.047  1.00  0.00     0.122 C 
HETATM    2  C6  UNL     1      20.975   1.723  52.448  1.00  0.00     0.045 C 
HETATM    3  C7  UNL     1      21.980   0.631  52.688  1.00  0.00     0.179 C 
HETATM    4  N2  UNL     1      23.279   1.070  52.219  1.00  0.00    -0.300 NA
HETATM    5  C8  UNL     1      24.352   0.550  52.628  1.00  0.00     0.111 C 
HETATM    6  C9  UNL     1      25.549   1.173  51.997  1.00  0.00     0.147 C 
HETATM    7  N4  UNL     1      25.708   2.526  52.464  1.00  0.00    -0.373 N 
HETATM    8  C17 UNL     1      24.501   3.195  52.126  1.00  0.00     0.204 C 
HETATM    9  N5  UNL     1      23.763   3.792  51.227  1.00  0.00    -0.237 NA
HETATM   10  C18 UNL     1      22.471   4.301  51.627  1.00  0.00     0.236 C 
HETATM   11  N6  UNL     1      21.904   3.152  51.690  1.00  0.00    -0.225 NA
HETATM   12  H21 UNL     1      26.481   3.026  52.950  1.00  0.00     0.161 HD
ENDROOT
BRANCH   6  13
HETATM   13  C10 UNL     1      26.816   0.391  52.382  1.00  0.00     0.138 C 
HETATM   14  C11 UNL     1      26.439  -0.965  52.836  1.00  0.00     0.057 C 
HETATM   15  C12 UNL     1      27.463  -1.998  52.811  1.00  0.00    -0.024 C 
HETATM   16  C13 UNL     1      28.786  -2.132  53.022  1.00  0.00    -0.004 C 
HETATM   17  C14 UNL     1      29.805  -1.127  53.413  1.00  0.00     0.001 C 
HETATM   18  C15 UNL     1      29.790   0.167  53.738  1.00  0.00     0.019 C 
HETATM   19  C16 UNL     1      28.720   1.187  53.853  1.00  0.00     0.111 C 
HETATM   20  N3  UNL     1      27.537   1.225  53.282  1.00  0.00    -0.294 NA
ENDBRANCH   6  13
BRANCH   1  21
HETATM   21  N1  UNL     1      19.309   3.621  52.011  1.00  0.00    -0.372 N 
HETATM   22  H7  UNL     1      18.795   3.760  52.910  1.00  0.00     0.161 HD
BRANCH  21  23
HETATM   23  C4  UNL     1      18.836   4.106  50.711  1.00  0.00     0.148 C 
BRANCH  23  24
HETATM   24  C3  UNL     1      18.365   2.962  49.892  1.00  0.00    -0.011 C 
HETATM   25  C2  UNL     1      19.007   2.436  48.884  1.00  0.00    -0.018 C 
BRANCH  25  26
HETATM   26  C1  UNL     1      20.304   2.787  48.291  1.00  0.00     0.112 C 
HETATM   27 BR1  UNL     1      21.527   1.306  48.633  1.00  0.00    -0.092 Br
ENDBRANCH  25  26
ENDBRANCH  23  24
ENDBRANCH  21  23
ENDBRANCH   1  21
TORSDOF 5
ENDMDL
MODEL 2
REMARK VINA RESULT:      -7.4      2.031      3.102
REMARK  5 active torsions:
REMARK  status: ('A' for Active; 'I' for Inactive)
REMARK    1  A    between atoms: C1_2  and  C2_3 
REMARK    2  A    between atoms: C3_4  and  C4_5 
REMARK    3  A    between atoms: C4_5  and  N1_6 
REMARK    4  A    between atoms: N1_6  and  C5_7 
REMARK    5  A    between atoms: C9_12  and  C10_13 
ROOT
HETATM    1  C5  UNL     1      23.560   5.704  49.535  1.00  0.00     0.122 C 
HETATM    2  C6  UNL     1      24.745   5.203  49.227  1.00  0.00     0.045 C 
HETATM    3  C7  UNL     1      25.958   4.335  49.414  1.00  0.00     0.179 C 
HETATM    4  N2  UNL     1      25.817   3.579  50.642  1.00  0.00    -0.300 NA
HETATM    5  C8  UNL     1      26.463   2.519  50.857  1.00  0.00     0.111 C 
HETATM    6  C9  UNL     1      26.144   1.933  52.188  1.00  0.00     0.147 C 
HETATM    7  N4  UNL     1      24.793   1.435  52.200  1.00  0.00    -0.373 N 
HETATM    8  C17 UNL     1      23.969   2.548  51.882  1.00  0.00     0.204 C 
HETATM    9  N5  UNL     1      23.369   3.645  52.264  1.00  0.00    -0.237 NA
HETATM   10  C18 UNL     1      22.594   4.378  51.288  1.00  0.00     0.236 C 
HETATM   11  N6  UNL     1      23.608   4.855  50.664  1.00  0.00    -0.225 NA
HETATM   12  H21 UNL     1      24.380   0.497  52.387  1.00  0.00     0.161 HD
ENDROOT
BRANCH   6  13
HETATM   13  C10 UNL     1      27.083   0.750  52.483  1.00  0.00     0.138 C 
HETATM   14  C11 UNL     1      26.277  -0.458  52.766  1.00  0.00     0.057 C 
HETATM   15  C12 UNL     1      26.924  -1.753  52.622  1.00  0.00    -0.024 C 
HETATM   16  C13 UNL     1      28.126  -2.324  52.825  1.00  0.00    -0.004 C 
HETATM   17  C14 UNL     1      29.391  -1.746  53.342  1.00  0.00     0.001 C 
HETATM   18  C15 UNL     1      29.770  -0.561  53.822  1.00  0.00     0.019 C 
HETATM   19  C16 UNL     1      29.072   0.726  54.054  1.00  0.00     0.111 C 
HETATM   20  N3  UNL     1      27.988   1.204  53.483  1.00  0.00    -0.294 NA
ENDBRANCH   6  13
BRANCH   1  21
HETATM   21  N1  UNL     1      22.653   6.660  48.966  1.00  0.00    -0.372 N 
HETATM   22  H7  UNL     1      22.847   7.675  49.118  1.00  0.00     0.161 HD
BRANCH  21  23
HETATM   23  C4  UNL     1      21.509   6.149  48.205  1.00  0.00     0.148 C 
BRANCH  23  24
HETATM   24  C3  UNL     1      21.971   5.632  46.893  1.00  0.00    -0.011 C 
HETATM   25  C2  UNL     1      21.800   4.414  46.455  1.00  0.00    -0.018 C 
BRANCH  25  26
HETATM   26  C1  UNL     1      21.146   3.258  47.080  1.00  0.00     0.112 C 
HETATM   27 BR1  UNL     1      22.518   2.247  48.029  1.00  0.00    -0.092 Br
ENDBRANCH  25  26
ENDBRANCH  23  24
ENDBRANCH  21  23
ENDBRANCH   1  21
TORSDOF 5
ENDMDL
MODEL 3
REMARK VINA RESULT:      -7.4      3.430      4.665
REMARK  5 active torsions:
REMARK  status: ('A' for Active; 'I' for Inactive)
REMARK    1  A    between atoms: C1_2  and  C2_3 
REMARK    2  A    between atoms: C3_4  and  C4_5 
REMARK    3  A    between atoms: C4_5  and  N1_6 
REMARK    4  A    between atoms: N1_6  and  C5_7 
REMARK    5  A    between atoms: C9_12  and  C10_13 
ROOT
HETATM    1  C5  UNL     1      23.684   5.913  49.960  1.00  0.00     0.122 C 
HETATM    2  C6  UNL     1      24.732   5.264  49.480  1.00  0.00     0.045 C 
HETATM    3  C7  UNL     1      25.862   4.272  49.508  1.00  0.00     0.179 C 
HETATM    4  N2  UNL     1      25.875   3.603  50.793  1.00  0.00    -0.300 NA
HETATM    5  C8  UNL     1      26.437   2.487  50.964  1.00  0.00     0.111 C 
HETATM    6  C9  UNL     1      26.313   2.012  52.370  1.00  0.00     0.147 C 
HETATM    7  N4  UNL     1      24.943   1.675  52.661  1.00  0.00    -0.373 N 
HETATM    8  C17 UNL     1      24.195   2.857  52.417  1.00  0.00     0.204 C 
HETATM    9  N5  UNL     1      23.794   4.035  52.820  1.00  0.00    -0.237 NA
HETATM   10  C18 UNL     1      22.930   4.800  51.949  1.00  0.00     0.236 C 
HETATM   11  N6  UNL     1      23.854   5.124  51.120  1.00  0.00    -0.225 NA
HETATM   12  H21 UNL     1      24.478   0.802  52.986  1.00  0.00     0.161 HD
ENDROOT
BRANCH   6  13
HETATM   13  C10 UNL     1      27.162   0.746  52.576  1.00  0.00     0.138 C 
HETATM   14  C11 UNL     1      26.273  -0.401  52.863  1.00  0.00     0.057 C 
HETATM   15  C12 UNL     1      26.800  -1.739  52.643  1.00  0.00    -0.024 C 
HETATM   16  C13 UNL     1      27.959  -2.415  52.762  1.00  0.00    -0.004 C 
HETATM   17  C14 UNL     1      29.292  -1.962  53.229  1.00  0.00     0.001 C 
HETATM   18  C15 UNL     1      29.793  -0.830  53.726  1.00  0.00     0.019 C 
HETATM   19  C16 UNL     1      29.219   0.501  54.036  1.00  0.00     0.111 C 
HETATM   20  N3  UNL     1      28.152   1.087  53.540  1.00  0.00    -0.294 NA
ENDBRANCH   6  13
BRANCH   1  21
HETATM   21  N1  UNL     1      22.791   6.937  49.495  1.00  0.00    -0.372 N 
HETATM   22  H7  UNL     1      21.936   6.644  48.972  1.00  0.00     0.161 HD
BRANCH  21  23
HETATM   23  C4  UNL     1      23.138   8.331  49.787  1.00  0.00     0.148 C 
BRANCH  23  24
HETATM   24  C3  UNL     1      24.032   8.857  48.726  1.00  0.00    -0.011 C 
HETATM   25  C2  UNL     1      25.289   9.174  48.882  1.00  0.00    -0.018 C 
BRANCH  25  26
HETATM   26  C1  UNL     1      26.148   9.113  50.071  1.00  0.00     0.112 C 
HETATM   27 BR1  UNL     1      28.000   9.164  49.463  1.00  0.00    -0.092 Br
ENDBRANCH  25  26
ENDBRANCH  23  24
ENDBRANCH  21  23
ENDBRANCH   1  21
TORSDOF 5
ENDMDL
MODEL 4
REMARK VINA RESULT:      -7.3      3.420      4.187
REMARK  5 active torsions:
REMARK  status: ('A' for Active; 'I' for Inactive)
REMARK    1  A    between atoms: C1_2  and  C2_3 
REMARK    2  A    between atoms: C3_4  and  C4_5 
REMARK    3  A    between atoms: C4_5  and  N1_6 
REMARK    4  A    between atoms: N1_6  and  C5_7 
REMARK    5  A    between atoms: C9_12  and  C10_13 
ROOT
HETATM    1  C5  UNL     1      19.525  -0.946  53.590  1.00  0.00     0.122 C 
HETATM    2  C6  UNL     1      20.545  -1.525  54.202  1.00  0.00     0.045 C 
HETATM    3  C7  UNL     1      21.994  -1.770  54.521  1.00  0.00     0.179 C 
HETATM    4  N2  UNL     1      22.814  -0.894  53.709  1.00  0.00    -0.300 NA
HETATM    5  C8  UNL     1      23.999  -0.601  54.023  1.00  0.00     0.111 C 
HETATM    6  C9  UNL     1      24.628   0.312  53.028  1.00  0.00     0.147 C 
HETATM    7  N4  UNL     1      24.004   1.609  53.079  1.00  0.00    -0.373 N 
HETATM    8  C17 UNL     1      22.626   1.384  52.819  1.00  0.00     0.204 C 
HETATM    9  N5  UNL     1      21.668   1.165  51.956  1.00  0.00    -0.237 NA
HETATM   10  C18 UNL     1      20.319   1.014  52.452  1.00  0.00     0.236 C 
HETATM   11  N6  UNL     1      20.498  -0.165  52.926  1.00  0.00    -0.225 NA
HETATM   12  H21 UNL     1      24.368   2.568  53.255  1.00  0.00     0.161 HD
ENDROOT
BRANCH   6  13
HETATM   13  C10 UNL     1      26.121   0.496  53.351  1.00  0.00     0.138 C 
HETATM   14  C11 UNL     1      26.588   1.786  52.798  1.00  0.00     0.057 C 
HETATM   15  C12 UNL     1      27.799   2.365  53.357  1.00  0.00    -0.024 C 
HETATM   16  C13 UNL     1      28.992   1.970  53.843  1.00  0.00    -0.004 C 
HETATM   17  C14 UNL     1      29.566   0.611  53.997  1.00  0.00     0.001 C 
HETATM   18  C15 UNL     1      29.181  -0.626  53.681  1.00  0.00     0.019 C 
HETATM   19  C16 UNL     1      27.981  -1.194  53.021  1.00  0.00     0.111 C 
HETATM   20  N3  UNL     1      26.769  -0.695  52.918  1.00  0.00    -0.294 NA
ENDBRANCH   6  13
BRANCH   1  21
HETATM   21  N1  UNL     1      18.094  -1.063  53.612  1.00  0.00    -0.372 N 
HETATM   22  H7  UNL     1      17.622  -1.151  54.539  1.00  0.00     0.161 HD
BRANCH  21  23
HETATM   23  C4  UNL     1      17.387  -1.050  52.328  1.00  0.00     0.148 C 
BRANCH  23  24
HETATM   24  C3  UNL     1      16.114  -1.802  52.449  1.00  0.00    -0.011 C 
HETATM   25  C2  UNL     1      14.926  -1.329  52.186  1.00  0.00    -0.018 C 
BRANCH  25  26
HETATM   26  C1  UNL     1      14.509  -0.001  51.721  1.00  0.00     0.112 C 
HETATM   27 BR1  UNL     1      13.696   0.924  53.234  1.00  0.00    -0.092 Br
ENDBRANCH  25  26
ENDBRANCH  23  24
ENDBRANCH  21  23
ENDBRANCH   1  21
TORSDOF 5
ENDMDL
MODEL 5
REMARK VINA RESULT:      -7.2      2.136      3.122
REMARK  5 active torsions:
REMARK  status: ('A' for Active; 'I' for Inactive)
REMARK    1  A    between atoms: C1_2  and  C2_3 
REMARK    2  A    between atoms: C3_4  and  C4_5 
REMARK    3  A    between atoms: C4_5  and  N1_6 
REMARK    4  A    between atoms: N1_6  and  C5_7 
REMARK    5  A    between atoms: C9_12  and  C10_13 
ROOT
HETATM    1  C5  UNL     1      19.752   0.505  51.238  1.00  0.00     0.122 C 
HETATM    2  C6  UNL     1      20.872   0.890  50.649  1.00  0.00     0.045 C 
HETATM    3  C7  UNL     1      22.337   1.217  50.568  1.00  0.00     0.179 C 
HETATM    4  N2  UNL     1      22.938   1.031  51.874  1.00  0.00    -0.300 NA
HETATM    5  C8  UNL     1      24.177   0.854  52.025  1.00  0.00     0.111 C 
HETATM    6  C9  UNL     1      24.545   0.691  53.458  1.00  0.00     0.147 C 
HETATM    7  N4  UNL     1      24.028  -0.554  53.965  1.00  0.00    -0.373 N 
HETATM    8  C17 UNL     1      22.623  -0.498  53.765  1.00  0.00     0.204 C 
HETATM    9  N5  UNL     1      21.450  -0.070  54.154  1.00  0.00    -0.237 NA
HETATM   10  C18 UNL     1      20.291  -0.444  53.377  1.00  0.00     0.236 C 
HETATM   11  N6  UNL     1      20.536   0.356  52.404  1.00  0.00    -0.225 NA
HETATM   12  H21 UNL     1      24.475  -1.385  54.404  1.00  0.00     0.161 HD
ENDROOT
BRANCH   6  13
HETATM   13  C10 UNL     1      26.075   0.661  53.611  1.00  0.00     0.138 C 
HETATM   14  C11 UNL     1      26.645   1.925  53.097  1.00  0.00     0.057 C 
HETATM   15  C12 UNL     1      27.977   2.300  53.546  1.00  0.00    -0.024 C 
HETATM   16  C13 UNL     1      29.153   1.721  53.856  1.00  0.00    -0.004 C 
HETATM   17  C14 UNL     1      29.555   0.293  53.844  1.00  0.00     0.001 C 
HETATM   18  C15 UNL     1      28.976  -0.856  53.491  1.00  0.00     0.019 C 
HETATM   19  C16 UNL     1      27.646  -1.212  52.942  1.00  0.00     0.111 C 
HETATM   20  N3  UNL     1      26.507  -0.560  53.021  1.00  0.00    -0.294 NA
ENDBRANCH   6  13
BRANCH   1  21
HETATM   21  N1  UNL     1      18.381   0.319  50.850  1.00  0.00    -0.372 N 
HETATM   22  H7  UNL     1      17.977  -0.641  50.919  1.00  0.00     0.161 HD
BRANCH  21  23
HETATM   23  C4  UNL     1      17.638   1.493  50.383  1.00  0.00     0.148 C 
BRANCH  23  24
HETATM   24  C3  UNL     1      17.674   2.554  51.419  1.00  0.00    -0.011 C 
HETATM   25  C2  UNL     1      18.327   3.681  51.328  1.00  0.00    -0.018 C 
BRANCH  25  26
HETATM   26  C1  UNL     1      19.170   4.211  50.250  1.00  0.00     0.112 C 
HETATM   27 BR1  UNL     1      20.843   4.811  51.051  1.00  0.00    -0.092 Br
ENDBRANCH  25  26
ENDBRANCH  23  24
ENDBRANCH  21  23
ENDBRANCH   1  21
TORSDOF 5
ENDMDL
MODEL 6
REMARK VINA RESULT:      -7.2      4.495      7.189
REMARK  5 active torsions:
REMARK  status: ('A' for Active; 'I' for Inactive)
REMARK    1  A    between atoms: C1_2  and  C2_3 
REMARK    2  A    between atoms: C3_4  and  C4_5 
REMARK    3  A    between atoms: C4_5  and  N1_6 
REMARK    4  A    between atoms: N1_6  and  C5_7 
REMARK    5  A    between atoms: C9_12  and  C10_13 
ROOT
HETATM    1  C5  UNL     1      26.465   6.080  48.886  1.00  0.00     0.122 C 
HETATM    2  C6  UNL     1      26.582   4.772  49.046  1.00  0.00     0.045 C 
HETATM    3  C7  UNL     1      26.311   3.439  49.687  1.00  0.00     0.179 C 
HETATM    4  N2  UNL     1      25.398   3.622  50.797  1.00  0.00    -0.300 NA
HETATM    5  C8  UNL     1      24.705   2.677  51.260  1.00  0.00     0.111 C 
HETATM    6  C9  UNL     1      23.850   3.118  52.396  1.00  0.00     0.147 C 
HETATM    7  N4  UNL     1      22.818   4.005  51.925  1.00  0.00    -0.373 N 
HETATM    8  C17 UNL     1      23.495   5.086  51.299  1.00  0.00     0.204 C 
HETATM    9  N5  UNL     1      24.152   6.211  51.406  1.00  0.00    -0.237 NA
HETATM   10  C18 UNL     1      24.609   6.857  50.196  1.00  0.00     0.236 C 
HETATM   11  N6  UNL     1      25.566   6.031  49.975  1.00  0.00    -0.225 NA
HETATM   12  H21 UNL     1      21.778   3.977  51.972  1.00  0.00     0.161 HD
ENDROOT
BRANCH   6  13
HETATM   13  C10 UNL     1      23.164   1.903  53.045  1.00  0.00     0.138 C 
HETATM   14  C11 UNL     1      23.983   0.694  52.812  1.00  0.00     0.057 C 
HETATM   15  C12 UNL     1      23.778  -0.444  53.694  1.00  0.00    -0.024 C 
HETATM   16  C13 UNL     1      22.777  -1.065  54.347  1.00  0.00    -0.004 C 
HETATM   17  C14 UNL     1      21.327  -0.759  54.398  1.00  0.00     0.001 C 
HETATM   18  C15 UNL     1      20.520   0.130  53.817  1.00  0.00     0.019 C 
HETATM   19  C16 UNL     1      20.730   1.227  52.842  1.00  0.00     0.111 C 
HETATM   20  N3  UNL     1      21.822   1.908  52.572  1.00  0.00    -0.294 NA
ENDBRANCH   6  13
BRANCH   1  21
HETATM   21  N1  UNL     1      27.004   7.073  47.999  1.00  0.00    -0.372 N 
HETATM   22  H7  UNL     1      26.552   7.196  47.066  1.00  0.00     0.161 HD
BRANCH  21  23
HETATM   23  C4  UNL     1      28.155   7.852  48.464  1.00  0.00     0.148 C 
BRANCH  23  24
HETATM   24  C3  UNL     1      29.250   7.772  47.465  1.00  0.00    -0.011 C 
HETATM   25  C2  UNL     1      30.148   6.828  47.399  1.00  0.00    -0.018 C 
BRANCH  25  26
HETATM   26  C1  UNL     1      30.342   5.635  48.233  1.00  0.00     0.112 C 
HETATM   27 BR1  UNL     1      31.886   5.963  49.379  1.00  0.00    -0.092 Br
ENDBRANCH  25  26
ENDBRANCH  23  24
ENDBRANCH  21  23
ENDBRANCH   1  21
TORSDOF 5
ENDMDL
MODEL 7
REMARK VINA RESULT:      -6.9      5.702      7.339
REMARK  5 active torsions:
REMARK  status: ('A' for Active; 'I' for Inactive)
REMARK    1  A    between atoms: C1_2  and  C2_3 
REMARK    2  A    between atoms: C3_4  and  C4_5 
REMARK    3  A    between atoms: C4_5  and  N1_6 
REMARK    4  A    between atoms: N1_6  and  C5_7 
REMARK    5  A    between atoms: C9_12  and  C10_13 
ROOT
HETATM    1  C5  UNL     1      24.043   3.246  50.940  1.00  0.00     0.122 C 
HETATM    2  C6  UNL     1      25.203   2.879  50.422  1.00  0.00     0.045 C 
HETATM    3  C7  UNL     1      26.485   3.065  49.658  1.00  0.00     0.179 C 
HETATM    4  N2  UNL     1      26.548   4.423  49.159  1.00  0.00    -0.300 NA
HETATM    5  C8  UNL     1      27.636   4.970  48.833  1.00  0.00     0.111 C 
HETATM    6  C9  UNL     1      27.435   6.364  48.350  1.00  0.00     0.147 C 
HETATM    7  N4  UNL     1      27.020   7.212  49.438  1.00  0.00    -0.373 N 
HETATM    8  C17 UNL     1      25.826   6.632  49.945  1.00  0.00     0.204 C 
HETATM    9  N5  UNL     1      24.536   6.451  49.842  1.00  0.00    -0.237 NA
HETATM   10  C18 UNL     1      23.875   5.639  50.839  1.00  0.00     0.236 C 
HETATM   11  N6  UNL     1      24.318   4.520  50.394  1.00  0.00    -0.225 NA
HETATM   12  H21 UNL     1      27.415   8.080  49.856  1.00  0.00     0.161 HD
ENDROOT
BRANCH   6  13
HETATM   13  C10 UNL     1      28.755   6.926  47.795  1.00  0.00     0.138 C 
HETATM   14  C11 UNL     1      29.861   6.000  48.123  1.00  0.00     0.057 C 
HETATM   15  C12 UNL     1      31.077   6.088  47.330  1.00  0.00    -0.024 C 
HETATM   16  C13 UNL     1      31.838   7.020  46.724  1.00  0.00    -0.004 C 
HETATM   17  C14 UNL     1      31.674   8.492  46.645  1.00  0.00     0.001 C 
HETATM   18  C15 UNL     1      30.823   9.385  47.153  1.00  0.00     0.019 C 
HETATM   19  C16 UNL     1      29.640   9.288  48.041  1.00  0.00     0.111 C 
HETATM   20  N3  UNL     1      28.841   8.268  48.262  1.00  0.00    -0.294 NA
ENDBRANCH   6  13
BRANCH   1  21
HETATM   21  N1  UNL     1      23.002   2.625  51.710  1.00  0.00    -0.372 N 
HETATM   22  H7  UNL     1      22.024   2.673  51.346  1.00  0.00     0.161 HD
BRANCH  21  23
HETATM   23  C4  UNL     1      23.381   1.960  52.960  1.00  0.00     0.148 C 
BRANCH  23  24
HETATM   24  C3  UNL     1      23.112   0.505  52.856  1.00  0.00    -0.011 C 
HETATM   25  C2  UNL     1      23.924  -0.445  53.236  1.00  0.00    -0.018 C 
BRANCH  25  26
HETATM   26  C1  UNL     1      25.259  -0.374  53.841  1.00  0.00     0.112 C 
HETATM   27 BR1  UNL     1      26.556  -0.227  52.391  1.00  0.00    -0.092 Br
ENDBRANCH  25  26
ENDBRANCH  23  24
ENDBRANCH  21  23
ENDBRANCH   1  21
TORSDOF 5
ENDMDL
MODEL 8
REMARK VINA RESULT:      -6.9      4.580      6.788
REMARK  5 active torsions:
REMARK  status: ('A' for Active; 'I' for Inactive)
REMARK    1  A    between atoms: C1_2  and  C2_3 
REMARK    2  A    between atoms: C3_4  and  C4_5 
REMARK    3  A    between atoms: C4_5  and  N1_6 
REMARK    4  A    between atoms: N1_6  and  C5_7 
REMARK    5  A    between atoms: C9_12  and  C10_13 
ROOT
HETATM    1  C5  UNL     1      25.605   6.236  48.758  1.00  0.00     0.122 C 
HETATM    2  C6  UNL     1      24.595   6.042  49.590  1.00  0.00     0.045 C 
HETATM    3  C7  UNL     1      23.742   5.266  50.555  1.00  0.00     0.179 C 
HETATM    4  N2  UNL     1      24.284   3.931  50.701  1.00  0.00    -0.300 NA
HETATM    5  C8  UNL     1      24.027   3.207  51.701  1.00  0.00     0.111 C 
HETATM    6  C9  UNL     1      24.701   1.882  51.616  1.00  0.00     0.147 C 
HETATM    7  N4  UNL     1      26.126   2.039  51.753  1.00  0.00    -0.373 N 
HETATM    8  C17 UNL     1      26.519   2.920  50.710  1.00  0.00     0.204 C 
HETATM    9  N5  UNL     1      26.809   3.106  49.449  1.00  0.00    -0.237 NA
HETATM   10  C18 UNL     1      27.175   4.437  49.018  1.00  0.00     0.236 C 
HETATM   11  N6  UNL     1      25.983   4.910  49.070  1.00  0.00    -0.225 NA
HETATM   12  H21 UNL     1      26.825   1.651  52.420  1.00  0.00     0.161 HD
ENDROOT
BRANCH   6  13
HETATM   13  C10 UNL     1      24.218   0.969  52.756  1.00  0.00     0.138 C 
HETATM   14  C11 UNL     1      25.236  -0.070  53.019  1.00  0.00     0.057 C 
HETATM   15  C12 UNL     1      25.207  -0.736  54.312  1.00  0.00    -0.024 C 
HETATM   16  C13 UNL     1      24.312  -1.172  55.218  1.00  0.00    -0.004 C 
HETATM   17  C14 UNL     1      22.829  -1.117  55.209  1.00  0.00     0.001 C 
HETATM   18  C15 UNL     1      21.897  -0.709  54.347  1.00  0.00     0.019 C 
HETATM   19  C16 UNL     1      21.940  -0.119  52.987  1.00  0.00     0.111 C 
HETATM   20  N3  UNL     1      22.906   0.549  52.396  1.00  0.00    -0.294 NA
ENDBRANCH   6  13
BRANCH   1  21
HETATM   21  N1  UNL     1      26.087   7.310  47.937  1.00  0.00    -0.372 N 
HETATM   22  H7  UNL     1      25.442   7.710  47.220  1.00  0.00     0.161 HD
BRANCH  21  23
HETATM   23  C4  UNL     1      27.458   7.778  48.158  1.00  0.00     0.148 C 
BRANCH  23  24
HETATM   24  C3  UNL     1      27.526   8.553  49.422  1.00  0.00    -0.011 C 
HETATM   25  C2  UNL     1      28.418   9.463  49.707  1.00  0.00    -0.018 C 
BRANCH  25  26
HETATM   26  C1  UNL     1      29.552   9.966  48.922  1.00  0.00     0.112 C 
HETATM   27 BR1  UNL     1      31.049   8.747  49.201  1.00  0.00    -0.092 Br
ENDBRANCH  25  26
ENDBRANCH  23  24
ENDBRANCH  21  23
ENDBRANCH   1  21
TORSDOF 5
ENDMDL
MODEL 9
REMARK VINA RESULT:      -6.9      2.789      3.772
REMARK  5 active torsions:
REMARK  status: ('A' for Active; 'I' for Inactive)
REMARK    1  A    between atoms: C1_2  and  C2_3 
REMARK    2  A    between atoms: C3_4  and  C4_5 
REMARK    3  A    between atoms: C4_5  and  N1_6 
REMARK    4  A    between atoms: N1_6  and  C5_7 
REMARK    5  A    between atoms: C9_12  and  C10_13 
ROOT
HETATM    1  C5  UNL     1      19.923   0.862  51.633  1.00  0.00     0.122 C 
HETATM    2  C6  UNL     1      21.043   1.207  51.019  1.00  0.00     0.045 C 
HETATM    3  C7  UNL     1      22.526   1.420  50.887  1.00  0.00     0.179 C 
HETATM    4  N2  UNL     1      23.170   1.065  52.135  1.00  0.00    -0.300 NA
HETATM    5  C8  UNL     1      24.394   0.774  52.201  1.00  0.00     0.111 C 
HETATM    6  C9  UNL     1      24.815   0.448  53.591  1.00  0.00     0.147 C 
HETATM    7  N4  UNL     1      24.218  -0.793  54.013  1.00  0.00    -0.373 N 
HETATM    8  C17 UNL     1      22.814  -0.604  53.897  1.00  0.00     0.204 C 
HETATM    9  N5  UNL     1      21.703  -0.120  54.387  1.00  0.00    -0.237 NA
HETATM   10  C18 UNL     1      20.480  -0.324  53.645  1.00  0.00     0.236 C 
HETATM   11  N6  UNL     1      20.747   0.541  52.736  1.00  0.00    -0.225 NA
HETATM   12  H21 UNL     1      24.612  -1.695  54.351  1.00  0.00     0.161 HD
ENDROOT
BRANCH   6  13
HETATM   13  C10 UNL     1      26.343   0.279  53.655  1.00  0.00     0.138 C 
HETATM   14  C11 UNL     1      26.995   1.501  53.136  1.00  0.00     0.057 C 
HETATM   15  C12 UNL     1      28.378   1.745  53.516  1.00  0.00    -0.024 C 
HETATM   16  C13 UNL     1      29.512   1.056  53.746  1.00  0.00    -0.004 C 
HETATM   17  C14 UNL     1      29.783  -0.400  53.680  1.00  0.00     0.001 C 
HETATM   18  C15 UNL     1      29.085  -1.484  53.337  1.00  0.00     0.019 C 
HETATM   19  C16 UNL     1      27.700  -1.708  52.858  1.00  0.00     0.111 C 
HETATM   20  N3  UNL     1      26.630  -0.960  53.016  1.00  0.00    -0.294 NA
ENDBRANCH   6  13
BRANCH   1  21
HETATM   21  N1  UNL     1      18.525   0.826  51.308  1.00  0.00    -0.372 N 
HETATM   22  H7  UNL     1      18.093   1.682  50.894  1.00  0.00     0.161 HD
BRANCH  21  23
HETATM   23  C4  UNL     1      17.793  -0.415  51.577  1.00  0.00     0.148 C 
BRANCH  23  24
HETATM   24  C3  UNL     1      16.529  -0.430  50.801  1.00  0.00    -0.011 C 
HETATM   25  C2  UNL     1      15.366  -0.025  51.237  1.00  0.00    -0.018 C 
BRANCH  25  26
HETATM   26  C1  UNL     1      14.976   0.531  52.539  1.00  0.00     0.112 C 
HETATM   27 BR1  UNL     1      14.983   2.475  52.374  1.00  0.00    -0.092 Br
ENDBRANCH  25  26
ENDBRANCH  23  24
ENDBRANCH  21  23
ENDBRANCH   1  21
TORSDOF 5
ENDMDL
