MODEL 1
REMARK VINA RESULT:      -7.2      0.000      0.000
REMARK  6 active torsions:
REMARK  status: ('A' for Active; 'I' for Inactive)
REMARK    1  A    between atoms: C2_2  and  C3_3 
REMARK    2  A    between atoms: C4_4  and  O1_5 
REMARK    3  A    between atoms: C5_6  and  C6_7 
REMARK    4  A    between atoms: C9_10  and  C10_11 
REMARK    5  A    between atoms: C10_11  and  C11_12 
REMARK    6  A    between atoms: C14_15  and  C15_16 
REMARK       I    between atoms: C15_16  and  N1_17 
ROOT
HETATM    1  C3  UNL     1      25.760   3.278  50.764  1.00  0.00     0.062 C 
HETATM    2  C4  UNL     1      24.439   3.033  50.857  1.00  0.00     0.099 C 
HETATM    3  C5  UNL     1      23.605   2.245  51.800  1.00  0.00    -0.017 C 
HETATM    4  C9  UNL     1      23.895   1.164  52.522  1.00  0.00    -0.066 C 
HETATM    5  C13 UNL     1      25.136   0.324  52.671  1.00  0.00     0.080 C 
HETATM    6  C14 UNL     1      26.312   1.071  53.132  1.00  0.00     0.029 C 
HETATM    7  C16 UNL     1      27.040   2.106  52.678  1.00  0.00     0.101 C 
HETATM    8  N2  UNL     1      26.929   2.922  51.490  1.00  0.00    -0.363 N 
HETATM    9  H24 UNL     1      27.840   3.271  51.160  1.00  0.00     0.165 HD
ENDROOT
BRANCH   6  10
HETATM   10  C15 UNL     1      26.846   0.581  54.404  1.00  0.00     0.247 C 
HETATM   11  N1  UNL     1      26.156  -0.411  55.152  1.00  0.00    -0.366 N 
HETATM   12  H21 UNL     1      25.574   0.261  55.703  1.00  0.00     0.159 HD
HETATM   13  H22 UNL     1      26.683  -1.191  54.661  1.00  0.00     0.159 HD
HETATM   14  O2  UNL     1      27.935   1.049  54.836  1.00  0.00    -0.268 OA
ENDBRANCH   6  10
BRANCH   4  15
HETATM   15  C10 UNL     1      22.814   0.672  53.337  1.00  0.00     0.034 C 
BRANCH  15  16
HETATM   16  C11 UNL     1      22.888  -0.857  53.515  1.00  0.00    -0.000 C 
HETATM   17  C12 UNL     1      22.437  -1.237  54.907  1.00  0.00     0.005 C 
ENDBRANCH  15  16
ENDBRANCH   4  15
BRANCH   3  18
HETATM   18  C6  UNL     1      22.272   2.847  51.844  1.00  0.00     0.013 C 
HETATM   19  C7  UNL     1      22.523   4.338  52.197  1.00  0.00     0.015 C 
HETATM   20  C8  UNL     1      21.594   2.887  50.485  1.00  0.00     0.015 C 
ENDBRANCH   3  18
BRANCH   1  21
HETATM   21  C2  UNL     1      26.079   4.124  49.644  1.00  0.00     0.006 C 
HETATM   22  C1  UNL     1      27.201   4.404  49.009  1.00  0.00     0.033 C 
ENDBRANCH   1  21
BRANCH   2  23
HETATM   23  O1  UNL     1      23.808   3.681  49.835  1.00  0.00    -0.358 OA
HETATM   24  H4  UNL     1      22.971   3.270  49.446  1.00  0.00     0.217 HD
ENDBRANCH   2  23
TORSDOF 6
ENDMDL
MODEL 2
REMARK VINA RESULT:      -6.9      2.292      4.097
REMARK  6 active torsions:
REMARK  status: ('A' for Active; 'I' for Inactive)
REMARK    1  A    between atoms: C2_2  and  C3_3 
REMARK    2  A    between atoms: C4_4  and  O1_5 
REMARK    3  A    between atoms: C5_6  and  C6_7 
REMARK    4  A    between atoms: C9_10  and  C10_11 
REMARK    5  A    between atoms: C10_11  and  C11_12 
REMARK    6  A    between atoms: C14_15  and  C15_16 
REMARK       I    between atoms: C15_16  and  N1_17 
ROOT
HETATM    1  C3  UNL     1      26.731   0.410  53.478  1.00  0.00     0.062 C 
HETATM    2  C4  UNL     1      26.212   1.288  52.599  1.00  0.00     0.099 C 
HETATM    3  C5  UNL     1      24.828   1.696  52.251  1.00  0.00    -0.017 C 
HETATM    4  C9  UNL     1      23.681   1.019  52.308  1.00  0.00    -0.066 C 
HETATM    5  C13 UNL     1      23.331  -0.385  52.727  1.00  0.00     0.080 C 
HETATM    6  C14 UNL     1      23.709  -0.708  54.108  1.00  0.00     0.029 C 
HETATM    7  C16 UNL     1      24.852  -0.760  54.812  1.00  0.00     0.101 C 
HETATM    8  N2  UNL     1      26.226  -0.499  54.448  1.00  0.00    -0.363 N 
HETATM    9  H24 UNL     1      26.896  -1.068  54.987  1.00  0.00     0.165 HD
ENDROOT
BRANCH   6  10
HETATM   10  C15 UNL     1      22.566  -1.073  54.948  1.00  0.00     0.247 C 
HETATM   11  N1  UNL     1      21.362  -0.320  54.911  1.00  0.00    -0.366 N 
HETATM   12  H21 UNL     1      21.642   0.358  55.657  1.00  0.00     0.159 HD
HETATM   13  H22 UNL     1      20.963  -0.938  54.147  1.00  0.00     0.159 HD
HETATM   14  O2  UNL     1      22.659  -2.072  55.713  1.00  0.00    -0.268 OA
ENDBRANCH   6  10
BRANCH   4  15
HETATM   15  C10 UNL     1      22.520   1.758  51.883  1.00  0.00     0.034 C 
BRANCH  15  16
HETATM   16  C11 UNL     1      21.425   0.824  51.331  1.00  0.00    -0.000 C 
HETATM   17  C12 UNL     1      21.365   0.933  49.824  1.00  0.00     0.005 C 
ENDBRANCH  15  16
ENDBRANCH   4  15
BRANCH   3  18
HETATM   18  C6  UNL     1      24.865   3.077  51.769  1.00  0.00     0.013 C 
HETATM   19  C7  UNL     1      24.439   2.987  50.279  1.00  0.00     0.015 C 
HETATM   20  C8  UNL     1      23.810   3.958  52.414  1.00  0.00     0.015 C 
ENDBRANCH   3  18
BRANCH   1  21
HETATM   21  C2  UNL     1      28.169   0.381  53.434  1.00  0.00     0.006 C 
HETATM   22  C1  UNL     1      29.063  -0.577  53.595  1.00  0.00     0.033 C 
ENDBRANCH   1  21
BRANCH   2  23
HETATM   23  O1  UNL     1      27.241   1.886  51.930  1.00  0.00    -0.358 OA
HETATM   24  H4  UNL     1      27.402   2.873  52.074  1.00  0.00     0.217 HD
ENDBRANCH   2  23
TORSDOF 6
ENDMDL
MODEL 3
REMARK VINA RESULT:      -6.7      2.438      4.013
REMARK  6 active torsions:
REMARK  status: ('A' for Active; 'I' for Inactive)
REMARK    1  A    between atoms: C2_2  and  C3_3 
REMARK    2  A    between atoms: C4_4  and  O1_5 
REMARK    3  A    between atoms: C5_6  and  C6_7 
REMARK    4  A    between atoms: C9_10  and  C10_11 
REMARK    5  A    between atoms: C10_11  and  C11_12 
REMARK    6  A    between atoms: C14_15  and  C15_16 
REMARK       I    between atoms: C15_16  and  N1_17 
ROOT
HETATM    1  C3  UNL     1      25.643   0.687  52.632  1.00  0.00     0.062 C 
HETATM    2  C4  UNL     1      24.956   1.492  51.799  1.00  0.00     0.099 C 
HETATM    3  C5  UNL     1      23.512   1.774  51.602  1.00  0.00    -0.017 C 
HETATM    4  C9  UNL     1      22.441   1.006  51.804  1.00  0.00    -0.066 C 
HETATM    5  C13 UNL     1      22.260  -0.408  52.290  1.00  0.00     0.080 C 
HETATM    6  C14 UNL     1      22.816  -0.656  53.626  1.00  0.00     0.029 C 
HETATM    7  C16 UNL     1      24.031  -0.591  54.196  1.00  0.00     0.101 C 
HETATM    8  N2  UNL     1      25.329  -0.230  53.673  1.00  0.00    -0.363 N 
HETATM    9  H24 UNL     1      26.100  -0.724  54.144  1.00  0.00     0.165 HD
ENDROOT
BRANCH   6  10
HETATM   10  C15 UNL     1      21.810  -1.088  54.598  1.00  0.00     0.247 C 
HETATM   11  N1  UNL     1      20.574  -0.398  54.726  1.00  0.00    -0.366 N 
HETATM   12  H21 UNL     1      20.911   0.287  55.441  1.00  0.00     0.159 HD
HETATM   13  H22 UNL     1      20.113  -1.029  54.008  1.00  0.00     0.159 HD
HETATM   14  O2  UNL     1      22.050  -2.087  55.329  1.00  0.00    -0.268 OA
ENDBRANCH   6  10
BRANCH   4  15
HETATM   15  C10 UNL     1      21.180   1.633  51.498  1.00  0.00     0.034 C 
BRANCH  15  16
HETATM   16  C11 UNL     1      20.405   0.851  50.420  1.00  0.00    -0.000 C 
HETATM   17  C12 UNL     1      20.920   1.218  49.046  1.00  0.00     0.005 C 
ENDBRANCH  15  16
ENDBRANCH   4  15
BRANCH   3  18
HETATM   18  C6  UNL     1      23.377   3.138  51.090  1.00  0.00     0.013 C 
HETATM   19  C7  UNL     1      24.023   4.035  52.181  1.00  0.00     0.015 C 
HETATM   20  C8  UNL     1      24.212   3.390  49.847  1.00  0.00     0.015 C 
ENDBRANCH   3  18
BRANCH   1  21
HETATM   21  C2  UNL     1      27.064   0.775  52.425  1.00  0.00     0.006 C 
HETATM   22  C1  UNL     1      28.108   0.595  53.212  1.00  0.00     0.033 C 
ENDBRANCH   1  21
BRANCH   2  23
HETATM   23  O1  UNL     1      25.849   2.152  51.005  1.00  0.00    -0.358 OA
HETATM   24  H4  UNL     1      25.738   3.148  50.877  1.00  0.00     0.217 HD
ENDBRANCH   2  23
TORSDOF 6
ENDMDL
MODEL 4
REMARK VINA RESULT:      -6.7      2.055      6.080
REMARK  6 active torsions:
REMARK  status: ('A' for Active; 'I' for Inactive)
REMARK    1  A    between atoms: C2_2  and  C3_3 
REMARK    2  A    between atoms: C4_4  and  O1_5 
REMARK    3  A    between atoms: C5_6  and  C6_7 
REMARK    4  A    between atoms: C9_10  and  C10_11 
REMARK    5  A    between atoms: C10_11  and  C11_12 
REMARK    6  A    between atoms: C14_15  and  C15_16 
REMARK       I    between atoms: C15_16  and  N1_17 
ROOT
HETATM    1  C3  UNL     1      23.111   0.430  53.115  1.00  0.00     0.062 C 
HETATM    2  C4  UNL     1      24.415   0.365  52.786  1.00  0.00     0.099 C 
HETATM    3  C5  UNL     1      25.344   1.286  52.085  1.00  0.00    -0.017 C 
HETATM    4  C9  UNL     1      25.115   2.205  51.146  1.00  0.00    -0.066 C 
HETATM    5  C13 UNL     1      23.870   2.665  50.434  1.00  0.00     0.080 C 
HETATM    6  C14 UNL     1      22.822   3.171  51.329  1.00  0.00     0.029 C 
HETATM    7  C16 UNL     1      22.087   2.672  52.338  1.00  0.00     0.101 C 
HETATM    8  N2  UNL     1      22.053   1.368  52.959  1.00  0.00    -0.363 N 
HETATM    9  H24 UNL     1      21.121   1.125  53.324  1.00  0.00     0.165 HD
ENDROOT
BRANCH   6  10
HETATM   10  C15 UNL     1      22.470   4.568  51.073  1.00  0.00     0.247 C 
HETATM   11  N1  UNL     1      22.331   5.495  52.141  1.00  0.00    -0.366 N 
HETATM   12  H21 UNL     1      21.315   5.312  52.306  1.00  0.00     0.159 HD
HETATM   13  H22 UNL     1      23.354   5.769  52.075  1.00  0.00     0.159 HD
HETATM   14  O2  UNL     1      22.287   4.949  49.883  1.00  0.00    -0.268 OA
ENDBRANCH   6  10
BRANCH   4  15
HETATM   15  C10 UNL     1      26.284   2.918  50.699  1.00  0.00     0.034 C 
BRANCH  15  16
HETATM   16  C11 UNL     1      25.950   3.888  49.548  1.00  0.00    -0.000 C 
HETATM   17  C12 UNL     1      27.224   4.462  48.972  1.00  0.00     0.005 C 
ENDBRANCH  15  16
ENDBRANCH   4  15
BRANCH   3  18
HETATM   18  C6  UNL     1      26.697   1.038  52.583  1.00  0.00     0.013 C 
HETATM   19  C7  UNL     1      26.608   1.295  54.112  1.00  0.00     0.015 C 
HETATM   20  C8  UNL     1      27.115  -0.417  52.465  1.00  0.00     0.015 C 
ENDBRANCH   3  18
BRANCH   1  21
HETATM   21  C2  UNL     1      22.665  -0.749  53.808  1.00  0.00     0.006 C 
HETATM   22  C1  UNL     1      21.564  -1.051  54.470  1.00  0.00     0.033 C 
ENDBRANCH   1  21
BRANCH   2  23
HETATM   23  O1  UNL     1      24.911  -0.828  53.227  1.00  0.00    -0.358 OA
HETATM   24  H4  UNL     1      24.790  -1.072  54.199  1.00  0.00     0.217 HD
ENDBRANCH   2  23
TORSDOF 6
ENDMDL
MODEL 5
REMARK VINA RESULT:      -6.6      1.882      4.577
REMARK  6 active torsions:
REMARK  status: ('A' for Active; 'I' for Inactive)
REMARK    1  A    between atoms: C2_2  and  C3_3 
REMARK    2  A    between atoms: C4_4  and  O1_5 
REMARK    3  A    between atoms: C5_6  and  C6_7 
REMARK    4  A    between atoms: C9_10  and  C10_11 
REMARK    5  A    between atoms: C10_11  and  C11_12 
REMARK    6  A    between atoms: C14_15  and  C15_16 
REMARK       I    between atoms: C15_16  and  N1_17 
ROOT
HETATM    1  C3  UNL     1      22.858  -0.010  53.741  1.00  0.00     0.062 C 
HETATM    2  C4  UNL     1      22.677   1.099  52.998  1.00  0.00     0.099 C 
HETATM    3  C5  UNL     1      23.599   2.028  52.299  1.00  0.00    -0.017 C 
HETATM    4  C9  UNL     1      24.859   2.369  52.569  1.00  0.00    -0.066 C 
HETATM    5  C13 UNL     1      25.826   1.975  53.653  1.00  0.00     0.080 C 
HETATM    6  C14 UNL     1      26.096   0.533  53.718  1.00  0.00     0.029 C 
HETATM    7  C16 UNL     1      25.371  -0.579  53.928  1.00  0.00     0.101 C 
HETATM    8  N2  UNL     1      23.965  -0.784  54.187  1.00  0.00    -0.363 N 
HETATM    9  H24 UNL     1      23.784  -1.610  54.774  1.00  0.00     0.165 HD
ENDROOT
BRANCH   6  10
HETATM   10  C15 UNL     1      27.506   0.200  53.505  1.00  0.00     0.247 C 
HETATM   11  N1  UNL     1      27.953  -1.148  53.547  1.00  0.00    -0.366 N 
HETATM   12  H21 UNL     1      28.147  -1.160  54.575  1.00  0.00     0.159 HD
HETATM   13  H22 UNL     1      27.797  -1.264  52.504  1.00  0.00     0.159 HD
HETATM   14  O2  UNL     1      28.331   1.129  53.282  1.00  0.00    -0.268 OA
ENDBRANCH   6  10
BRANCH   4  15
HETATM   15  C10 UNL     1      25.440   3.315  51.650  1.00  0.00     0.034 C 
BRANCH  15  16
HETATM   16  C11 UNL     1      26.502   2.652  50.751  1.00  0.00    -0.000 C 
HETATM   17  C12 UNL     1      26.556   3.353  49.412  1.00  0.00     0.005 C 
ENDBRANCH  15  16
ENDBRANCH   4  15
BRANCH   3  18
HETATM   18  C6  UNL     1      22.889   2.605  51.157  1.00  0.00     0.013 C 
HETATM   19  C7  UNL     1      22.329   1.383  50.381  1.00  0.00     0.015 C 
HETATM   20  C8  UNL     1      21.657   3.395  51.564  1.00  0.00     0.015 C 
ENDBRANCH   3  18
BRANCH   1  21
HETATM   21  C2  UNL     1      21.613  -0.563  54.206  1.00  0.00     0.006 C 
HETATM   22  C1  UNL     1      21.209  -1.791  54.470  1.00  0.00     0.033 C 
ENDBRANCH   1  21
BRANCH   2  23
HETATM   23  O1  UNL     1      21.337   1.350  52.919  1.00  0.00    -0.358 OA
HETATM   24  H4  UNL     1      20.738   0.648  52.508  1.00  0.00     0.217 HD
ENDBRANCH   2  23
TORSDOF 6
ENDMDL
MODEL 6
REMARK VINA RESULT:      -6.2      3.410      6.539
REMARK  6 active torsions:
REMARK  status: ('A' for Active; 'I' for Inactive)
REMARK    1  A    between atoms: C2_2  and  C3_3 
REMARK    2  A    between atoms: C4_4  and  O1_5 
REMARK    3  A    between atoms: C5_6  and  C6_7 
REMARK    4  A    between atoms: C9_10  and  C10_11 
REMARK    5  A    between atoms: C10_11  and  C11_12 
REMARK    6  A    between atoms: C14_15  and  C15_16 
REMARK       I    between atoms: C15_16  and  N1_17 
ROOT
HETATM    1  C3  UNL     1      22.257   0.126  52.941  1.00  0.00     0.062 C 
HETATM    2  C4  UNL     1      23.241   0.821  52.338  1.00  0.00     0.099 C 
HETATM    3  C5  UNL     1      23.294   1.695  51.139  1.00  0.00    -0.017 C 
HETATM    4  C9  UNL     1      22.564   1.686  50.024  1.00  0.00    -0.066 C 
HETATM    5  C13 UNL     1      21.435   0.818  49.535  1.00  0.00     0.080 C 
HETATM    6  C14 UNL     1      20.265   0.805  50.421  1.00  0.00     0.029 C 
HETATM    7  C16 UNL     1      20.018   0.449  51.693  1.00  0.00     0.101 C 
HETATM    8  N2  UNL     1      20.867  -0.089  52.731  1.00  0.00    -0.363 N 
HETATM    9  H24 UNL     1      20.359  -0.703  53.383  1.00  0.00     0.165 HD
ENDROOT
BRANCH   6  10
HETATM   10  C15 UNL     1      19.047   1.297  49.774  1.00  0.00     0.247 C 
HETATM   11  N1  UNL     1      17.867   0.505  49.739  1.00  0.00    -0.366 N 
HETATM   12  H21 UNL     1      18.097   0.017  48.843  1.00  0.00     0.159 HD
HETATM   13  H22 UNL     1      17.521   0.926  50.650  1.00  0.00     0.159 HD
HETATM   14  O2  UNL     1      19.051   2.441  49.243  1.00  0.00    -0.268 OA
ENDBRANCH   6  10
BRANCH   4  15
HETATM   15  C10 UNL     1      22.909   2.707  49.067  1.00  0.00     0.034 C 
BRANCH  15  16
HETATM   16  C11 UNL     1      22.516   2.297  47.634  1.00  0.00    -0.000 C 
HETATM   17  C12 UNL     1      21.913   3.478  46.907  1.00  0.00     0.005 C 
ENDBRANCH  15  16
ENDBRANCH   4  15
BRANCH   3  18
HETATM   18  C6  UNL     1      24.366   2.671  51.332  1.00  0.00     0.013 C 
HETATM   19  C7  UNL     1      24.062   3.327  52.706  1.00  0.00     0.015 C 
HETATM   20  C8  UNL     1      25.730   2.027  51.512  1.00  0.00     0.015 C 
ENDBRANCH   3  18
BRANCH   1  21
HETATM   21  C2  UNL     1      22.725  -0.582  54.103  1.00  0.00     0.006 C 
HETATM   22  C1  UNL     1      22.130  -1.340  55.005  1.00  0.00     0.033 C 
ENDBRANCH   1  21
BRANCH   2  23
HETATM   23  O1  UNL     1      24.396   0.629  53.039  1.00  0.00    -0.358 OA
HETATM   24  H4  UNL     1      25.245   0.434  52.527  1.00  0.00     0.217 HD
ENDBRANCH   2  23
TORSDOF 6
ENDMDL
MODEL 7
REMARK VINA RESULT:      -6.2      2.484      3.241
REMARK  6 active torsions:
REMARK  status: ('A' for Active; 'I' for Inactive)
REMARK    1  A    between atoms: C2_2  and  C3_3 
REMARK    2  A    between atoms: C4_4  and  O1_5 
REMARK    3  A    between atoms: C5_6  and  C6_7 
REMARK    4  A    between atoms: C9_10  and  C10_11 
REMARK    5  A    between atoms: C10_11  and  C11_12 
REMARK    6  A    between atoms: C14_15  and  C15_16 
REMARK       I    between atoms: C15_16  and  N1_17 
ROOT
HETATM    1  C3  UNL     1      24.904   1.244  51.899  1.00  0.00     0.062 C 
HETATM    2  C4  UNL     1      23.763   1.807  51.458  1.00  0.00     0.099 C 
HETATM    3  C5  UNL     1      22.337   1.682  51.851  1.00  0.00    -0.017 C 
HETATM    4  C9  UNL     1      21.669   0.661  52.389  1.00  0.00    -0.066 C 
HETATM    5  C13 UNL     1      22.067  -0.732  52.798  1.00  0.00     0.080 C 
HETATM    6  C14 UNL     1      23.143  -0.779  53.795  1.00  0.00     0.029 C 
HETATM    7  C16 UNL     1      24.422  -0.371  53.859  1.00  0.00     0.101 C 
HETATM    8  N2  UNL     1      25.270   0.310  52.908  1.00  0.00    -0.363 N 
HETATM    9  H24 UNL     1      26.264   0.057  53.008  1.00  0.00     0.165 HD
ENDROOT
BRANCH   6  10
HETATM   10  C15 UNL     1      22.745  -1.434  55.043  1.00  0.00     0.247 C 
HETATM   11  N1  UNL     1      23.675  -1.613  56.103  1.00  0.00    -0.366 N 
HETATM   12  H21 UNL     1      24.027  -2.542  55.775  1.00  0.00     0.159 HD
HETATM   13  H22 UNL     1      23.405  -0.683  56.537  1.00  0.00     0.159 HD
HETATM   14  O2  UNL     1      21.559  -1.843  55.171  1.00  0.00    -0.268 OA
ENDBRANCH   6  10
BRANCH   4  15
HETATM   15  C10 UNL     1      20.273   0.915  52.639  1.00  0.00     0.034 C 
BRANCH  15  16
HETATM   16  C11 UNL     1      19.370   0.055  51.734  1.00  0.00    -0.000 C 
HETATM   17  C12 UNL     1      18.353  -0.685  52.574  1.00  0.00     0.005 C 
ENDBRANCH  15  16
ENDBRANCH   4  15
BRANCH   3  18
HETATM   18  C6  UNL     1      21.663   2.942  51.536  1.00  0.00     0.013 C 
HETATM   19  C7  UNL     1      22.511   4.032  52.247  1.00  0.00     0.015 C 
HETATM   20  C8  UNL     1      21.740   3.302  50.062  1.00  0.00     0.015 C 
ENDBRANCH   3  18
BRANCH   1  21
HETATM   21  C2  UNL     1      26.056   1.705  51.171  1.00  0.00     0.006 C 
HETATM   22  C1  UNL     1      26.936   2.666  51.379  1.00  0.00     0.033 C 
ENDBRANCH   1  21
BRANCH   2  23
HETATM   23  O1  UNL     1      24.070   2.656  50.435  1.00  0.00    -0.358 OA
HETATM   24  H4  UNL     1      23.407   3.377  50.189  1.00  0.00     0.217 HD
ENDBRANCH   2  23
TORSDOF 6
ENDMDL
MODEL 8
REMARK VINA RESULT:      -6.2      2.736      6.203
REMARK  6 active torsions:
REMARK  status: ('A' for Active; 'I' for Inactive)
REMARK    1  A    between atoms: C2_2  and  C3_3 
REMARK    2  A    between atoms: C4_4  and  O1_5 
REMARK    3  A    between atoms: C5_6  and  C6_7 
REMARK    4  A    between atoms: C9_10  and  C10_11 
REMARK    5  A    between atoms: C10_11  and  C11_12 
REMARK    6  A    between atoms: C14_15  and  C15_16 
REMARK       I    between atoms: C15_16  and  N1_17 
ROOT
HETATM    1  C3  UNL     1      22.607   0.122  53.463  1.00  0.00     0.062 C 
HETATM    2  C4  UNL     1      23.763   0.447  52.853  1.00  0.00     0.099 C 
HETATM    3  C5  UNL     1      24.137   1.466  51.841  1.00  0.00    -0.017 C 
HETATM    4  C9  UNL     1      23.422   2.030  50.868  1.00  0.00    -0.066 C 
HETATM    5  C13 UNL     1      21.996   1.870  50.409  1.00  0.00     0.080 C 
HETATM    6  C14 UNL     1      20.998   2.154  51.447  1.00  0.00     0.029 C 
HETATM    7  C16 UNL     1      20.689   1.653  52.656  1.00  0.00     0.101 C 
HETATM    8  N2  UNL     1      21.261   0.578  53.434  1.00  0.00    -0.363 N 
HETATM    9  H24 UNL     1      20.568   0.108  54.034  1.00  0.00     0.165 HD
ENDROOT
BRANCH   6  10
HETATM   10  C15 UNL     1      20.100   3.255  51.097  1.00  0.00     0.247 C 
HETATM   11  N1  UNL     1      19.992   3.713  49.756  1.00  0.00    -0.366 N 
HETATM   12  H21 UNL     1      20.762   4.417  49.825  1.00  0.00     0.159 HD
HETATM   13  H22 UNL     1      19.198   3.038  49.558  1.00  0.00     0.159 HD
HETATM   14  O2  UNL     1      19.415   3.802  52.005  1.00  0.00    -0.268 OA
ENDBRANCH   6  10
BRANCH   4  15
HETATM   15  C10 UNL     1      24.136   2.996  50.072  1.00  0.00     0.034 C 
BRANCH  15  16
HETATM   16  C11 UNL     1      23.474   4.386  50.139  1.00  0.00    -0.000 C 
HETATM   17  C12 UNL     1      23.746   5.023  51.483  1.00  0.00     0.005 C 
ENDBRANCH  15  16
ENDBRANCH   4  15
BRANCH   3  18
HETATM   18  C6  UNL     1      25.545   1.814  52.041  1.00  0.00     0.013 C 
HETATM   19  C7  UNL     1      25.643   2.218  53.537  1.00  0.00     0.015 C 
HETATM   20  C8  UNL     1      26.475   0.621  51.907  1.00  0.00     0.015 C 
ENDBRANCH   3  18
BRANCH   1  21
HETATM   21  C2  UNL     1      22.770  -0.967  54.391  1.00  0.00     0.006 C 
HETATM   22  C1  UNL     1      21.929  -1.820  54.944  1.00  0.00     0.033 C 
ENDBRANCH   1  21
BRANCH   2  23
HETATM   23  O1  UNL     1      24.744  -0.379  53.321  1.00  0.00    -0.358 OA
HETATM   24  H4  UNL     1      25.683  -0.263  52.967  1.00  0.00     0.217 HD
ENDBRANCH   2  23
TORSDOF 6
ENDMDL
MODEL 9
REMARK VINA RESULT:      -6.1      2.004      4.847
REMARK  6 active torsions:
REMARK  status: ('A' for Active; 'I' for Inactive)
REMARK    1  A    between atoms: C2_2  and  C3_3 
REMARK    2  A    between atoms: C4_4  and  O1_5 
REMARK    3  A    between atoms: C5_6  and  C6_7 
REMARK    4  A    between atoms: C9_10  and  C10_11 
REMARK    5  A    between atoms: C10_11  and  C11_12 
REMARK    6  A    between atoms: C14_15  and  C15_16 
REMARK       I    between atoms: C15_16  and  N1_17 
ROOT
HETATM    1  C3  UNL     1      23.059  -0.023  53.380  1.00  0.00     0.062 C 
HETATM    2  C4  UNL     1      22.166   0.802  52.800  1.00  0.00     0.099 C 
HETATM    3  C5  UNL     1      22.288   2.016  51.955  1.00  0.00    -0.017 C 
HETATM    4  C9  UNL     1      23.238   2.949  51.905  1.00  0.00    -0.066 C 
HETATM    5  C13 UNL     1      24.526   3.153  52.658  1.00  0.00     0.080 C 
HETATM    6  C14 UNL     1      25.472   2.038  52.536  1.00  0.00     0.029 C 
HETATM    7  C16 UNL     1      25.472   0.730  52.845  1.00  0.00     0.101 C 
HETATM    8  N2  UNL     1      24.476  -0.122  53.452  1.00  0.00    -0.363 N 
HETATM    9  H24 UNL     1      24.889  -0.890  54.001  1.00  0.00     0.165 HD
ENDROOT
BRANCH   6  10
HETATM   10  C15 UNL     1      26.747   2.428  51.930  1.00  0.00     0.247 C 
HETATM   11  N1  UNL     1      26.798   3.407  50.902  1.00  0.00    -0.366 N 
HETATM   12  H21 UNL     1      26.675   2.734  50.112  1.00  0.00     0.159 HD
HETATM   13  H22 UNL     1      26.928   4.187  51.610  1.00  0.00     0.159 HD
HETATM   14  O2  UNL     1      27.811   1.881  52.332  1.00  0.00    -0.268 OA
ENDBRANCH   6  10
BRANCH   4  15
HETATM   15  C10 UNL     1      23.009   3.995  50.941  1.00  0.00     0.034 C 
BRANCH  15  16
HETATM   16  C11 UNL     1      22.861   5.370  51.620  1.00  0.00    -0.000 C 
HETATM   17  C12 UNL     1      21.616   6.064  51.115  1.00  0.00     0.005 C 
ENDBRANCH  15  16
ENDBRANCH   4  15
BRANCH   3  18
HETATM   18  C6  UNL     1      21.108   2.093  51.093  1.00  0.00     0.013 C 
HETATM   19  C7  UNL     1      21.025   0.700  50.410  1.00  0.00     0.015 C 
HETATM   20  C8  UNL     1      19.810   2.212  51.872  1.00  0.00     0.015 C 
ENDBRANCH   3  18
BRANCH   1  21
HETATM   21  C2  UNL     1      22.423  -1.084  54.115  1.00  0.00     0.006 C 
HETATM   22  C1  UNL     1      22.613  -1.597  55.316  1.00  0.00     0.033 C 
ENDBRANCH   1  21
BRANCH   2  23
HETATM   23  O1  UNL     1      20.911   0.356  53.101  1.00  0.00    -0.358 OA
HETATM   24  H4  UNL     1      20.714   0.073  54.050  1.00  0.00     0.217 HD
ENDBRANCH   2  23
TORSDOF 6
ENDMDL
