MODEL 1
REMARK VINA RESULT:      -8.6      0.000      0.000
REMARK  7 active torsions:
REMARK  status: ('A' for Active; 'I' for Inactive)
REMARK    1  A    between atoms: C4_5  and  N1_6 
REMARK    2  A    between atoms: N1_6  and  C5_7 
REMARK    3  A    between atoms: C10_14  and  O1_15 
REMARK    4  A    between atoms: O1_15  and  C11_16 
REMARK    5  A    between atoms: C11_16  and  C12_17 
REMARK    6  A    between atoms: C12_17  and  C13_18 
REMARK    7  A    between atoms: C13_18  and  N4_19 
ROOT
HETATM    1  C5  UNL     1      27.034   1.954  52.043  1.00  0.00     0.142 A 
HETATM    2  N2  UNL     1      28.202   2.418  52.502  1.00  0.00    -0.224 NA
HETATM    3  C6  UNL     1      28.749   2.149  53.693  1.00  0.00     0.236 A 
HETATM    4  N3  UNL     1      28.095   1.340  54.540  1.00  0.00    -0.241 NA
HETATM    5  C7  UNL     1      26.894   0.817  54.161  1.00  0.00     0.072 A 
HETATM    6  C8  UNL     1      26.253  -0.006  55.058  1.00  0.00     0.035 A 
HETATM    7  C9  UNL     1      25.013  -0.556  54.694  1.00  0.00     0.039 A 
HETATM    8  C10 UNL     1      24.443  -0.269  53.440  1.00  0.00     0.069 A 
HETATM    9  C18 UNL     1      25.182   0.564  52.637  1.00  0.00     0.054 A 
HETATM   10  C19 UNL     1      26.386   1.131  52.927  1.00  0.00     0.041 A 
ENDROOT
BRANCH   1  11
HETATM   11  N1  UNL     1      26.480   2.254  50.787  1.00  0.00    -0.340 N 
HETATM   12  H3  UNL     1      26.232   1.526  50.112  1.00  0.00     0.167 HD
BRANCH  11  13
HETATM   13  C4  UNL     1      26.185   3.539  50.266  1.00  0.00     0.035 A 
HETATM   14  C3  UNL     1      26.962   4.128  49.291  1.00  0.00     0.032 A 
HETATM   15  C2  UNL     1      26.637   5.391  48.791  1.00  0.00     0.046 A 
HETATM   16  C1  UNL     1      25.548   6.105  49.230  1.00  0.00     0.138 A 
HETATM   17  F1  UNL     1      25.200   7.330  48.770  1.00  0.00    -0.204 F 
HETATM   18  C21 UNL     1      24.762   5.537  50.200  1.00  0.00     0.074 A 
HETATM   19  C20 UNL     1      25.111   4.296  50.670  1.00  0.00     0.056 A 
HETATM   20 CL1  UNL     1      23.357   6.369  50.824  1.00  0.00    -0.081 Cl
ENDBRANCH  11  13
ENDBRANCH   1  11
BRANCH   8  21
HETATM   21  O1  UNL     1      23.261  -0.923  53.358  1.00  0.00    -0.351 OA
BRANCH  21  22
HETATM   22  C11 UNL     1      22.353  -1.206  54.341  1.00  0.00     0.177 C 
BRANCH  22  23
HETATM   23  C12 UNL     1      20.993  -0.600  54.238  1.00  0.00     0.057 C 
BRANCH  23  24
HETATM   24  C13 UNL     1      20.643  -0.173  52.832  1.00  0.00     0.274 C 
BRANCH  24  25
HETATM   25  N4  UNL     1      20.294   1.231  52.773  1.00  0.00     0.092 N 
HETATM   26  C14 UNL     1      19.158   1.361  51.880  1.00  0.00     0.298 C 
HETATM   27  C15 UNL     1      19.069   2.800  51.403  1.00  0.00     0.198 C 
HETATM   28  O2  UNL     1      19.694   3.680  52.280  1.00  0.00    -0.388 OA
HETATM   29  C16 UNL     1      21.080   3.453  52.289  1.00  0.00     0.198 C 
HETATM   30  C17 UNL     1      21.392   1.977  52.181  1.00  0.00     0.298 C 
ENDBRANCH  24  25
ENDBRANCH  23  24
ENDBRANCH  22  23
ENDBRANCH  21  22
ENDBRANCH   8  21
TORSDOF 7
ENDMDL
MODEL 2
REMARK VINA RESULT:      -8.5      3.555      5.985
REMARK  7 active torsions:
REMARK  status: ('A' for Active; 'I' for Inactive)
REMARK    1  A    between atoms: C4_5  and  N1_6 
REMARK    2  A    between atoms: N1_6  and  C5_7 
REMARK    3  A    between atoms: C10_14  and  O1_15 
REMARK    4  A    between atoms: O1_15  and  C11_16 
REMARK    5  A    between atoms: C11_16  and  C12_17 
REMARK    6  A    between atoms: C12_17  and  C13_18 
REMARK    7  A    between atoms: C13_18  and  N4_19 
ROOT
HETATM    1  C5  UNL     1      23.879  -0.379  53.547  1.00  0.00     0.142 A 
HETATM    2  N2  UNL     1      23.970  -0.956  54.750  1.00  0.00    -0.224 NA
HETATM    3  C6  UNL     1      22.952  -1.401  55.497  1.00  0.00     0.236 A 
HETATM    4  N3  UNL     1      21.700  -1.274  55.028  1.00  0.00    -0.241 NA
HETATM    5  C7  UNL     1      21.506  -0.696  53.808  1.00  0.00     0.072 A 
HETATM    6  C8  UNL     1      20.209  -0.581  53.365  1.00  0.00     0.035 A 
HETATM    7  C9  UNL     1      19.980   0.012  52.113  1.00  0.00     0.039 A 
HETATM    8  C10 UNL     1      21.056   0.478  51.333  1.00  0.00     0.069 A 
HETATM    9  C18 UNL     1      22.300   0.304  51.888  1.00  0.00     0.054 A 
HETATM   10  C19 UNL     1      22.592  -0.261  53.093  1.00  0.00     0.041 A 
ENDROOT
BRANCH   1  11
HETATM   11  N1  UNL     1      24.966   0.081  52.785  1.00  0.00    -0.340 N 
HETATM   12  H3  UNL     1      24.841   0.645  51.940  1.00  0.00     0.167 HD
BRANCH  11  13
HETATM   13  C4  UNL     1      26.343  -0.140  53.037  1.00  0.00     0.035 A 
HETATM   14  C3  UNL     1      26.949  -1.350  52.775  1.00  0.00     0.032 A 
HETATM   15  C2  UNL     1      28.312  -1.531  53.024  1.00  0.00     0.046 A 
HETATM   16  C1  UNL     1      29.111  -0.537  53.533  1.00  0.00     0.138 A 
HETATM   17  F1  UNL     1      30.434  -0.673  53.788  1.00  0.00    -0.204 F 
HETATM   18  C21 UNL     1      28.528   0.676  53.801  1.00  0.00     0.074 A 
HETATM   19  C20 UNL     1      27.188   0.819  53.546  1.00  0.00     0.056 A 
HETATM   20 CL1  UNL     1      29.463   2.002  54.452  1.00  0.00    -0.081 Cl
ENDBRANCH  11  13
ENDBRANCH   1  11
BRANCH   8  21
HETATM   21  O1  UNL     1      20.551   0.998  50.191  1.00  0.00    -0.351 OA
BRANCH  21  22
HETATM   22  C11 UNL     1      21.184   1.287  49.014  1.00  0.00     0.177 C 
BRANCH  22  23
HETATM   23  C12 UNL     1      21.037   2.664  48.455  1.00  0.00     0.057 C 
BRANCH  23  24
HETATM   24  C13 UNL     1      22.315   3.466  48.524  1.00  0.00     0.274 C 
BRANCH  24  25
HETATM   25  N4  UNL     1      23.074   3.158  49.717  1.00  0.00     0.092 N 
HETATM   26  C14 UNL     1      22.647   4.076  50.756  1.00  0.00     0.298 C 
HETATM   27  C15 UNL     1      23.716   4.132  51.832  1.00  0.00     0.198 C 
HETATM   28  O2  UNL     1      24.509   2.991  51.841  1.00  0.00    -0.388 OA
HETATM   29  C16 UNL     1      25.274   2.922  50.664  1.00  0.00     0.198 C 
HETATM   30  C17 UNL     1      24.484   3.415  49.472  1.00  0.00     0.298 C 
ENDBRANCH  24  25
ENDBRANCH  23  24
ENDBRANCH  22  23
ENDBRANCH  21  22
ENDBRANCH   8  21
TORSDOF 7
ENDMDL
MODEL 3
REMARK VINA RESULT:      -8.0      2.201      3.054
REMARK  7 active torsions:
REMARK  status: ('A' for Active; 'I' for Inactive)
REMARK    1  A    between atoms: C4_5  and  N1_6 
REMARK    2  A    between atoms: N1_6  and  C5_7 
REMARK    3  A    between atoms: C10_14  and  O1_15 
REMARK    4  A    between atoms: O1_15  and  C11_16 
REMARK    5  A    between atoms: C11_16  and  C12_17 
REMARK    6  A    between atoms: C12_17  and  C13_18 
REMARK    7  A    between atoms: C13_18  and  N4_19 
ROOT
HETATM    1  C5  UNL     1      24.980   0.684  52.862  1.00  0.00     0.142 A 
HETATM    2  N2  UNL     1      26.210   0.707  53.386  1.00  0.00    -0.224 NA
HETATM    3  C6  UNL     1      26.610   0.081  54.500  1.00  0.00     0.236 A 
HETATM    4  N3  UNL     1      25.720  -0.652  55.187  1.00  0.00    -0.241 NA
HETATM    5  C7  UNL     1      24.437  -0.735  54.730  1.00  0.00     0.072 A 
HETATM    6  C8  UNL     1      23.554  -1.494  55.463  1.00  0.00     0.035 A 
HETATM    7  C9  UNL     1      22.227  -1.595  55.016  1.00  0.00     0.039 A 
HETATM    8  C10 UNL     1      21.814  -0.933  53.845  1.00  0.00     0.069 A 
HETATM    9  C18 UNL     1      22.790  -0.210  53.204  1.00  0.00     0.054 A 
HETATM   10  C19 UNL     1      24.091  -0.070  53.582  1.00  0.00     0.041 A 
ENDROOT
BRANCH   1  11
HETATM   11  N1  UNL     1      24.586   1.353  51.691  1.00  0.00    -0.340 N 
HETATM   12  H3  UNL     1      24.517   0.878  50.787  1.00  0.00     0.167 HD
BRANCH  11  13
HETATM   13  C4  UNL     1      24.236   2.721  51.562  1.00  0.00     0.035 A 
HETATM   14  C3  UNL     1      23.751   3.454  52.624  1.00  0.00     0.032 A 
HETATM   15  C2  UNL     1      23.425   4.803  52.466  1.00  0.00     0.046 A 
HETATM   16  C1  UNL     1      23.567   5.466  51.270  1.00  0.00     0.138 A 
HETATM   17  F1  UNL     1      23.263   6.771  51.078  1.00  0.00    -0.204 F 
HETATM   18  C21 UNL     1      24.048   4.755  50.200  1.00  0.00     0.074 A 
HETATM   19  C20 UNL     1      24.356   3.431  50.390  1.00  0.00     0.056 A 
HETATM   20 CL1  UNL     1      24.261   5.509  48.638  1.00  0.00    -0.081 Cl
ENDBRANCH  11  13
ENDBRANCH   1  11
BRANCH   8  21
HETATM   21  O1  UNL     1      20.501  -1.200  53.654  1.00  0.00    -0.351 OA
BRANCH  21  22
HETATM   22  C11 UNL     1      19.477  -0.349  53.345  1.00  0.00     0.177 C 
BRANCH  22  23
HETATM   23  C12 UNL     1      19.355   0.125  51.935  1.00  0.00     0.057 C 
BRANCH  23  24
HETATM   24  C13 UNL     1      19.926   1.508  51.727  1.00  0.00     0.274 C 
BRANCH  24  25
HETATM   25  N4  UNL     1      20.147   1.788  50.325  1.00  0.00     0.092 N 
HETATM   26  C14 UNL     1      21.182   0.886  49.857  1.00  0.00     0.298 C 
HETATM   27  C15 UNL     1      21.786   1.450  48.583  1.00  0.00     0.198 C 
HETATM   28  O2  UNL     1      20.916   2.317  47.931  1.00  0.00    -0.388 OA
HETATM   29  C16 UNL     1      20.716   3.473  48.703  1.00  0.00     0.198 C 
HETATM   30  C17 UNL     1      20.659   3.141  50.178  1.00  0.00     0.298 C 
ENDBRANCH  24  25
ENDBRANCH  23  24
ENDBRANCH  22  23
ENDBRANCH  21  22
ENDBRANCH   8  21
TORSDOF 7
ENDMDL
MODEL 4
REMARK VINA RESULT:      -7.7      4.625      8.341
REMARK  7 active torsions:
REMARK  status: ('A' for Active; 'I' for Inactive)
REMARK    1  A    between atoms: C4_5  and  N1_6 
REMARK    2  A    between atoms: N1_6  and  C5_7 
REMARK    3  A    between atoms: C10_14  and  O1_15 
REMARK    4  A    between atoms: O1_15  and  C11_16 
REMARK    5  A    between atoms: C11_16  and  C12_17 
REMARK    6  A    between atoms: C12_17  and  C13_18 
REMARK    7  A    between atoms: C13_18  and  N4_19 
ROOT
HETATM    1  C5  UNL     1      24.039   1.233  52.778  1.00  0.00     0.142 A 
HETATM    2  N2  UNL     1      23.034   0.405  53.082  1.00  0.00    -0.224 NA
HETATM    3  C6  UNL     1      21.968   0.137  52.318  1.00  0.00     0.236 A 
HETATM    4  N3  UNL     1      21.859   0.738  51.122  1.00  0.00    -0.241 NA
HETATM    5  C7  UNL     1      22.837   1.602  50.725  1.00  0.00     0.072 A 
HETATM    6  C8  UNL     1      22.688   2.200  49.495  1.00  0.00     0.035 A 
HETATM    7  C9  UNL     1      23.679   3.095  49.061  1.00  0.00     0.039 A 
HETATM    8  C10 UNL     1      24.797   3.372  49.870  1.00  0.00     0.069 A 
HETATM    9  C18 UNL     1      24.828   2.711  51.074  1.00  0.00     0.054 A 
HETATM   10  C19 UNL     1      23.904   1.833  51.554  1.00  0.00     0.041 A 
ENDROOT
BRANCH   1  11
HETATM   11  N1  UNL     1      25.147   1.498  53.601  1.00  0.00    -0.340 N 
HETATM   12  H3  UNL     1      25.104   2.161  54.379  1.00  0.00     0.167 HD
BRANCH  11  13
HETATM   13  C4  UNL     1      26.441   0.927  53.505  1.00  0.00     0.035 A 
HETATM   14  C3  UNL     1      27.586   1.679  53.660  1.00  0.00     0.032 A 
HETATM   15  C2  UNL     1      28.845   1.084  53.570  1.00  0.00     0.046 A 
HETATM   16  C1  UNL     1      29.016  -0.258  53.328  1.00  0.00     0.138 A 
HETATM   17  F1  UNL     1      30.219  -0.872  53.234  1.00  0.00    -0.204 F 
HETATM   18  C21 UNL     1      27.890  -1.026  53.169  1.00  0.00     0.074 A 
HETATM   19  C20 UNL     1      26.668  -0.408  53.262  1.00  0.00     0.056 A 
HETATM   20 CL1  UNL     1      28.005  -2.742  52.856  1.00  0.00    -0.081 Cl
ENDBRANCH  11  13
ENDBRANCH   1  11
BRANCH   8  21
HETATM   21  O1  UNL     1      25.580   4.259  49.213  1.00  0.00    -0.351 OA
BRANCH  21  22
HETATM   22  C11 UNL     1      25.692   5.611  49.381  1.00  0.00     0.177 C 
BRANCH  22  23
HETATM   23  C12 UNL     1      26.751   6.331  48.615  1.00  0.00     0.057 C 
BRANCH  23  24
HETATM   24  C13 UNL     1      28.010   5.513  48.441  1.00  0.00     0.274 C 
BRANCH  24  25
HETATM   25  N4  UNL     1      29.039   6.260  47.748  1.00  0.00     0.092 N 
HETATM   26  C14 UNL     1      30.294   5.559  47.943  1.00  0.00     0.298 C 
HETATM   27  C15 UNL     1      31.440   6.519  47.680  1.00  0.00     0.198 C 
HETATM   28  O2  UNL     1      31.059   7.573  46.857  1.00  0.00    -0.388 OA
HETATM   29  C16 UNL     1      30.129   8.393  47.519  1.00  0.00     0.198 C 
HETATM   30  C17 UNL     1      29.180   7.570  48.362  1.00  0.00     0.298 C 
ENDBRANCH  24  25
ENDBRANCH  23  24
ENDBRANCH  22  23
ENDBRANCH  21  22
ENDBRANCH   8  21
TORSDOF 7
ENDMDL
MODEL 5
REMARK VINA RESULT:      -7.5      2.307      2.780
REMARK  7 active torsions:
REMARK  status: ('A' for Active; 'I' for Inactive)
REMARK    1  A    between atoms: C4_5  and  N1_6 
REMARK    2  A    between atoms: N1_6  and  C5_7 
REMARK    3  A    between atoms: C10_14  and  O1_15 
REMARK    4  A    between atoms: O1_15  and  C11_16 
REMARK    5  A    between atoms: C11_16  and  C12_17 
REMARK    6  A    between atoms: C12_17  and  C13_18 
REMARK    7  A    between atoms: C13_18  and  N4_19 
ROOT
HETATM    1  C5  UNL     1      26.348   1.985  52.145  1.00  0.00     0.142 A 
HETATM    2  N2  UNL     1      27.557   2.506  52.383  1.00  0.00    -0.224 NA
HETATM    3  C6  UNL     1      28.360   2.211  53.412  1.00  0.00     0.236 A 
HETATM    4  N3  UNL     1      27.950   1.308  54.317  1.00  0.00    -0.241 NA
HETATM    5  C7  UNL     1      26.728   0.722  54.160  1.00  0.00     0.072 A 
HETATM    6  C8  UNL     1      26.343  -0.196  55.109  1.00  0.00     0.035 A 
HETATM    7  C9  UNL     1      25.089  -0.814  54.972  1.00  0.00     0.039 A 
HETATM    8  C10 UNL     1      24.249  -0.498  53.888  1.00  0.00     0.069 A 
HETATM    9  C18 UNL     1      24.751   0.432  53.010  1.00  0.00     0.054 A 
HETATM   10  C19 UNL     1      25.953   1.067  53.083  1.00  0.00     0.041 A 
ENDROOT
BRANCH   1  11
HETATM   11  N1  UNL     1      25.524   2.315  51.056  1.00  0.00    -0.340 N 
HETATM   12  H3  UNL     1      25.785   2.105  50.089  1.00  0.00     0.167 HD
BRANCH  11  13
HETATM   13  C4  UNL     1      24.261   2.958  51.102  1.00  0.00     0.035 A 
HETATM   14  C3  UNL     1      23.970   3.932  52.034  1.00  0.00     0.032 A 
HETATM   15  C2  UNL     1      22.719   4.553  52.044  1.00  0.00     0.046 A 
HETATM   16  C1  UNL     1      21.727   4.239  51.147  1.00  0.00     0.138 A 
HETATM   17  F1  UNL     1      20.503   4.818  51.125  1.00  0.00    -0.204 F 
HETATM   18  C21 UNL     1      21.995   3.272  50.212  1.00  0.00     0.074 A 
HETATM   19  C20 UNL     1      23.234   2.681  50.231  1.00  0.00     0.056 A 
HETATM   20 CL1  UNL     1      20.796   2.803  49.030  1.00  0.00    -0.081 Cl
ENDBRANCH  11  13
ENDBRANCH   1  11
BRANCH   8  21
HETATM   21  O1  UNL     1      23.119  -1.231  54.006  1.00  0.00    -0.351 OA
BRANCH  21  22
HETATM   22  C11 UNL     1      22.034  -1.032  54.815  1.00  0.00     0.177 C 
BRANCH  22  23
HETATM   23  C12 UNL     1      21.127   0.113  54.508  1.00  0.00     0.057 C 
BRANCH  23  24
HETATM   24  C13 UNL     1      20.924   0.322  53.025  1.00  0.00     0.274 C 
BRANCH  24  25
HETATM   25  N4  UNL     1      19.519   0.389  52.684  1.00  0.00     0.092 N 
HETATM   26  C14 UNL     1      18.872  -0.773  53.264  1.00  0.00     0.298 C 
HETATM   27  C15 UNL     1      17.556  -1.012  52.547  1.00  0.00     0.198 C 
HETATM   28  O2  UNL     1      17.071   0.144  51.946  1.00  0.00    -0.388 OA
HETATM   29  C16 UNL     1      17.917   0.536  50.895  1.00  0.00     0.198 C 
HETATM   30  C17 UNL     1      19.368   0.288  51.242  1.00  0.00     0.298 C 
ENDBRANCH  24  25
ENDBRANCH  23  24
ENDBRANCH  22  23
ENDBRANCH  21  22
ENDBRANCH   8  21
TORSDOF 7
ENDMDL
MODEL 6
REMARK VINA RESULT:      -7.4      5.545      8.317
REMARK  7 active torsions:
REMARK  status: ('A' for Active; 'I' for Inactive)
REMARK    1  A    between atoms: C4_5  and  N1_6 
REMARK    2  A    between atoms: N1_6  and  C5_7 
REMARK    3  A    between atoms: C10_14  and  O1_15 
REMARK    4  A    between atoms: O1_15  and  C11_16 
REMARK    5  A    between atoms: C11_16  and  C12_17 
REMARK    6  A    between atoms: C12_17  and  C13_18 
REMARK    7  A    between atoms: C13_18  and  N4_19 
ROOT
HETATM    1  C5  UNL     1      30.278   6.084  47.756  1.00  0.00     0.142 A 
HETATM    2  N2  UNL     1      30.871   7.237  47.430  1.00  0.00    -0.224 NA
HETATM    3  C6  UNL     1      30.301   8.448  47.420  1.00  0.00     0.236 A 
HETATM    4  N3  UNL     1      29.008   8.559  47.764  1.00  0.00    -0.241 NA
HETATM    5  C7  UNL     1      28.318   7.436  48.112  1.00  0.00     0.072 A 
HETATM    6  C8  UNL     1      26.995   7.590  48.456  1.00  0.00     0.035 A 
HETATM    7  C9  UNL     1      26.259   6.450  48.817  1.00  0.00     0.039 A 
HETATM    8  C10 UNL     1      26.865   5.180  48.825  1.00  0.00     0.069 A 
HETATM    9  C18 UNL     1      28.190   5.161  48.463  1.00  0.00     0.054 A 
HETATM   10  C19 UNL     1      28.960   6.225  48.103  1.00  0.00     0.041 A 
ENDROOT
BRANCH   1  11
HETATM   11  N1  UNL     1      30.901   4.824  47.756  1.00  0.00    -0.340 N 
HETATM   12  H3  UNL     1      30.506   4.019  48.250  1.00  0.00     0.167 HD
BRANCH  11  13
HETATM   13  C4  UNL     1      32.112   4.467  47.112  1.00  0.00     0.035 A 
HETATM   14  C3  UNL     1      33.144   3.850  47.785  1.00  0.00     0.032 A 
HETATM   15  C2  UNL     1      34.321   3.502  47.118  1.00  0.00     0.046 A 
HETATM   16  C1  UNL     1      34.515   3.747  45.780  1.00  0.00     0.138 A 
HETATM   17  F1  UNL     1      35.639   3.425  45.098  1.00  0.00    -0.204 F 
HETATM   18  C21 UNL     1      33.501   4.362  45.090  1.00  0.00     0.074 A 
HETATM   19  C20 UNL     1      32.359   4.692  45.777  1.00  0.00     0.056 A 
HETATM   20 CL1  UNL     1      33.655   4.717  43.386  1.00  0.00    -0.081 Cl
ENDBRANCH  11  13
ENDBRANCH   1  11
BRANCH   8  21
HETATM   21  O1  UNL     1      25.935   4.274  49.206  1.00  0.00    -0.351 OA
BRANCH  21  22
HETATM   22  C11 UNL     1      26.101   2.989  49.644  1.00  0.00     0.177 C 
BRANCH  22  23
HETATM   23  C12 UNL     1      26.703   2.777  50.994  1.00  0.00     0.057 C 
BRANCH  23  24
HETATM   24  C13 UNL     1      25.686   2.367  52.033  1.00  0.00     0.274 C 
BRANCH  24  25
HETATM   25  N4  UNL     1      26.068   1.139  52.696  1.00  0.00     0.092 N 
HETATM   26  C14 UNL     1      25.811   1.309  54.114  1.00  0.00     0.298 C 
HETATM   27  C15 UNL     1      26.626   0.289  54.888  1.00  0.00     0.198 C 
HETATM   28  O2  UNL     1      26.958  -0.814  54.109  1.00  0.00    -0.388 OA
HETATM   29  C16 UNL     1      27.845  -0.436  53.087  1.00  0.00     0.198 C 
HETATM   30  C17 UNL     1      27.498   0.932  52.543  1.00  0.00     0.298 C 
ENDBRANCH  24  25
ENDBRANCH  23  24
ENDBRANCH  22  23
ENDBRANCH  21  22
ENDBRANCH   8  21
TORSDOF 7
ENDMDL
MODEL 7
REMARK VINA RESULT:      -7.4      5.637      9.915
REMARK  7 active torsions:
REMARK  status: ('A' for Active; 'I' for Inactive)
REMARK    1  A    between atoms: C4_5  and  N1_6 
REMARK    2  A    between atoms: N1_6  and  C5_7 
REMARK    3  A    between atoms: C10_14  and  O1_15 
REMARK    4  A    between atoms: O1_15  and  C11_16 
REMARK    5  A    between atoms: C11_16  and  C12_17 
REMARK    6  A    between atoms: C12_17  and  C13_18 
REMARK    7  A    between atoms: C13_18  and  N4_19 
ROOT
HETATM    1  C5  UNL     1      25.065   3.815  50.392  1.00  0.00     0.142 A 
HETATM    2  N2  UNL     1      23.924   4.372  50.815  1.00  0.00    -0.224 NA
HETATM    3  C6  UNL     1      23.555   5.647  50.650  1.00  0.00     0.236 A 
HETATM    4  N3  UNL     1      24.381   6.483  50.001  1.00  0.00    -0.241 NA
HETATM    5  C7  UNL     1      25.570   6.007  49.532  1.00  0.00     0.072 A 
HETATM    6  C8  UNL     1      26.390   6.895  48.876  1.00  0.00     0.035 A 
HETATM    7  C9  UNL     1      27.621   6.432  48.384  1.00  0.00     0.039 A 
HETATM    8  C10 UNL     1      28.004   5.089  48.562  1.00  0.00     0.069 A 
HETATM    9  C18 UNL     1      27.096   4.305  49.233  1.00  0.00     0.054 A 
HETATM   10  C19 UNL     1      25.890   4.689  49.734  1.00  0.00     0.041 A 
ENDROOT
BRANCH   1  11
HETATM   11  N1  UNL     1      25.429   2.471  50.581  1.00  0.00    -0.340 N 
HETATM   12  H3  UNL     1      25.344   1.772  49.838  1.00  0.00     0.167 HD
BRANCH  11  13
HETATM   13  C4  UNL     1      25.949   1.883  51.761  1.00  0.00     0.035 A 
HETATM   14  C3  UNL     1      27.197   2.205  52.251  1.00  0.00     0.032 A 
HETATM   15  C2  UNL     1      27.674   1.615  53.423  1.00  0.00     0.046 A 
HETATM   16  C1  UNL     1      26.946   0.698  54.142  1.00  0.00     0.138 A 
HETATM   17  F1  UNL     1      27.373   0.105  55.281  1.00  0.00    -0.204 F 
HETATM   18  C21 UNL     1      25.701   0.362  53.672  1.00  0.00     0.074 A 
HETATM   19  C20 UNL     1      25.264   0.960  52.517  1.00  0.00     0.056 A 
HETATM   20 CL1  UNL     1      24.700  -0.795  54.517  1.00  0.00    -0.081 Cl
ENDBRANCH  11  13
ENDBRANCH   1  11
BRANCH   8  21
HETATM   21  O1  UNL     1      29.221   4.922  47.997  1.00  0.00    -0.351 OA
BRANCH  21  22
HETATM   22  C11 UNL     1      30.240   5.821  47.846  1.00  0.00     0.177 C 
BRANCH  22  23
HETATM   23  C12 UNL     1      31.466   5.643  48.680  1.00  0.00     0.057 C 
BRANCH  23  24
HETATM   24  C13 UNL     1      32.489   4.737  48.036  1.00  0.00     0.274 C 
BRANCH  24  25
HETATM   25  N4  UNL     1      32.742   5.112  46.661  1.00  0.00     0.092 N 
HETATM   26  C14 UNL     1      33.425   4.001  46.024  1.00  0.00     0.298 C 
HETATM   27  C15 UNL     1      34.134   4.508  44.781  1.00  0.00     0.198 C 
HETATM   28  O2  UNL     1      33.561   5.677  44.292  1.00  0.00    -0.388 OA
HETATM   29  C16 UNL     1      33.760   6.730  45.200  1.00  0.00     0.198 C 
HETATM   30  C17 UNL     1      33.649   6.247  46.629  1.00  0.00     0.298 C 
ENDBRANCH  24  25
ENDBRANCH  23  24
ENDBRANCH  22  23
ENDBRANCH  21  22
ENDBRANCH   8  21
TORSDOF 7
ENDMDL
MODEL 8
REMARK VINA RESULT:      -7.4      3.096      5.603
REMARK  7 active torsions:
REMARK  status: ('A' for Active; 'I' for Inactive)
REMARK    1  A    between atoms: C4_5  and  N1_6 
REMARK    2  A    between atoms: N1_6  and  C5_7 
REMARK    3  A    between atoms: C10_14  and  O1_15 
REMARK    4  A    between atoms: O1_15  and  C11_16 
REMARK    5  A    between atoms: C11_16  and  C12_17 
REMARK    6  A    between atoms: C12_17  and  C13_18 
REMARK    7  A    between atoms: C13_18  and  N4_19 
ROOT
HETATM    1  C5  UNL     1      25.780   2.851  50.655  1.00  0.00     0.142 A 
HETATM    2  N2  UNL     1      26.815   3.239  49.903  1.00  0.00    -0.224 NA
HETATM    3  C6  UNL     1      26.927   4.399  49.244  1.00  0.00     0.236 A 
HETATM    4  N3  UNL     1      25.923   5.287  49.319  1.00  0.00    -0.241 NA
HETATM    5  C7  UNL     1      24.823   4.980  50.063  1.00  0.00     0.072 A 
HETATM    6  C8  UNL     1      23.815   5.915  50.114  1.00  0.00     0.035 A 
HETATM    7  C9  UNL     1      22.669   5.624  50.871  1.00  0.00     0.039 A 
HETATM    8  C10 UNL     1      22.558   4.402  51.561  1.00  0.00     0.069 A 
HETATM    9  C18 UNL     1      23.632   3.556  51.431  1.00  0.00     0.054 A 
HETATM   10  C19 UNL     1      24.770   3.775  50.715  1.00  0.00     0.041 A 
ENDROOT
BRANCH   1  11
HETATM   11  N1  UNL     1      25.687   1.625  51.336  1.00  0.00    -0.340 N 
HETATM   12  H3  UNL     1      24.842   1.049  51.311  1.00  0.00     0.167 HD
BRANCH  11  13
HETATM   13  C4  UNL     1      26.687   1.008  52.129  1.00  0.00     0.035 A 
HETATM   14  C3  UNL     1      26.829  -0.362  52.191  1.00  0.00     0.032 A 
HETATM   15  C2  UNL     1      27.832  -0.937  52.974  1.00  0.00     0.046 A 
HETATM   16  C1  UNL     1      28.718  -0.190  53.712  1.00  0.00     0.138 A 
HETATM   17  F1  UNL     1      29.703  -0.710  54.482  1.00  0.00    -0.204 F 
HETATM   18  C21 UNL     1      28.594   1.176  53.665  1.00  0.00     0.074 A 
HETATM   19  C20 UNL     1      27.597   1.708  52.887  1.00  0.00     0.056 A 
HETATM   20 CL1  UNL     1      29.674   2.211  54.570  1.00  0.00    -0.081 Cl
ENDBRANCH  11  13
ENDBRANCH   1  11
BRANCH   8  21
HETATM   21  O1  UNL     1      21.365   4.388  52.199  1.00  0.00    -0.351 OA
BRANCH  21  22
HETATM   22  C11 UNL     1      20.195   3.776  51.843  1.00  0.00     0.177 C 
BRANCH  22  23
HETATM   23  C12 UNL     1      20.110   3.155  50.488  1.00  0.00     0.057 C 
BRANCH  23  24
HETATM   24  C13 UNL     1      20.572   1.716  50.471  1.00  0.00     0.274 C 
BRANCH  24  25
HETATM   25  N4  UNL     1      20.522   1.125  51.791  1.00  0.00     0.092 N 
HETATM   26  C14 UNL     1      21.798   0.475  52.027  1.00  0.00     0.298 C 
HETATM   27  C15 UNL     1      21.632  -0.547  53.137  1.00  0.00     0.198 C 
HETATM   28  O2  UNL     1      20.549  -0.254  53.958  1.00  0.00    -0.388 OA
HETATM   29  C16 UNL     1      19.347  -0.391  53.244  1.00  0.00     0.198 C 
HETATM   30  C17 UNL     1      19.503   0.089  51.818  1.00  0.00     0.298 C 
ENDBRANCH  24  25
ENDBRANCH  23  24
ENDBRANCH  22  23
ENDBRANCH  21  22
ENDBRANCH   8  21
TORSDOF 7
ENDMDL
MODEL 9
REMARK VINA RESULT:      -7.3      4.232      6.363
REMARK  7 active torsions:
REMARK  status: ('A' for Active; 'I' for Inactive)
REMARK    1  A    between atoms: C4_5  and  N1_6 
REMARK    2  A    between atoms: N1_6  and  C5_7 
REMARK    3  A    between atoms: C10_14  and  O1_15 
REMARK    4  A    between atoms: O1_15  and  C11_16 
REMARK    5  A    between atoms: C11_16  and  C12_17 
REMARK    6  A    between atoms: C12_17  and  C13_18 
REMARK    7  A    between atoms: C13_18  and  N4_19 
ROOT
HETATM    1  C5  UNL     1      23.819  -0.370  53.583  1.00  0.00     0.142 A 
HETATM    2  N2  UNL     1      23.939  -0.974  54.770  1.00  0.00    -0.224 NA
HETATM    3  C6  UNL     1      22.940  -1.451  55.522  1.00  0.00     0.236 A 
HETATM    4  N3  UNL     1      21.679  -1.333  55.078  1.00  0.00    -0.241 NA
HETATM    5  C7  UNL     1      21.456  -0.730  53.875  1.00  0.00     0.072 A 
HETATM    6  C8  UNL     1      20.150  -0.625  53.456  1.00  0.00     0.035 A 
HETATM    7  C9  UNL     1      19.891  -0.007  52.222  1.00  0.00     0.039 A 
HETATM    8  C10 UNL     1      20.946   0.495  51.436  1.00  0.00     0.069 A 
HETATM    9  C18 UNL     1      22.202   0.327  51.967  1.00  0.00     0.054 A 
HETATM   10  C19 UNL     1      22.522  -0.261  53.152  1.00  0.00     0.041 A 
ENDROOT
BRANCH   1  11
HETATM   11  N1  UNL     1      24.885   0.125  52.814  1.00  0.00    -0.340 N 
HETATM   12  H3  UNL     1      24.737   0.703  51.982  1.00  0.00     0.167 HD
BRANCH  11  13
HETATM   13  C4  UNL     1      26.271  -0.075  53.041  1.00  0.00     0.035 A 
HETATM   14  C3  UNL     1      26.885  -1.283  52.791  1.00  0.00     0.032 A 
HETATM   15  C2  UNL     1      28.254  -1.444  53.015  1.00  0.00     0.046 A 
HETATM   16  C1  UNL     1      29.053  -0.430  53.487  1.00  0.00     0.138 A 
HETATM   17  F1  UNL     1      30.382  -0.546  53.716  1.00  0.00    -0.204 F 
HETATM   18  C21 UNL     1      28.461   0.781  53.743  1.00  0.00     0.074 A 
HETATM   19  C20 UNL     1      27.114   0.903  53.513  1.00  0.00     0.056 A 
HETATM   20 CL1  UNL     1      29.394   2.130  54.347  1.00  0.00    -0.081 Cl
ENDBRANCH  11  13
ENDBRANCH   1  11
BRANCH   8  21
HETATM   21  O1  UNL     1      20.414   1.032  50.315  1.00  0.00    -0.351 OA
BRANCH  21  22
HETATM   22  C11 UNL     1      19.984   2.310  50.082  1.00  0.00     0.177 C 
BRANCH  22  23
HETATM   23  C12 UNL     1      19.599   2.680  48.689  1.00  0.00     0.057 C 
BRANCH  23  24
HETATM   24  C13 UNL     1      20.781   2.759  47.752  1.00  0.00     0.274 C 
BRANCH  24  25
HETATM   25  N4  UNL     1      20.638   3.843  46.803  1.00  0.00     0.092 N 
HETATM   26  C14 UNL     1      21.730   3.739  45.853  1.00  0.00     0.298 C 
HETATM   27  C15 UNL     1      21.914   5.081  45.167  1.00  0.00     0.198 C 
HETATM   28  O2  UNL     1      20.755   5.849  45.202  1.00  0.00    -0.388 OA
HETATM   29  C16 UNL     1      20.464   6.227  46.524  1.00  0.00     0.198 C 
HETATM   30  C17 UNL     1      20.790   5.113  47.494  1.00  0.00     0.298 C 
ENDBRANCH  24  25
ENDBRANCH  23  24
ENDBRANCH  22  23
ENDBRANCH  21  22
ENDBRANCH   8  21
TORSDOF 7
ENDMDL
