MODEL 1
REMARK VINA RESULT:      -7.7      0.000      0.000
REMARK  1 active torsions:
REMARK  status: ('A' for Active; 'I' for Inactive)
REMARK    1  A    between atoms: C1_2  and  C2_3 
ROOT
HETATM    1  C2  UNL     1      22.591   2.163  50.842  1.00  0.00     0.081 C 
HETATM    2  C3  UNL     1      23.141   1.158  51.763  1.00  0.00     0.004 C 
HETATM    3  C4  UNL     1      22.709   0.592  52.879  1.00  0.00    -0.056 C 
HETATM    4  C5  UNL     1      21.361   0.573  53.463  1.00  0.00     0.007 C 
HETATM    5  C6  UNL     1      20.397   1.422  53.065  1.00  0.00     0.001 C 
HETATM    6  C7  UNL     1      20.469   2.650  52.242  1.00  0.00     0.004 C 
HETATM    7  C8  UNL     1      21.545   2.996  51.515  1.00  0.00    -0.056 C 
HETATM    8  C9  UNL     1      22.204   4.256  51.040  1.00  0.00     0.070 C 
HETATM    9  C10 UNL     1      23.429   3.417  50.751  1.00  0.00     0.155 C 
HETATM   10  O2  UNL     1      24.406   3.350  51.736  1.00  0.00    -0.356 OA
HETATM   11  C11 UNL     1      24.278   3.561  53.079  1.00  0.00     0.137 C 
HETATM   12  C12 UNL     1      24.850   2.566  53.781  1.00  0.00     0.056 C 
HETATM   13  C13 UNL     1      25.562   1.335  53.376  1.00  0.00     0.064 A 
HETATM   14  N1  UNL     1      26.830   1.620  53.025  1.00  0.00    -0.261 NA
HETATM   15  C14 UNL     1      27.647   0.613  52.621  1.00  0.00     0.117 A 
HETATM   16  C15 UNL     1      27.222  -0.697  52.557  1.00  0.00     0.020 A 
HETATM   17  C16 UNL     1      25.911  -0.901  52.934  1.00  0.00     0.011 A 
HETATM   18  C17 UNL     1      25.033   0.078  53.353  1.00  0.00    -0.025 A 
HETATM   19  C18 UNL     1      23.647  -0.161  53.748  1.00  0.00     0.079 C 
ENDROOT
BRANCH   1  20
HETATM   20  C1  UNL     1      22.191   1.639  49.520  1.00  0.00     0.252 C 
HETATM   21  O1  UNL     1      21.440   0.675  49.406  1.00  0.00    -0.305 OA
ENDBRANCH   1  20
TORSDOF 1
ENDMDL
MODEL 2
REMARK VINA RESULT:      -7.5      1.979      3.169
REMARK  1 active torsions:
REMARK  status: ('A' for Active; 'I' for Inactive)
REMARK    1  A    between atoms: C1_2  and  C2_3 
ROOT
HETATM    1  C2  UNL     1      21.623   1.627  50.858  1.00  0.00     0.081 C 
HETATM    2  C3  UNL     1      23.077   1.709  51.061  1.00  0.00     0.004 C 
HETATM    3  C4  UNL     1      23.901   1.305  52.015  1.00  0.00    -0.056 C 
HETATM    4  C5  UNL     1      23.673   0.362  53.118  1.00  0.00     0.007 C 
HETATM    5  C6  UNL     1      22.437  -0.016  53.493  1.00  0.00     0.001 C 
HETATM    6  C7  UNL     1      21.110   0.544  53.152  1.00  0.00     0.004 C 
HETATM    7  C8  UNL     1      20.908   1.424  52.157  1.00  0.00    -0.056 C 
HETATM    8  C9  UNL     1      19.965   2.548  51.844  1.00  0.00     0.070 C 
HETATM    9  C10 UNL     1      20.950   2.978  50.780  1.00  0.00     0.155 C 
HETATM   10  O2  UNL     1      21.888   3.942  51.129  1.00  0.00    -0.356 OA
HETATM   11  C11 UNL     1      22.352   4.271  52.370  1.00  0.00     0.137 C 
HETATM   12  C12 UNL     1      23.696   4.324  52.385  1.00  0.00     0.056 C 
HETATM   13  C13 UNL     1      24.719   4.101  51.340  1.00  0.00     0.064 A 
HETATM   14  N1  UNL     1      24.829   5.185  50.550  1.00  0.00    -0.261 NA
HETATM   15  C14 UNL     1      25.723   5.171  49.528  1.00  0.00     0.117 A 
HETATM   16  C15 UNL     1      26.525   4.080  49.268  1.00  0.00     0.020 A 
HETATM   17  C16 UNL     1      26.348   3.013  50.124  1.00  0.00     0.011 A 
HETATM   18  C17 UNL     1      25.460   2.967  51.179  1.00  0.00    -0.025 A 
HETATM   19  C18 UNL     1      25.289   1.824  52.074  1.00  0.00     0.079 C 
ENDROOT
BRANCH   1  20
HETATM   20  C1  UNL     1      21.199   0.708  49.781  1.00  0.00     0.252 C 
HETATM   21  O1  UNL     1      21.524   0.889  48.611  1.00  0.00    -0.305 OA
ENDBRANCH   1  20
TORSDOF 1
ENDMDL
MODEL 3
REMARK VINA RESULT:      -7.2      2.275      4.572
REMARK  1 active torsions:
REMARK  status: ('A' for Active; 'I' for Inactive)
REMARK    1  A    between atoms: C1_2  and  C2_3 
ROOT
HETATM    1  C2  UNL     1      23.264   3.938  51.399  1.00  0.00     0.081 C 
HETATM    2  C3  UNL     1      23.359   2.646  52.095  1.00  0.00     0.004 C 
HETATM    3  C4  UNL     1      24.260   1.677  52.124  1.00  0.00    -0.056 C 
HETATM    4  C5  UNL     1      25.655   1.675  51.663  1.00  0.00     0.007 C 
HETATM    5  C6  UNL     1      26.138   2.623  50.839  1.00  0.00     0.001 C 
HETATM    6  C7  UNL     1      25.441   3.646  50.029  1.00  0.00     0.004 C 
HETATM    7  C8  UNL     1      24.145   3.965  50.189  1.00  0.00    -0.056 C 
HETATM    8  C9  UNL     1      23.012   4.463  49.342  1.00  0.00     0.070 C 
HETATM    9  C10 UNL     1      22.086   4.026  50.455  1.00  0.00     0.155 C 
HETATM   10  O2  UNL     1      21.522   2.760  50.357  1.00  0.00    -0.356 OA
HETATM   11  C11 UNL     1      21.972   1.677  49.658  1.00  0.00     0.137 C 
HETATM   12  C12 UNL     1      21.981   0.574  50.427  1.00  0.00     0.056 C 
HETATM   13  C13 UNL     1      21.605   0.333  51.837  1.00  0.00     0.064 A 
HETATM   14  N1  UNL     1      20.268   0.229  51.956  1.00  0.00    -0.261 NA
HETATM   15  C14 UNL     1      19.729   0.006  53.182  1.00  0.00     0.117 A 
HETATM   16  C15 UNL     1      20.504  -0.119  54.315  1.00  0.00     0.020 A 
HETATM   17  C16 UNL     1      21.863   0.000  54.104  1.00  0.00     0.011 A 
HETATM   18  C17 UNL     1      22.470   0.226  52.886  1.00  0.00    -0.025 A 
HETATM   19  C18 UNL     1      23.913   0.349  52.686  1.00  0.00     0.079 C 
ENDROOT
BRANCH   1  20
HETATM   20  C1  UNL     1      23.393   5.123  52.271  1.00  0.00     0.252 C 
HETATM   21  O1  UNL     1      23.780   5.032  53.432  1.00  0.00    -0.305 OA
ENDBRANCH   1  20
TORSDOF 1
ENDMDL
MODEL 4
REMARK VINA RESULT:      -7.0      2.933      4.266
REMARK  1 active torsions:
REMARK  status: ('A' for Active; 'I' for Inactive)
REMARK    1  A    between atoms: C1_2  and  C2_3 
ROOT
HETATM    1  C2  UNL     1      23.116   3.747  50.996  1.00  0.00     0.081 C 
HETATM    2  C3  UNL     1      22.697   2.338  50.994  1.00  0.00     0.004 C 
HETATM    3  C4  UNL     1      22.148   1.539  50.092  1.00  0.00    -0.056 C 
HETATM    4  C5  UNL     1      22.009   1.715  48.640  1.00  0.00     0.007 C 
HETATM    5  C6  UNL     1      22.171   2.911  48.045  1.00  0.00     0.001 C 
HETATM    6  C7  UNL     1      22.242   4.274  48.618  1.00  0.00     0.004 C 
HETATM    7  C8  UNL     1      22.411   4.522  49.928  1.00  0.00    -0.056 C 
HETATM    8  C9  UNL     1      22.028   5.586  50.913  1.00  0.00     0.070 C 
HETATM    9  C10 UNL     1      22.370   4.594  52.002  1.00  0.00     0.155 C 
HETATM   10  O2  UNL     1      21.332   3.827  52.519  1.00  0.00    -0.356 OA
HETATM   11  C11 UNL     1      20.139   3.506  51.939  1.00  0.00     0.137 C 
HETATM   12  C12 UNL     1      19.893   2.188  52.037  1.00  0.00     0.056 C 
HETATM   13  C13 UNL     1      20.652   1.069  52.637  1.00  0.00     0.064 A 
HETATM   14  N1  UNL     1      20.487   1.052  53.973  1.00  0.00    -0.261 NA
HETATM   15  C14 UNL     1      21.110   0.092  54.704  1.00  0.00     0.117 A 
HETATM   16  C15 UNL     1      21.909  -0.871  54.125  1.00  0.00     0.020 A 
HETATM   17  C16 UNL     1      22.024  -0.781  52.753  1.00  0.00     0.011 A 
HETATM   18  C17 UNL     1      21.417   0.168  51.956  1.00  0.00    -0.025 A 
HETATM   19  C18 UNL     1      21.553   0.245  50.503  1.00  0.00     0.079 C 
ENDROOT
BRANCH   1  20
HETATM   20  C1  UNL     1      24.578   3.959  51.036  1.00  0.00     0.252 C 
HETATM   21  O1  UNL     1      25.363   3.135  50.578  1.00  0.00    -0.305 OA
ENDBRANCH   1  20
TORSDOF 1
ENDMDL
MODEL 5
REMARK VINA RESULT:      -6.9      2.489      5.178
REMARK  1 active torsions:
REMARK  status: ('A' for Active; 'I' for Inactive)
REMARK    1  A    between atoms: C1_2  and  C2_3 
ROOT
HETATM    1  C2  UNL     1      23.060   3.677  51.367  1.00  0.00     0.081 C 
HETATM    2  C3  UNL     1      22.420   2.414  51.761  1.00  0.00     0.004 C 
HETATM    3  C4  UNL     1      22.867   1.199  52.040  1.00  0.00    -0.056 C 
HETATM    4  C5  UNL     1      24.233   0.742  52.325  1.00  0.00     0.007 C 
HETATM    5  C6  UNL     1      25.313   1.492  52.038  1.00  0.00     0.001 C 
HETATM    6  C7  UNL     1      25.453   2.706  51.203  1.00  0.00     0.004 C 
HETATM    7  C8  UNL     1      24.410   3.434  50.770  1.00  0.00    -0.056 C 
HETATM    8  C9  UNL     1      24.074   4.299  49.591  1.00  0.00     0.070 C 
HETATM    9  C10 UNL     1      22.625   4.172  50.007  1.00  0.00     0.155 C 
HETATM   10  O2  UNL     1      21.873   3.169  49.408  1.00  0.00    -0.356 OA
HETATM   11  C11 UNL     1      22.306   2.013  48.824  1.00  0.00     0.137 C 
HETATM   12  C12 UNL     1      21.609   0.954  49.273  1.00  0.00     0.056 C 
HETATM   13  C13 UNL     1      20.503   0.823  50.247  1.00  0.00     0.064 A 
HETATM   14  N1  UNL     1      19.333   1.168  49.679  1.00  0.00    -0.261 NA
HETATM   15  C14 UNL     1      18.196   1.111  50.420  1.00  0.00     0.117 A 
HETATM   16  C15 UNL     1      18.197   0.712  51.739  1.00  0.00     0.020 A 
HETATM   17  C16 UNL     1      19.437   0.376  52.242  1.00  0.00     0.011 A 
HETATM   18  C17 UNL     1      20.625   0.412  51.542  1.00  0.00    -0.025 A 
HETATM   19  C18 UNL     1      21.929   0.051  52.096  1.00  0.00     0.079 C 
ENDROOT
BRANCH   1  20
HETATM   20  C1  UNL     1      23.033   4.733  52.400  1.00  0.00     0.252 C 
HETATM   21  O1  UNL     1      23.753   4.685  53.393  1.00  0.00    -0.305 OA
ENDBRANCH   1  20
TORSDOF 1
ENDMDL
MODEL 6
REMARK VINA RESULT:      -6.8     10.052     12.332
REMARK  1 active torsions:
REMARK  status: ('A' for Active; 'I' for Inactive)
REMARK    1  A    between atoms: C1_2  and  C2_3 
ROOT
HETATM    1  C2  UNL     1      33.006   3.796  46.773  1.00  0.00     0.081 C 
HETATM    2  C3  UNL     1      32.414   5.020  46.214  1.00  0.00     0.004 C 
HETATM    3  C4  UNL     1      32.739   5.833  45.221  1.00  0.00    -0.056 C 
HETATM    4  C5  UNL     1      33.692   5.639  44.120  1.00  0.00     0.007 C 
HETATM    5  C6  UNL     1      34.624   4.669  44.142  1.00  0.00     0.001 C 
HETATM    6  C7  UNL     1      35.098   3.809  45.250  1.00  0.00     0.004 C 
HETATM    7  C8  UNL     1      34.457   3.691  46.425  1.00  0.00    -0.056 C 
HETATM    8  C9  UNL     1      34.809   3.419  47.858  1.00  0.00     0.070 C 
HETATM    9  C10 UNL     1      33.435   3.941  48.215  1.00  0.00     0.155 C 
HETATM   10  O2  UNL     1      33.329   5.283  48.559  1.00  0.00    -0.356 OA
HETATM   11  C11 UNL     1      34.161   6.315  48.231  1.00  0.00     0.137 C 
HETATM   12  C12 UNL     1      33.467   7.363  47.755  1.00  0.00     0.056 C 
HETATM   13  C13 UNL     1      32.022   7.590  47.532  1.00  0.00     0.064 A 
HETATM   14  N1  UNL     1      31.410   7.896  48.690  1.00  0.00    -0.261 NA
HETATM   15  C14 UNL     1      30.074   8.140  48.688  1.00  0.00     0.117 A 
HETATM   16  C15 UNL     1      29.319   8.085  47.536  1.00  0.00     0.020 A 
HETATM   17  C16 UNL     1      30.024   7.764  46.394  1.00  0.00     0.011 A 
HETATM   18  C17 UNL     1      31.378   7.507  46.332  1.00  0.00    -0.025 A 
HETATM   19  C18 UNL     1      32.106   7.170  45.110  1.00  0.00     0.079 C 
ENDROOT
BRANCH   1  20
HETATM   20  C1  UNL     1      32.231   2.563  46.523  1.00  0.00     0.252 C 
HETATM   21  O1  UNL     1      32.607   1.469  46.933  1.00  0.00    -0.305 OA
ENDBRANCH   1  20
TORSDOF 1
ENDMDL
MODEL 7
REMARK VINA RESULT:      -6.8      2.516      4.981
REMARK  1 active torsions:
REMARK  status: ('A' for Active; 'I' for Inactive)
REMARK    1  A    between atoms: C1_2  and  C2_3 
ROOT
HETATM    1  C2  UNL     1      22.072   2.922  51.760  1.00  0.00     0.081 C 
HETATM    2  C3  UNL     1      22.303   3.592  50.473  1.00  0.00     0.004 C 
HETATM    3  C4  UNL     1      22.219   3.214  49.206  1.00  0.00    -0.056 C 
HETATM    4  C5  UNL     1      21.583   2.028  48.619  1.00  0.00     0.007 C 
HETATM    5  C6  UNL     1      21.233   0.961  49.361  1.00  0.00     0.001 C 
HETATM    6  C7  UNL     1      21.593   0.589  50.747  1.00  0.00     0.004 C 
HETATM    7  C8  UNL     1      22.167   1.435  51.620  1.00  0.00    -0.056 C 
HETATM    8  C9  UNL     1      23.104   1.357  52.789  1.00  0.00     0.070 C 
HETATM    9  C10 UNL     1      23.307   2.847  52.629  1.00  0.00     0.155 C 
HETATM   10  O2  UNL     1      24.390   3.267  51.866  1.00  0.00    -0.356 OA
HETATM   11  C11 UNL     1      25.062   2.586  50.892  1.00  0.00     0.137 C 
HETATM   12  C12 UNL     1      25.209   3.341  49.788  1.00  0.00     0.056 C 
HETATM   13  C13 UNL     1      24.790   4.720  49.455  1.00  0.00     0.064 A 
HETATM   14  N1  UNL     1      25.635   5.614  50.002  1.00  0.00    -0.261 NA
HETATM   15  C14 UNL     1      25.415   6.939  49.806  1.00  0.00     0.117 A 
HETATM   16  C15 UNL     1      24.352   7.405  49.063  1.00  0.00     0.020 A 
HETATM   17  C16 UNL     1      23.535   6.424  48.539  1.00  0.00     0.011 A 
HETATM   18  C17 UNL     1      23.706   5.065  48.702  1.00  0.00    -0.025 A 
HETATM   19  C18 UNL     1      22.828   4.042  48.137  1.00  0.00     0.079 C 
ENDROOT
BRANCH   1  20
HETATM   20  C1  UNL     1      20.877   3.387  52.496  1.00  0.00     0.252 C 
HETATM   21  O1  UNL     1      19.782   3.487  51.952  1.00  0.00    -0.305 OA
ENDBRANCH   1  20
TORSDOF 1
ENDMDL
MODEL 8
REMARK VINA RESULT:      -6.5      8.641     10.223
REMARK  1 active torsions:
REMARK  status: ('A' for Active; 'I' for Inactive)
REMARK    1  A    between atoms: C1_2  and  C2_3 
ROOT
HETATM    1  C2  UNL     1      30.155   8.779  47.120  1.00  0.00     0.081 C 
HETATM    2  C3  UNL     1      30.262   7.315  47.189  1.00  0.00     0.004 C 
HETATM    3  C4  UNL     1      29.515   6.357  47.717  1.00  0.00    -0.056 C 
HETATM    4  C5  UNL     1      28.130   6.405  48.203  1.00  0.00     0.007 C 
HETATM    5  C6  UNL     1      27.500   7.567  48.457  1.00  0.00     0.001 C 
HETATM    6  C7  UNL     1      28.027   8.944  48.585  1.00  0.00     0.004 C 
HETATM    7  C8  UNL     1      29.263   9.306  48.201  1.00  0.00    -0.056 C 
HETATM    8  C9  UNL     1      30.297  10.316  48.600  1.00  0.00     0.070 C 
HETATM    9  C10 UNL     1      31.293   9.498  47.809  1.00  0.00     0.155 C 
HETATM   10  O2  UNL     1      32.038   8.551  48.501  1.00  0.00    -0.356 OA
HETATM   11  C11 UNL     1      31.744   7.934  49.683  1.00  0.00     0.137 C 
HETATM   12  C12 UNL     1      31.910   6.602  49.587  1.00  0.00     0.056 C 
HETATM   13  C13 UNL     1      32.337   5.724  48.476  1.00  0.00     0.064 A 
HETATM   14  N1  UNL     1      33.675   5.754  48.340  1.00  0.00    -0.261 NA
HETATM   15  C14 UNL     1      34.259   5.007  47.368  1.00  0.00     0.117 A 
HETATM   16  C15 UNL     1      33.526   4.215  46.511  1.00  0.00     0.020 A 
HETATM   17  C16 UNL     1      32.162   4.241  46.718  1.00  0.00     0.011 A 
HETATM   18  C17 UNL     1      31.511   4.977  47.688  1.00  0.00    -0.025 A 
HETATM   19  C18 UNL     1      30.064   4.990  47.890  1.00  0.00     0.079 C 
ENDROOT
BRANCH   1  20
HETATM   20  C1  UNL     1      29.862   9.317  45.776  1.00  0.00     0.252 C 
HETATM   21  O1  UNL     1      29.098   8.747  45.003  1.00  0.00    -0.305 OA
ENDBRANCH   1  20
TORSDOF 1
ENDMDL
MODEL 9
REMARK VINA RESULT:      -6.4      3.066      5.513
REMARK  1 active torsions:
REMARK  status: ('A' for Active; 'I' for Inactive)
REMARK    1  A    between atoms: C1_2  and  C2_3 
ROOT
HETATM    1  C2  UNL     1      23.242   6.083  49.745  1.00  0.00     0.081 C 
HETATM    2  C3  UNL     1      23.810   4.849  50.305  1.00  0.00     0.004 C 
HETATM    3  C4  UNL     1      24.962   4.213  50.159  1.00  0.00    -0.056 C 
HETATM    4  C5  UNL     1      26.226   4.678  49.572  1.00  0.00     0.007 C 
HETATM    5  C6  UNL     1      26.294   5.777  48.799  1.00  0.00     0.001 C 
HETATM    6  C7  UNL     1      25.225   6.575  48.157  1.00  0.00     0.004 C 
HETATM    7  C8  UNL     1      23.923   6.459  48.466  1.00  0.00    -0.056 C 
HETATM    8  C9  UNL     1      22.600   6.625  47.779  1.00  0.00     0.070 C 
HETATM    9  C10 UNL     1      21.991   5.852  48.928  1.00  0.00     0.155 C 
HETATM   10  O2  UNL     1      21.835   4.481  48.765  1.00  0.00    -0.356 OA
HETATM   11  C11 UNL     1      22.510   3.640  47.928  1.00  0.00     0.137 C 
HETATM   12  C12 UNL     1      22.947   2.551  48.586  1.00  0.00     0.056 C 
HETATM   13  C13 UNL     1      22.832   2.120  49.997  1.00  0.00     0.064 A 
HETATM   14  N1  UNL     1      21.616   1.594  50.230  1.00  0.00    -0.261 NA
HETATM   15  C14 UNL     1      21.320   1.139  51.475  1.00  0.00     0.117 A 
HETATM   16  C15 UNL     1      22.224   1.197  52.513  1.00  0.00     0.020 A 
HETATM   17  C16 UNL     1      23.445   1.751  52.189  1.00  0.00     0.011 A 
HETATM   18  C17 UNL     1      23.806   2.229  50.945  1.00  0.00    -0.025 A 
HETATM   19  C18 UNL     1      25.107   2.812  50.624  1.00  0.00     0.079 C 
ENDROOT
BRANCH   1  20
HETATM   20  C1  UNL     1      23.104   7.195  50.709  1.00  0.00     0.252 C 
HETATM   21  O1  UNL     1      24.066   7.872  51.057  1.00  0.00    -0.305 OA
ENDBRANCH   1  20
TORSDOF 1
ENDMDL
