MODEL 1
REMARK VINA RESULT:      -7.9      0.000      0.000
REMARK  5 active torsions:
REMARK  status: ('A' for Active; 'I' for Inactive)
REMARK    1  A    between atoms: O1_2  and  C2_3 
REMARK    2  A    between atoms: C5_6  and  C6_7 
REMARK    3  A    between atoms: C6_7  and  C7_8 
REMARK       I    between atoms: C7_8  and  N1_10 
REMARK    4  A    between atoms: N1_10  and  S1_11 
REMARK    5  A    between atoms: S1_11  and  C8_14 
ROOT
HETATM    1  C7  UNL     1      25.937   2.601  51.234  1.00  0.00     0.235 C 
HETATM    2  O2  UNL     1      25.065   1.884  51.836  1.00  0.00    -0.272 OA
HETATM    3  N1  UNL     1      27.177   2.760  51.884  1.00  0.00    -0.250 N 
HETATM    4  H8  UNL     1      27.843   3.356  51.338  1.00  0.00     0.181 HD
ENDROOT
BRANCH   1   5
HETATM    5  C6  UNL     1      25.410   3.105  49.953  1.00  0.00     0.143 C 
BRANCH   5   6
HETATM    6  C5  UNL     1      26.111   4.371  49.522  1.00  0.00    -0.032 A 
HETATM    7  C4  UNL     1      27.286   4.470  48.824  1.00  0.00     0.012 A 
HETATM    8  C3  UNL     1      27.765   5.737  48.540  1.00  0.00     0.037 A 
HETATM    9  C2  UNL     1      27.134   6.915  48.917  1.00  0.00     0.069 A 
HETATM   10  C14 UNL     1      25.955   6.770  49.617  1.00  0.00     0.056 A 
HETATM   11  C13 UNL     1      25.421   5.517  49.933  1.00  0.00     0.020 A 
HETATM   12 BR1  UNL     1      23.787   5.642  50.895  1.00  0.00    -0.050 Br
BRANCH   9  13
HETATM   13  O1  UNL     1      27.706   8.121  48.579  1.00  0.00    -0.356 OA
HETATM   14  C1  UNL     1      28.049   9.096  49.535  1.00  0.00     0.210 C 
ENDBRANCH   9  13
ENDBRANCH   5   6
ENDBRANCH   1   5
BRANCH   3  15
HETATM   15  S1  UNL     1      27.580   2.080  53.394  1.00  0.00     0.261 S 
HETATM   16  O3  UNL     1      28.809   2.728  53.988  1.00  0.00    -0.200 OA
HETATM   17  O4  UNL     1      26.429   2.278  54.334  1.00  0.00    -0.200 OA
BRANCH  15  18
HETATM   18  C8  UNL     1      27.964   0.380  53.222  1.00  0.00     0.061 A 
HETATM   19  C9  UNL     1      27.203  -0.598  52.771  1.00  0.00     0.021 A 
HETATM   20  C10 UNL     1      27.960  -1.859  52.813  1.00  0.00    -0.002 A 
HETATM   21  C11 UNL     1      29.184  -1.579  53.302  1.00  0.00    -0.021 A 
HETATM   22  C12 UNL     1      29.324  -0.133  53.613  1.00  0.00     0.079 A 
ENDBRANCH  15  18
ENDBRANCH   3  15
TORSDOF 5
ENDMDL
MODEL 2
REMARK VINA RESULT:      -7.7      4.115      6.453
REMARK  5 active torsions:
REMARK  status: ('A' for Active; 'I' for Inactive)
REMARK    1  A    between atoms: O1_2  and  C2_3 
REMARK    2  A    between atoms: C5_6  and  C6_7 
REMARK    3  A    between atoms: C6_7  and  C7_8 
REMARK       I    between atoms: C7_8  and  N1_10 
REMARK    4  A    between atoms: N1_10  and  S1_11 
REMARK    5  A    between atoms: S1_11  and  C8_14 
ROOT
HETATM    1  C7  UNL     1      24.694   1.931  51.846  1.00  0.00     0.235 C 
HETATM    2  O2  UNL     1      24.799   3.101  52.356  1.00  0.00    -0.272 OA
HETATM    3  N1  UNL     1      25.732   1.023  52.137  1.00  0.00    -0.250 N 
HETATM    4  H8  UNL     1      25.583   0.088  51.692  1.00  0.00     0.181 HD
ENDROOT
BRANCH   1   5
HETATM    5  C6  UNL     1      23.460   1.814  51.048  1.00  0.00     0.143 C 
BRANCH   5   6
HETATM    6  C5  UNL     1      22.356   1.140  51.826  1.00  0.00    -0.032 A 
HETATM    7  C4  UNL     1      22.362   0.810  53.157  1.00  0.00     0.012 A 
HETATM    8  C3  UNL     1      21.242   0.180  53.672  1.00  0.00     0.037 A 
HETATM    9  C2  UNL     1      20.114  -0.142  52.930  1.00  0.00     0.069 A 
HETATM   10  C14 UNL     1      20.150   0.208  51.597  1.00  0.00     0.056 A 
HETATM   11  C13 UNL     1      21.251   0.846  51.019  1.00  0.00     0.020 A 
HETATM   12 BR1  UNL     1      21.000   1.204  49.170  1.00  0.00    -0.050 Br
BRANCH   9  13
HETATM   13  O1  UNL     1      19.059  -0.771  53.552  1.00  0.00    -0.356 OA
HETATM   14  C1  UNL     1      17.887  -1.147  52.868  1.00  0.00     0.210 C 
ENDBRANCH   9  13
ENDBRANCH   5   6
ENDBRANCH   1   5
BRANCH   3  15
HETATM   15  S1  UNL     1      27.094   1.378  53.097  1.00  0.00     0.261 S 
HETATM   16  O3  UNL     1      27.946   2.462  52.479  1.00  0.00    -0.200 OA
HETATM   17  O4  UNL     1      26.628   1.842  54.444  1.00  0.00    -0.200 OA
BRANCH  15  18
HETATM   18  C8  UNL     1      28.129  -0.027  53.241  1.00  0.00     0.061 A 
HETATM   19  C9  UNL     1      27.851  -1.290  52.981  1.00  0.00     0.021 A 
HETATM   20  C10 UNL     1      29.039  -2.115  53.254  1.00  0.00    -0.002 A 
HETATM   21  C11 UNL     1      30.014  -1.288  53.680  1.00  0.00    -0.021 A 
HETATM   22  C12 UNL     1      29.549   0.123  53.719  1.00  0.00     0.079 A 
ENDBRANCH  15  18
ENDBRANCH   3  15
TORSDOF 5
ENDMDL
MODEL 3
REMARK VINA RESULT:      -7.6      2.953      6.890
REMARK  5 active torsions:
REMARK  status: ('A' for Active; 'I' for Inactive)
REMARK    1  A    between atoms: O1_2  and  C2_3 
REMARK    2  A    between atoms: C5_6  and  C6_7 
REMARK    3  A    between atoms: C6_7  and  C7_8 
REMARK       I    between atoms: C7_8  and  N1_10 
REMARK    4  A    between atoms: N1_10  and  S1_11 
REMARK    5  A    between atoms: S1_11  and  C8_14 
ROOT
HETATM    1  C7  UNL     1      23.864   2.942  50.929  1.00  0.00     0.235 C 
HETATM    2  O2  UNL     1      23.706   2.853  49.662  1.00  0.00    -0.272 OA
HETATM    3  N1  UNL     1      24.224   4.209  51.430  1.00  0.00    -0.250 N 
HETATM    4  H8  UNL     1      24.336   4.212  52.470  1.00  0.00     0.181 HD
ENDROOT
BRANCH   1   5
HETATM    5  C6  UNL     1      23.617   1.644  51.581  1.00  0.00     0.143 C 
BRANCH   5   6
HETATM    6  C5  UNL     1      24.881   1.073  52.179  1.00  0.00    -0.032 A 
HETATM    7  C4  UNL     1      26.172   1.400  51.856  1.00  0.00     0.012 A 
HETATM    8  C3  UNL     1      27.191   0.742  52.521  1.00  0.00     0.037 A 
HETATM    9  C2  UNL     1      26.994  -0.227  53.495  1.00  0.00     0.069 A 
HETATM   10  C14 UNL     1      25.680  -0.525  53.790  1.00  0.00     0.056 A 
HETATM   11  C13 UNL     1      24.608   0.105  53.152  1.00  0.00     0.020 A 
HETATM   12 BR1  UNL     1      22.922  -0.513  53.777  1.00  0.00    -0.050 Br
BRANCH   9  13
HETATM   13  O1  UNL     1      28.088  -0.815  54.089  1.00  0.00    -0.356 OA
HETATM   14  C1  UNL     1      29.341  -0.908  53.454  1.00  0.00     0.210 C 
ENDBRANCH   9  13
ENDBRANCH   5   6
ENDBRANCH   1   5
BRANCH   3  15
HETATM   15  S1  UNL     1      24.468   5.600  50.476  1.00  0.00     0.261 S 
HETATM   16  O3  UNL     1      23.375   5.769  49.446  1.00  0.00    -0.200 OA
HETATM   17  O4  UNL     1      24.476   6.802  51.371  1.00  0.00    -0.200 OA
BRANCH  15  18
HETATM   18  C8  UNL     1      25.966   5.477  49.577  1.00  0.00     0.061 A 
HETATM   19  C9  UNL     1      26.703   4.409  49.341  1.00  0.00     0.021 A 
HETATM   20  C10 UNL     1      27.875   4.797  48.539  1.00  0.00    -0.002 A 
HETATM   21  C11 UNL     1      27.791   6.124  48.318  1.00  0.00    -0.021 A 
HETATM   22  C12 UNL     1      26.575   6.701  48.948  1.00  0.00     0.079 A 
ENDBRANCH  15  18
ENDBRANCH   3  15
TORSDOF 5
ENDMDL
MODEL 4
REMARK VINA RESULT:      -7.4      2.070      2.788
REMARK  5 active torsions:
REMARK  status: ('A' for Active; 'I' for Inactive)
REMARK    1  A    between atoms: O1_2  and  C2_3 
REMARK    2  A    between atoms: C5_6  and  C6_7 
REMARK    3  A    between atoms: C6_7  and  C7_8 
REMARK       I    between atoms: C7_8  and  N1_10 
REMARK    4  A    between atoms: N1_10  and  S1_11 
REMARK    5  A    between atoms: S1_11  and  C8_14 
ROOT
HETATM    1  C7  UNL     1      26.594   2.202  51.392  1.00  0.00     0.235 C 
HETATM    2  O2  UNL     1      27.666   2.628  51.947  1.00  0.00    -0.272 OA
HETATM    3  N1  UNL     1      25.841   1.258  52.119  1.00  0.00    -0.250 N 
HETATM    4  H8  UNL     1      24.980   0.954  51.609  1.00  0.00     0.181 HD
ENDROOT
BRANCH   1   5
HETATM    5  C6  UNL     1      26.401   2.831  50.073  1.00  0.00     0.143 C 
BRANCH   5   6
HETATM    6  C5  UNL     1      25.632   4.127  50.181  1.00  0.00    -0.032 A 
HETATM    7  C4  UNL     1      24.443   4.333  50.833  1.00  0.00     0.012 A 
HETATM    8  C3  UNL     1      23.900   5.605  50.798  1.00  0.00     0.037 A 
HETATM    9  C2  UNL     1      24.478   6.686  50.148  1.00  0.00     0.069 A 
HETATM   10  C14 UNL     1      25.672   6.435  49.506  1.00  0.00     0.056 A 
HETATM   11  C13 UNL     1      26.271   5.172  49.506  1.00  0.00     0.020 A 
HETATM   12 BR1  UNL     1      27.910   5.142  48.545  1.00  0.00    -0.050 Br
BRANCH   9  13
HETATM   13  O1  UNL     1      23.842   7.907  50.181  1.00  0.00    -0.356 OA
HETATM   14  C1  UNL     1      22.458   8.051  49.971  1.00  0.00     0.210 C 
ENDBRANCH   9  13
ENDBRANCH   5   6
ENDBRANCH   1   5
BRANCH   3  15
HETATM   15  S1  UNL     1      26.262   0.653  53.655  1.00  0.00     0.261 S 
HETATM   16  O3  UNL     1      26.511   1.768  54.645  1.00  0.00    -0.200 OA
HETATM   17  O4  UNL     1      25.137  -0.198  54.162  1.00  0.00    -0.200 OA
BRANCH  15  18
HETATM   18  C8  UNL     1      27.752  -0.262  53.571  1.00  0.00     0.061 A 
HETATM   19  C9  UNL     1      28.957   0.080  53.984  1.00  0.00     0.021 A 
HETATM   20  C10 UNL     1      29.897  -1.016  53.699  1.00  0.00    -0.002 A 
HETATM   21  C11 UNL     1      29.196  -2.004  53.108  1.00  0.00    -0.021 A 
HETATM   22  C12 UNL     1      27.763  -1.639  52.961  1.00  0.00     0.079 A 
ENDBRANCH  15  18
ENDBRANCH   3  15
TORSDOF 5
ENDMDL
MODEL 5
REMARK VINA RESULT:      -7.3      1.343      1.775
REMARK  5 active torsions:
REMARK  status: ('A' for Active; 'I' for Inactive)
REMARK    1  A    between atoms: O1_2  and  C2_3 
REMARK    2  A    between atoms: C5_6  and  C6_7 
REMARK    3  A    between atoms: C6_7  and  C7_8 
REMARK       I    between atoms: C7_8  and  N1_10 
REMARK    4  A    between atoms: N1_10  and  S1_11 
REMARK    5  A    between atoms: S1_11  and  C8_14 
ROOT
HETATM    1  C7  UNL     1      24.716   2.010  51.921  1.00  0.00     0.235 C 
HETATM    2  O2  UNL     1      23.994   2.311  52.934  1.00  0.00    -0.272 OA
HETATM    3  N1  UNL     1      25.828   1.180  52.166  1.00  0.00    -0.250 N 
HETATM    4  H8  UNL     1      26.373   0.973  51.297  1.00  0.00     0.181 HD
ENDROOT
BRANCH   1   5
HETATM    5  C6  UNL     1      24.185   2.631  50.694  1.00  0.00     0.143 C 
BRANCH   5   6
HETATM    6  C5  UNL     1      25.159   3.624  50.106  1.00  0.00    -0.032 A 
HETATM    7  C4  UNL     1      26.344   3.348  49.474  1.00  0.00     0.012 A 
HETATM    8  C3  UNL     1      27.097   4.416  49.018  1.00  0.00     0.037 A 
HETATM    9  C2  UNL     1      26.734   5.748  49.159  1.00  0.00     0.069 A 
HETATM   10  C14 UNL     1      25.535   5.981  49.801  1.00  0.00     0.056 A 
HETATM   11  C13 UNL     1      24.730   4.945  50.283  1.00  0.00     0.020 A 
HETATM   12 BR1  UNL     1      23.142   5.580  51.111  1.00  0.00    -0.050 Br
BRANCH   9  13
HETATM   13  O1  UNL     1      27.566   6.727  48.665  1.00  0.00    -0.356 OA
HETATM   14  C1  UNL     1      27.212   7.552  47.581  1.00  0.00     0.210 C 
ENDBRANCH   9  13
ENDBRANCH   5   6
ENDBRANCH   1   5
BRANCH   3  15
HETATM   15  S1  UNL     1      26.268   0.569  53.694  1.00  0.00     0.261 S 
HETATM   16  O3  UNL     1      26.573   1.680  54.673  1.00  0.00    -0.200 OA
HETATM   17  O4  UNL     1      25.133  -0.248  54.233  1.00  0.00    -0.200 OA
BRANCH  15  18
HETATM   18  C8  UNL     1      27.730  -0.388  53.578  1.00  0.00     0.061 A 
HETATM   19  C9  UNL     1      28.952  -0.083  53.971  1.00  0.00     0.021 A 
HETATM   20  C10 UNL     1      29.854  -1.204  53.663  1.00  0.00    -0.002 A 
HETATM   21  C11 UNL     1      29.115  -2.168  53.078  1.00  0.00    -0.021 A 
HETATM   22  C12 UNL     1      27.691  -1.761  52.961  1.00  0.00     0.079 A 
ENDBRANCH  15  18
ENDBRANCH   3  15
TORSDOF 5
ENDMDL
MODEL 6
REMARK VINA RESULT:      -7.3      1.278      1.612
REMARK  5 active torsions:
REMARK  status: ('A' for Active; 'I' for Inactive)
REMARK    1  A    between atoms: O1_2  and  C2_3 
REMARK    2  A    between atoms: C5_6  and  C6_7 
REMARK    3  A    between atoms: C6_7  and  C7_8 
REMARK       I    between atoms: C7_8  and  N1_10 
REMARK    4  A    between atoms: N1_10  and  S1_11 
REMARK    5  A    between atoms: S1_11  and  C8_14 
ROOT
HETATM    1  C7  UNL     1      25.082   2.814  51.206  1.00  0.00     0.235 C 
HETATM    2  O2  UNL     1      24.448   3.432  52.130  1.00  0.00    -0.272 OA
HETATM    3  N1  UNL     1      25.971   1.802  51.621  1.00  0.00    -0.250 N 
HETATM    4  H8  UNL     1      26.454   1.338  50.817  1.00  0.00     0.181 HD
ENDROOT
BRANCH   1   5
HETATM    5  C6  UNL     1      24.710   3.332  49.877  1.00  0.00     0.143 C 
BRANCH   5   6
HETATM    6  C5  UNL     1      25.759   4.274  49.334  1.00  0.00    -0.032 A 
HETATM    7  C4  UNL     1      27.087   4.006  49.128  1.00  0.00     0.012 A 
HETATM    8  C3  UNL     1      27.882   5.023  48.630  1.00  0.00     0.037 A 
HETATM    9  C2  UNL     1      27.425   6.298  48.326  1.00  0.00     0.069 A 
HETATM   10  C14 UNL     1      26.083   6.524  48.548  1.00  0.00     0.056 A 
HETATM   11  C13 UNL     1      25.229   5.538  49.048  1.00  0.00     0.020 A 
HETATM   12 BR1  UNL     1      23.439   6.149  49.238  1.00  0.00    -0.050 Br
BRANCH   9  13
HETATM   13  O1  UNL     1      28.311   7.230  47.836  1.00  0.00    -0.356 OA
HETATM   14  C1  UNL     1      29.663   6.932  47.576  1.00  0.00     0.210 C 
ENDBRANCH   9  13
ENDBRANCH   5   6
ENDBRANCH   1   5
BRANCH   3  15
HETATM   15  S1  UNL     1      26.257   1.363  53.242  1.00  0.00     0.261 S 
HETATM   16  O3  UNL     1      26.531   2.571  54.108  1.00  0.00    -0.200 OA
HETATM   17  O4  UNL     1      25.046   0.656  53.771  1.00  0.00    -0.200 OA
BRANCH  15  18
HETATM   18  C8  UNL     1      27.679   0.348  53.365  1.00  0.00     0.061 A 
HETATM   19  C9  UNL     1      28.875   0.653  53.829  1.00  0.00     0.021 A 
HETATM   20  C10 UNL     1      29.749  -0.527  53.730  1.00  0.00    -0.002 A 
HETATM   21  C11 UNL     1      29.019  -1.525  53.193  1.00  0.00    -0.021 A 
HETATM   22  C12 UNL     1      27.630  -1.084  52.903  1.00  0.00     0.079 A 
ENDBRANCH  15  18
ENDBRANCH   3  15
TORSDOF 5
ENDMDL
MODEL 7
REMARK VINA RESULT:      -6.9      2.566      3.252
REMARK  5 active torsions:
REMARK  status: ('A' for Active; 'I' for Inactive)
REMARK    1  A    between atoms: O1_2  and  C2_3 
REMARK    2  A    between atoms: C5_6  and  C6_7 
REMARK    3  A    between atoms: C6_7  and  C7_8 
REMARK       I    between atoms: C7_8  and  N1_10 
REMARK    4  A    between atoms: N1_10  and  S1_11 
REMARK    5  A    between atoms: S1_11  and  C8_14 
ROOT
HETATM    1  C7  UNL     1      24.617   2.713  51.931  1.00  0.00     0.235 C 
HETATM    2  O2  UNL     1      24.426   3.064  53.147  1.00  0.00    -0.272 OA
HETATM    3  N1  UNL     1      25.215   1.453  51.727  1.00  0.00    -0.250 N 
HETATM    4  H8  UNL     1      25.341   1.229  50.713  1.00  0.00     0.181 HD
ENDROOT
BRANCH   1   5
HETATM    5  C6  UNL     1      24.144   3.755  51.003  1.00  0.00     0.143 C 
BRANCH   5   6
HETATM    6  C5  UNL     1      25.275   4.320  50.177  1.00  0.00    -0.032 A 
HETATM    7  C4  UNL     1      26.280   3.621  49.560  1.00  0.00     0.012 A 
HETATM    8  C3  UNL     1      27.231   4.340  48.858  1.00  0.00     0.037 A 
HETATM    9  C2  UNL     1      27.235   5.723  48.736  1.00  0.00     0.069 A 
HETATM   10  C14 UNL     1      26.206   6.386  49.371  1.00  0.00     0.056 A 
HETATM   11  C13 UNL     1      25.216   5.716  50.095  1.00  0.00     0.020 A 
HETATM   12 BR1  UNL     1      23.933   6.899  50.846  1.00  0.00    -0.050 Br
BRANCH   9  13
HETATM   13  O1  UNL     1      28.236   6.330  48.011  1.00  0.00    -0.356 OA
HETATM   14  C1  UNL     1      29.577   5.905  48.061  1.00  0.00     0.210 C 
ENDBRANCH   9  13
ENDBRANCH   5   6
ENDBRANCH   1   5
BRANCH   3  15
HETATM   15  S1  UNL     1      25.698   0.392  52.970  1.00  0.00     0.261 S 
HETATM   16  O3  UNL     1      26.497  -0.772  52.431  1.00  0.00    -0.200 OA
HETATM   17  O4  UNL     1      26.548   1.148  53.946  1.00  0.00    -0.200 OA
BRANCH  15  18
HETATM   18  C8  UNL     1      24.301  -0.305  53.763  1.00  0.00     0.061 A 
HETATM   19  C9  UNL     1      24.238  -0.949  54.912  1.00  0.00     0.021 A 
HETATM   20  C10 UNL     1      22.846  -1.350  55.167  1.00  0.00    -0.002 A 
HETATM   21  C11 UNL     1      22.104  -0.918  54.128  1.00  0.00    -0.021 A 
HETATM   22  C12 UNL     1      22.941  -0.208  53.125  1.00  0.00     0.079 A 
ENDBRANCH  15  18
ENDBRANCH   3  15
TORSDOF 5
ENDMDL
MODEL 8
REMARK VINA RESULT:      -6.7      3.589      4.820
REMARK  5 active torsions:
REMARK  status: ('A' for Active; 'I' for Inactive)
REMARK    1  A    between atoms: O1_2  and  C2_3 
REMARK    2  A    between atoms: C5_6  and  C6_7 
REMARK    3  A    between atoms: C6_7  and  C7_8 
REMARK       I    between atoms: C7_8  and  N1_10 
REMARK    4  A    between atoms: N1_10  and  S1_11 
REMARK    5  A    between atoms: S1_11  and  C8_14 
ROOT
HETATM    1  C7  UNL     1      25.724   2.119  52.347  1.00  0.00     0.235 C 
HETATM    2  O2  UNL     1      25.210   2.673  53.379  1.00  0.00    -0.272 OA
HETATM    3  N1  UNL     1      26.128   0.776  52.489  1.00  0.00    -0.250 N 
HETATM    4  H8  UNL     1      26.538   0.385  51.609  1.00  0.00     0.181 HD
ENDROOT
BRANCH   1   5
HETATM    5  C6  UNL     1      25.770   3.060  51.213  1.00  0.00     0.143 C 
BRANCH   5   6
HETATM    6  C5  UNL     1      24.492   3.025  50.409  1.00  0.00    -0.032 A 
HETATM    7  C4  UNL     1      23.465   2.124  50.524  1.00  0.00     0.012 A 
HETATM    8  C3  UNL     1      22.383   2.266  49.674  1.00  0.00     0.037 A 
HETATM    9  C2  UNL     1      22.267   3.260  48.712  1.00  0.00     0.069 A 
HETATM   10  C14 UNL     1      23.322   4.145  48.631  1.00  0.00     0.056 A 
HETATM   11  C13 UNL     1      24.442   4.054  49.462  1.00  0.00     0.020 A 
HETATM   12 BR1  UNL     1      25.720   5.417  49.116  1.00  0.00    -0.050 Br
BRANCH   9  13
HETATM   13  O1  UNL     1      21.141   3.301  47.921  1.00  0.00    -0.356 OA
HETATM   14  C1  UNL     1      21.180   3.651  46.558  1.00  0.00     0.210 C 
ENDBRANCH   9  13
ENDBRANCH   5   6
ENDBRANCH   1   5
BRANCH   3  15
HETATM   15  S1  UNL     1      25.984  -0.137  53.921  1.00  0.00     0.261 S 
HETATM   16  O3  UNL     1      26.758  -1.432  53.836  1.00  0.00    -0.200 OA
HETATM   17  O4  UNL     1      26.521   0.671  55.063  1.00  0.00    -0.200 OA
BRANCH  15  18
HETATM   18  C8  UNL     1      24.315  -0.587  54.201  1.00  0.00     0.061 A 
HETATM   19  C9  UNL     1      23.782  -1.167  55.258  1.00  0.00     0.021 A 
HETATM   20  C10 UNL     1      22.338  -1.348  55.035  1.00  0.00    -0.002 A 
HETATM   21  C11 UNL     1      22.054  -0.853  53.813  1.00  0.00    -0.021 A 
HETATM   22  C12 UNL     1      23.271  -0.316  53.151  1.00  0.00     0.079 A 
ENDBRANCH  15  18
ENDBRANCH   3  15
TORSDOF 5
ENDMDL
MODEL 9
REMARK VINA RESULT:      -6.6      5.355      8.030
REMARK  5 active torsions:
REMARK  status: ('A' for Active; 'I' for Inactive)
REMARK    1  A    between atoms: O1_2  and  C2_3 
REMARK    2  A    between atoms: C5_6  and  C6_7 
REMARK    3  A    between atoms: C6_7  and  C7_8 
REMARK       I    between atoms: C7_8  and  N1_10 
REMARK    4  A    between atoms: N1_10  and  S1_11 
REMARK    5  A    between atoms: S1_11  and  C8_14 
ROOT
HETATM    1  C7  UNL     1      22.091   2.518  51.503  1.00  0.00     0.235 C 
HETATM    2  O2  UNL     1      22.015   1.672  50.545  1.00  0.00    -0.272 OA
HETATM    3  N1  UNL     1      20.870   2.982  52.031  1.00  0.00    -0.250 N 
HETATM    4  H8  UNL     1      21.004   3.668  52.809  1.00  0.00     0.181 HD
ENDROOT
BRANCH   1   5
HETATM    5  C6  UNL     1      23.497   2.811  51.834  1.00  0.00     0.143 C 
BRANCH   5   6
HETATM    6  C5  UNL     1      24.220   1.582  52.331  1.00  0.00    -0.032 A 
HETATM    7  C4  UNL     1      23.718   0.596  53.141  1.00  0.00     0.012 A 
HETATM    8  C3  UNL     1      24.560  -0.444  53.490  1.00  0.00     0.037 A 
HETATM    9  C2  UNL     1      25.880  -0.558  53.075  1.00  0.00     0.069 A 
HETATM   10  C14 UNL     1      26.344   0.455  52.262  1.00  0.00     0.056 A 
HETATM   11  C13 UNL     1      25.542   1.532  51.874  1.00  0.00     0.020 A 
HETATM   12 BR1  UNL     1      26.460   2.757  50.749  1.00  0.00    -0.050 Br
BRANCH   9  13
HETATM   13  O1  UNL     1      26.623  -1.640  53.489  1.00  0.00    -0.356 OA
HETATM   14  C1  UNL     1      27.396  -2.416  52.604  1.00  0.00     0.210 C 
ENDBRANCH   9  13
ENDBRANCH   5   6
ENDBRANCH   1   5
BRANCH   3  15
HETATM   15  S1  UNL     1      19.328   2.505  51.483  1.00  0.00     0.261 S 
HETATM   16  O3  UNL     1      18.247   3.437  51.978  1.00  0.00    -0.200 OA
HETATM   17  O4  UNL     1      19.325   2.517  49.984  1.00  0.00    -0.200 OA
BRANCH  15  18
HETATM   18  C8  UNL     1      18.919   0.918  52.098  1.00  0.00     0.061 A 
HETATM   19  C9  UNL     1      17.852   0.184  51.849  1.00  0.00     0.021 A 
HETATM   20  C10 UNL     1      17.947  -1.080  52.596  1.00  0.00    -0.002 A 
HETATM   21  C11 UNL     1      19.105  -1.055  53.286  1.00  0.00    -0.021 A 
HETATM   22  C12 UNL     1      19.848   0.210  53.048  1.00  0.00     0.079 A 
ENDBRANCH  15  18
ENDBRANCH   3  15
TORSDOF 5
ENDMDL
