MODEL 1
REMARK VINA RESULT:      -8.4      0.000      0.000
REMARK  5 active torsions:
REMARK  status: ('A' for Active; 'I' for Inactive)
REMARK    1  A    between atoms: O1_2  and  C2_3 
REMARK    2  A    between atoms: C2_3  and  C3_4 
REMARK    3  A    between atoms: C3_4  and  O2_5 
REMARK    4  A    between atoms: C12_18  and  N3_19 
REMARK    5  A    between atoms: N3_19  and  C13_20 
ROOT
HETATM    1  O2  UNL     1      21.248   0.719  52.947  1.00  0.00     0.000 OA
HETATM    2  C4  UNL     1      21.897   1.477  51.967  1.00  0.00     0.036 A 
HETATM    3  C5  UNL     1      20.632   1.377  51.820  1.00  0.00     0.166 A 
HETATM    4  O3  UNL     1      20.092   2.048  50.688  1.00  0.00    -0.380 OA
HETATM    5  C6  UNL     1      20.030   1.360  49.458  1.00  0.00     0.194 C 
HETATM    6  C7  UNL     1      20.553   2.115  48.271  1.00  0.00     0.194 C 
HETATM    7  O4  UNL     1      21.865   2.478  48.393  1.00  0.00    -0.385 OA
HETATM    8  C8  UNL     1      22.210   3.399  49.326  1.00  0.00     0.197 C 
HETATM    9  C9  UNL     1      23.694   3.495  49.517  1.00  0.00     0.032 C 
HETATM   10  C10 UNL     1      24.413   2.917  50.494  1.00  0.00     0.070 A 
HETATM   11  N1  UNL     1      25.670   3.303  50.229  1.00  0.00    -0.241 NA
HETATM   12  C11 UNL     1      26.781   3.010  50.897  1.00  0.00     0.235 A 
HETATM   13  N2  UNL     1      26.641   2.234  51.972  1.00  0.00    -0.224 NA
HETATM   14  C12 UNL     1      25.387   1.836  52.258  1.00  0.00     0.141 A 
HETATM   15  C20 UNL     1      24.194   2.132  51.565  1.00  0.00     0.036 A 
HETATM   16  C21 UNL     1      23.290   1.474  52.294  1.00  0.00     0.006 C 
ENDROOT
BRANCH  14  17
HETATM   17  N3  UNL     1      25.590   1.037  53.457  1.00  0.00    -0.340 N 
HETATM   18  H17 UNL     1      25.199   1.152  54.416  1.00  0.00     0.167 HD
BRANCH  17  19
HETATM   19  C13 UNL     1      26.481  -0.072  53.220  1.00  0.00     0.034 A 
HETATM   20  C14 UNL     1      26.060  -1.242  52.629  1.00  0.00     0.029 A 
HETATM   21  C15 UNL     1      26.944  -2.299  52.408  1.00  0.00     0.003 A 
HETATM   22  C16 UNL     1      28.268  -2.212  52.771  1.00  0.00     0.007 A 
HETATM   23  C17 UNL     1      28.690  -1.040  53.362  1.00  0.00    -0.060 A 
HETATM   24  C18 UNL     1      30.107  -0.835  53.789  1.00  0.00     0.048 C 
HETATM   25  C19 UNL     1      27.815   0.007  53.581  1.00  0.00     0.036 A 
ENDBRANCH  17  19
ENDBRANCH  14  17
BRANCH   1  26
HETATM   26  C3  UNL     1      21.588  -0.536  53.427  1.00  0.00     0.028 C 
BRANCH  26  27
HETATM   27  C2  UNL     1      21.625  -0.590  54.947  1.00  0.00     0.167 C 
BRANCH  27  28
HETATM   28  O1  UNL     1      22.286  -1.717  55.430  1.00  0.00    -0.396 OA
HETATM   29  C1  UNL     1      23.643  -1.353  55.593  1.00  0.00     0.201 C 
ENDBRANCH  27  28
ENDBRANCH  26  27
ENDBRANCH   1  26
TORSDOF 5
ENDMDL
MODEL 2
REMARK VINA RESULT:      -8.2      1.791      4.398
REMARK  5 active torsions:
REMARK  status: ('A' for Active; 'I' for Inactive)
REMARK    1  A    between atoms: O1_2  and  C2_3 
REMARK    2  A    between atoms: C2_3  and  C3_4 
REMARK    3  A    between atoms: C3_4  and  O2_5 
REMARK    4  A    between atoms: C12_18  and  N3_19 
REMARK    5  A    between atoms: N3_19  and  C13_20 
ROOT
HETATM    1  O2  UNL     1      23.938   2.652  50.410  1.00  0.00     0.000 OA
HETATM    2  C4  UNL     1      23.093   1.825  51.157  1.00  0.00     0.036 A 
HETATM    3  C5  UNL     1      22.535   2.415  50.172  1.00  0.00     0.166 A 
HETATM    4  O3  UNL     1      21.150   2.138  49.997  1.00  0.00    -0.380 OA
HETATM    5  C6  UNL     1      20.208   2.937  50.678  1.00  0.00     0.194 C 
HETATM    6  C7  UNL     1      19.133   2.187  51.408  1.00  0.00     0.194 C 
HETATM    7  O4  UNL     1      19.617   1.340  52.365  1.00  0.00    -0.385 OA
HETATM    8  C8  UNL     1      20.334   0.254  51.984  1.00  0.00     0.197 C 
HETATM    9  C9  UNL     1      21.012  -0.421  53.139  1.00  0.00     0.032 C 
HETATM   10  C10 UNL     1      22.297  -0.280  53.505  1.00  0.00     0.070 A 
HETATM   11  N1  UNL     1      22.409  -1.080  54.575  1.00  0.00    -0.241 NA
HETATM   12  C11 UNL     1      23.483  -1.313  55.323  1.00  0.00     0.235 A 
HETATM   13  N2  UNL     1      24.599  -0.674  54.974  1.00  0.00    -0.224 NA
HETATM   14  C12 UNL     1      24.511   0.134  53.900  1.00  0.00     0.141 A 
HETATM   15  C20 UNL     1      23.384   0.398  53.093  1.00  0.00     0.036 A 
HETATM   16  C21 UNL     1      23.886   1.259  52.206  1.00  0.00     0.006 C 
ENDROOT
BRANCH  14  17
HETATM   17  N3  UNL     1      25.869   0.649  53.798  1.00  0.00    -0.340 N 
HETATM   18  H17 UNL     1      26.231   1.617  53.926  1.00  0.00     0.167 HD
BRANCH  17  19
HETATM   19  C13 UNL     1      26.813  -0.389  53.464  1.00  0.00     0.034 A 
HETATM   20  C14 UNL     1      26.447  -1.528  52.785  1.00  0.00     0.029 A 
HETATM   21  C15 UNL     1      27.382  -2.516  52.473  1.00  0.00     0.003 A 
HETATM   22  C16 UNL     1      28.704  -2.388  52.831  1.00  0.00     0.007 A 
HETATM   23  C17 UNL     1      29.071  -1.246  53.511  1.00  0.00    -0.060 A 
HETATM   24  C18 UNL     1      30.481  -1.001  53.942  1.00  0.00     0.048 C 
HETATM   25  C19 UNL     1      28.145  -0.267  53.821  1.00  0.00     0.036 A 
ENDBRANCH  17  19
ENDBRANCH  14  17
BRANCH   1  26
HETATM   26  C3  UNL     1      24.820   3.617  50.868  1.00  0.00     0.028 C 
BRANCH  26  27
HETATM   27  C2  UNL     1      26.275   3.233  50.642  1.00  0.00     0.167 C 
BRANCH  27  28
HETATM   28  O1  UNL     1      26.644   3.285  49.299  1.00  0.00    -0.396 OA
HETATM   29  C1  UNL     1      26.982   4.630  49.023  1.00  0.00     0.201 C 
ENDBRANCH  27  28
ENDBRANCH  26  27
ENDBRANCH   1  26
TORSDOF 5
ENDMDL
MODEL 3
REMARK VINA RESULT:      -8.1      3.037      7.838
REMARK  5 active torsions:
REMARK  status: ('A' for Active; 'I' for Inactive)
REMARK    1  A    between atoms: O1_2  and  C2_3 
REMARK    2  A    between atoms: C2_3  and  C3_4 
REMARK    3  A    between atoms: C3_4  and  O2_5 
REMARK    4  A    between atoms: C12_18  and  N3_19 
REMARK    5  A    between atoms: N3_19  and  C13_20 
ROOT
HETATM    1  O2  UNL     1      26.570   2.905  51.351  1.00  0.00     0.000 OA
HETATM    2  C4  UNL     1      26.255   1.953  52.326  1.00  0.00     0.036 A 
HETATM    3  C5  UNL     1      27.417   2.473  52.436  1.00  0.00     0.166 A 
HETATM    4  O3  UNL     1      28.199   1.999  53.525  1.00  0.00    -0.380 OA
HETATM    5  C6  UNL     1      29.008   0.860  53.334  1.00  0.00     0.194 C 
HETATM    6  C7  UNL     1      28.896  -0.196  54.395  1.00  0.00     0.194 C 
HETATM    7  O4  UNL     1      27.631  -0.695  54.533  1.00  0.00    -0.385 OA
HETATM    8  C8  UNL     1      26.653   0.111  55.012  1.00  0.00     0.197 C 
HETATM    9  C9  UNL     1      25.287  -0.488  54.858  1.00  0.00     0.032 C 
HETATM   10  C10 UNL     1      24.398  -0.211  53.889  1.00  0.00     0.070 A 
HETATM   11  N1  UNL     1      23.351  -0.992  54.192  1.00  0.00    -0.241 NA
HETATM   12  C11 UNL     1      22.191  -1.103  53.551  1.00  0.00     0.235 A 
HETATM   13  N2  UNL     1      22.038  -0.345  52.465  1.00  0.00    -0.224 NA
HETATM   14  C12 UNL     1      23.078   0.448  52.142  1.00  0.00     0.141 A 
HETATM   15  C20 UNL     1      24.316   0.582  52.805  1.00  0.00     0.036 A 
HETATM   16  C21 UNL     1      24.932   1.488  52.042  1.00  0.00     0.006 C 
ENDROOT
BRANCH  14  17
HETATM   17  N3  UNL     1      22.585   1.121  50.949  1.00  0.00    -0.340 N 
HETATM   18  H17 UNL     1      23.050   1.288  50.032  1.00  0.00     0.167 HD
BRANCH  17  19
HETATM   19  C13 UNL     1      21.240   1.611  51.125  1.00  0.00     0.034 A 
HETATM   20  C14 UNL     1      20.959   2.748  51.847  1.00  0.00     0.029 A 
HETATM   21  C15 UNL     1      19.647   3.201  52.000  1.00  0.00     0.003 A 
HETATM   22  C16 UNL     1      18.588   2.530  51.434  1.00  0.00     0.007 A 
HETATM   23  C17 UNL     1      18.870   1.391  50.710  1.00  0.00    -0.060 A 
HETATM   24  C18 UNL     1      17.798   0.589  50.048  1.00  0.00     0.048 C 
HETATM   25  C19 UNL     1      20.168   0.941  50.559  1.00  0.00     0.036 A 
ENDBRANCH  17  19
ENDBRANCH  14  17
BRANCH   1  26
HETATM   26  C3  UNL     1      26.419   2.808  49.976  1.00  0.00     0.028 C 
BRANCH  26  27
HETATM   27  C2  UNL     1      26.513   4.158  49.282  1.00  0.00     0.167 C 
BRANCH  27  28
HETATM   28  O1  UNL     1      27.793   4.429  48.801  1.00  0.00    -0.396 OA
HETATM   29  C1  UNL     1      27.793   5.781  48.386  1.00  0.00     0.201 C 
ENDBRANCH  27  28
ENDBRANCH  26  27
ENDBRANCH   1  26
TORSDOF 5
ENDMDL
MODEL 4
REMARK VINA RESULT:      -8.0      3.157      7.530
REMARK  5 active torsions:
REMARK  status: ('A' for Active; 'I' for Inactive)
REMARK    1  A    between atoms: O1_2  and  C2_3 
REMARK    2  A    between atoms: C2_3  and  C3_4 
REMARK    3  A    between atoms: C3_4  and  O2_5 
REMARK    4  A    between atoms: C12_18  and  N3_19 
REMARK    5  A    between atoms: N3_19  and  C13_20 
ROOT
HETATM    1  O2  UNL     1      26.868   2.929  51.292  1.00  0.00     0.000 OA
HETATM    2  C4  UNL     1      26.444   1.991  52.240  1.00  0.00     0.036 A 
HETATM    3  C5  UNL     1      27.630   2.431  52.412  1.00  0.00     0.166 A 
HETATM    4  O3  UNL     1      28.325   1.897  53.532  1.00  0.00    -0.380 OA
HETATM    5  C6  UNL     1      29.066   0.708  53.367  1.00  0.00     0.194 C 
HETATM    6  C7  UNL     1      28.832  -0.347  54.408  1.00  0.00     0.194 C 
HETATM    7  O4  UNL     1      27.532  -0.762  54.478  1.00  0.00    -0.385 OA
HETATM    8  C8  UNL     1      26.587   0.103  54.919  1.00  0.00     0.197 C 
HETATM    9  C9  UNL     1      25.193  -0.403  54.692  1.00  0.00     0.032 C 
HETATM   10  C10 UNL     1      24.373  -0.059  53.684  1.00  0.00     0.070 A 
HETATM   11  N1  UNL     1      23.263  -0.771  53.926  1.00  0.00    -0.241 NA
HETATM   12  C11 UNL     1      22.132  -0.799  53.228  1.00  0.00     0.235 A 
HETATM   13  N2  UNL     1      22.083  -0.023  52.145  1.00  0.00    -0.224 NA
HETATM   14  C12 UNL     1      23.187   0.703  51.883  1.00  0.00     0.141 A 
HETATM   15  C20 UNL     1      24.397   0.748  52.607  1.00  0.00     0.036 A 
HETATM   16  C21 UNL     1      25.108   1.618  51.886  1.00  0.00     0.006 C 
ENDROOT
BRANCH  14  17
HETATM   17  N3  UNL     1      22.799   1.417  50.676  1.00  0.00    -0.340 N 
HETATM   18  H17 UNL     1      22.804   1.108  49.682  1.00  0.00     0.167 HD
BRANCH  17  19
HETATM   19  C13 UNL     1      22.345   2.756  50.966  1.00  0.00     0.034 A 
HETATM   20  C14 UNL     1      21.046   3.031  51.325  1.00  0.00     0.029 A 
HETATM   21  C15 UNL     1      20.634   4.336  51.602  1.00  0.00     0.003 A 
HETATM   22  C16 UNL     1      21.510   5.393  51.529  1.00  0.00     0.007 A 
HETATM   23  C17 UNL     1      22.813   5.117  51.170  1.00  0.00    -0.060 A 
HETATM   24  C18 UNL     1      23.849   6.188  51.065  1.00  0.00     0.048 C 
HETATM   25  C19 UNL     1      23.221   3.825  50.894  1.00  0.00     0.036 A 
ENDBRANCH  17  19
ENDBRANCH  14  17
BRANCH   1  26
HETATM   26  C3  UNL     1      26.779   2.854  49.911  1.00  0.00     0.028 C 
BRANCH  26  27
HETATM   27  C2  UNL     1      26.765   4.225  49.252  1.00  0.00     0.167 C 
BRANCH  27  28
HETATM   28  O1  UNL     1      27.979   4.546  48.648  1.00  0.00    -0.396 OA
HETATM   29  C1  UNL     1      27.929   5.926  48.344  1.00  0.00     0.201 C 
ENDBRANCH  27  28
ENDBRANCH  26  27
ENDBRANCH   1  26
TORSDOF 5
ENDMDL
MODEL 5
REMARK VINA RESULT:      -7.9      1.637      2.039
REMARK  5 active torsions:
REMARK  status: ('A' for Active; 'I' for Inactive)
REMARK    1  A    between atoms: O1_2  and  C2_3 
REMARK    2  A    between atoms: C2_3  and  C3_4 
REMARK    3  A    between atoms: C3_4  and  O2_5 
REMARK    4  A    between atoms: C12_18  and  N3_19 
REMARK    5  A    between atoms: N3_19  and  C13_20 
ROOT
HETATM    1  O2  UNL     1      21.348   1.207  53.146  1.00  0.00     0.000 OA
HETATM    2  C4  UNL     1      21.815   2.292  52.399  1.00  0.00     0.036 A 
HETATM    3  C5  UNL     1      20.597   2.381  52.772  1.00  0.00     0.166 A 
HETATM    4  O3  UNL     1      19.916   3.562  52.366  1.00  0.00    -0.380 OA
HETATM    5  C6  UNL     1      19.265   3.573  51.116  1.00  0.00     0.194 C 
HETATM    6  C7  UNL     1      19.548   4.767  50.252  1.00  0.00     0.194 C 
HETATM    7  O4  UNL     1      20.872   4.916  49.948  1.00  0.00    -0.385 OA
HETATM    8  C8  UNL     1      21.744   5.229  50.937  1.00  0.00     0.197 C 
HETATM    9  C9  UNL     1      23.174   5.099  50.505  1.00  0.00     0.032 C 
HETATM   10  C10 UNL     1      23.991   4.059  50.750  1.00  0.00     0.070 A 
HETATM   11  N1  UNL     1      25.143   4.421  50.166  1.00  0.00    -0.241 NA
HETATM   12  C11 UNL     1      26.288   3.749  50.114  1.00  0.00     0.235 A 
HETATM   13  N2  UNL     1      26.308   2.561  50.717  1.00  0.00    -0.224 NA
HETATM   14  C12 UNL     1      25.161   2.177  51.311  1.00  0.00     0.141 A 
HETATM   15  C20 UNL     1      23.935   2.871  51.378  1.00  0.00     0.036 A 
HETATM   16  C21 UNL     1      23.182   2.016  52.073  1.00  0.00     0.006 C 
ENDROOT
BRANCH  14  17
HETATM   17  N3  UNL     1      25.526   0.879  51.859  1.00  0.00    -0.340 N 
HETATM   18  H17 UNL     1      25.042  -0.041  51.785  1.00  0.00     0.167 HD
BRANCH  17  19
HETATM   19  C13 UNL     1      26.756   0.938  52.610  1.00  0.00     0.034 A 
HETATM   20  C14 UNL     1      27.171   2.082  53.252  1.00  0.00     0.029 A 
HETATM   21  C15 UNL     1      28.366   2.111  53.975  1.00  0.00     0.003 A 
HETATM   22  C16 UNL     1      29.169   1.000  54.074  1.00  0.00     0.007 A 
HETATM   23  C17 UNL     1      28.751  -0.146  53.431  1.00  0.00    -0.060 A 
HETATM   24  C18 UNL     1      29.543  -1.413  53.478  1.00  0.00     0.048 C 
HETATM   25  C19 UNL     1      27.570  -0.176  52.715  1.00  0.00     0.036 A 
ENDBRANCH  17  19
ENDBRANCH  14  17
BRANCH   1  26
HETATM   26  C3  UNL     1      21.473  -0.145  52.868  1.00  0.00     0.028 C 
BRANCH  26  27
HETATM   27  C2  UNL     1      21.918  -0.952  54.079  1.00  0.00     0.167 C 
BRANCH  27  28
HETATM   28  O1  UNL     1      23.269  -0.781  54.374  1.00  0.00    -0.396 OA
HETATM   29  C1  UNL     1      23.496  -1.416  55.617  1.00  0.00     0.201 C 
ENDBRANCH  27  28
ENDBRANCH  26  27
ENDBRANCH   1  26
TORSDOF 5
ENDMDL
MODEL 6
REMARK VINA RESULT:      -7.7      2.620      5.830
REMARK  5 active torsions:
REMARK  status: ('A' for Active; 'I' for Inactive)
REMARK    1  A    between atoms: O1_2  and  C2_3 
REMARK    2  A    between atoms: C2_3  and  C3_4 
REMARK    3  A    between atoms: C3_4  and  O2_5 
REMARK    4  A    between atoms: C12_18  and  N3_19 
REMARK    5  A    between atoms: N3_19  and  C13_20 
ROOT
HETATM    1  O2  UNL     1      25.148   0.392  53.104  1.00  0.00     0.000 OA
HETATM    2  C4  UNL     1      23.826   0.771  52.853  1.00  0.00     0.036 A 
HETATM    3  C5  UNL     1      23.979  -0.030  53.836  1.00  0.00     0.166 A 
HETATM    4  O3  UNL     1      22.784  -0.406  54.511  1.00  0.00    -0.380 OA
HETATM    5  C6  UNL     1      22.066  -1.526  54.044  1.00  0.00     0.194 C 
HETATM    6  C7  UNL     1      20.589  -1.318  53.871  1.00  0.00     0.194 C 
HETATM    7  O4  UNL     1      20.281  -0.322  52.988  1.00  0.00    -0.385 OA
HETATM    8  C8  UNL     1      20.582   0.960  53.308  1.00  0.00     0.197 C 
HETATM    9  C9  UNL     1      20.428   1.895  52.146  1.00  0.00     0.032 C 
HETATM   10  C10 UNL     1      21.412   2.352  51.353  1.00  0.00     0.070 A 
HETATM   11  N1  UNL     1      20.770   3.143  50.480  1.00  0.00    -0.241 NA
HETATM   12  C11 UNL     1      21.281   3.849  49.477  1.00  0.00     0.235 A 
HETATM   13  N2  UNL     1      22.600   3.770  49.305  1.00  0.00    -0.224 NA
HETATM   14  C12 UNL     1      23.266   2.982  50.171  1.00  0.00     0.141 A 
HETATM   15  C20 UNL     1      22.747   2.223  51.242  1.00  0.00     0.036 A 
HETATM   16  C21 UNL     1      23.853   1.657  51.729  1.00  0.00     0.006 C 
ENDROOT
BRANCH  14  17
HETATM   17  N3  UNL     1      24.640   3.127  49.715  1.00  0.00    -0.340 N 
HETATM   18  H17 UNL     1      25.309   2.411  49.361  1.00  0.00     0.167 HD
BRANCH  17  19
HETATM   19  C13 UNL     1      25.090   4.496  49.789  1.00  0.00     0.034 A 
HETATM   20  C14 UNL     1      24.526   5.411  50.648  1.00  0.00     0.029 A 
HETATM   21  C15 UNL     1      24.982   6.729  50.700  1.00  0.00     0.003 A 
HETATM   22  C16 UNL     1      26.012   7.162  49.898  1.00  0.00     0.007 A 
HETATM   23  C17 UNL     1      26.577   6.244  49.038  1.00  0.00    -0.060 A 
HETATM   24  C18 UNL     1      27.705   6.605  48.127  1.00  0.00     0.048 C 
HETATM   25  C19 UNL     1      26.126   4.939  48.985  1.00  0.00     0.036 A 
ENDBRANCH  17  19
ENDBRANCH  14  17
BRANCH   1  26
HETATM   26  C3  UNL     1      26.096  -0.065  52.202  1.00  0.00     0.028 C 
BRANCH  26  27
HETATM   27  C2  UNL     1      27.493  -0.122  52.801  1.00  0.00     0.167 C 
BRANCH  27  28
HETATM   28  O1  UNL     1      27.514  -0.703  54.067  1.00  0.00    -0.396 OA
HETATM   29  C1  UNL     1      28.280   0.150  54.894  1.00  0.00     0.201 C 
ENDBRANCH  27  28
ENDBRANCH  26  27
ENDBRANCH   1  26
TORSDOF 5
ENDMDL
MODEL 7
REMARK VINA RESULT:      -7.7      1.948      4.358
REMARK  5 active torsions:
REMARK  status: ('A' for Active; 'I' for Inactive)
REMARK    1  A    between atoms: O1_2  and  C2_3 
REMARK    2  A    between atoms: C2_3  and  C3_4 
REMARK    3  A    between atoms: C3_4  and  O2_5 
REMARK    4  A    between atoms: C12_18  and  N3_19 
REMARK    5  A    between atoms: N3_19  and  C13_20 
ROOT
HETATM    1  O2  UNL     1      22.367   1.316  50.351  1.00  0.00     0.000 OA
HETATM    2  C4  UNL     1      21.908   0.541  51.421  1.00  0.00     0.036 A 
HETATM    3  C5  UNL     1      21.034   0.792  50.524  1.00  0.00     0.166 A 
HETATM    4  O3  UNL     1      19.741   0.247  50.761  1.00  0.00    -0.380 OA
HETATM    5  C6  UNL     1      18.814   1.001  51.510  1.00  0.00     0.194 C 
HETATM    6  C7  UNL     1      18.116   0.256  52.609  1.00  0.00     0.194 C 
HETATM    7  O4  UNL     1      18.970  -0.260  53.543  1.00  0.00    -0.385 OA
HETATM    8  C8  UNL     1      19.810  -1.262  53.186  1.00  0.00     0.197 C 
HETATM    9  C9  UNL     1      20.853  -1.537  54.228  1.00  0.00     0.032 C 
HETATM   10  C10 UNL     1      22.123  -1.096  54.222  1.00  0.00     0.070 A 
HETATM   11  N1  UNL     1      22.637  -1.607  55.351  1.00  0.00    -0.241 NA
HETATM   12  C11 UNL     1      23.871  -1.479  55.828  1.00  0.00     0.235 A 
HETATM   13  N2  UNL     1      24.716  -0.750  55.099  1.00  0.00    -0.224 NA
HETATM   14  C12 UNL     1      24.221  -0.227  53.961  1.00  0.00     0.141 A 
HETATM   15  C20 UNL     1      22.918  -0.349  53.435  1.00  0.00     0.036 A 
HETATM   16  C21 UNL     1      23.013   0.368  52.314  1.00  0.00     0.006 C 
ENDROOT
BRANCH  14  17
HETATM   17  N3  UNL     1      25.377   0.480  53.427  1.00  0.00    -0.340 N 
HETATM   18  H17 UNL     1      25.491   1.484  53.173  1.00  0.00     0.167 HD
BRANCH  17  19
HETATM   19  C13 UNL     1      26.506  -0.397  53.243  1.00  0.00     0.034 A 
HETATM   20  C14 UNL     1      26.374  -1.675  52.750  1.00  0.00     0.029 A 
HETATM   21  C15 UNL     1      27.485  -2.503  52.580  1.00  0.00     0.003 A 
HETATM   22  C16 UNL     1      28.752  -2.073  52.896  1.00  0.00     0.007 A 
HETATM   23  C17 UNL     1      28.885  -0.792  53.389  1.00  0.00    -0.060 A 
HETATM   24  C18 UNL     1      30.215  -0.220  53.759  1.00  0.00     0.048 C 
HETATM   25  C19 UNL     1      27.785   0.028  53.559  1.00  0.00     0.036 A 
ENDBRANCH  17  19
ENDBRANCH  14  17
BRANCH   1  26
HETATM   26  C3  UNL     1      23.090   2.497  50.394  1.00  0.00     0.028 C 
BRANCH  26  27
HETATM   27  C2  UNL     1      22.265   3.671  50.900  1.00  0.00     0.167 C 
BRANCH  27  28
HETATM   28  O1  UNL     1      22.490   3.947  52.247  1.00  0.00    -0.396 OA
HETATM   29  C1  UNL     1      23.421   5.010  52.293  1.00  0.00     0.201 C 
ENDBRANCH  27  28
ENDBRANCH  26  27
ENDBRANCH   1  26
TORSDOF 5
ENDMDL
MODEL 8
REMARK VINA RESULT:      -7.6      2.571      6.574
REMARK  5 active torsions:
REMARK  status: ('A' for Active; 'I' for Inactive)
REMARK    1  A    between atoms: O1_2  and  C2_3 
REMARK    2  A    between atoms: C2_3  and  C3_4 
REMARK    3  A    between atoms: C3_4  and  O2_5 
REMARK    4  A    between atoms: C12_18  and  N3_19 
REMARK    5  A    between atoms: N3_19  and  C13_20 
ROOT
HETATM    1  O2  UNL     1      23.499  -0.860  53.676  1.00  0.00     0.000 OA
HETATM    2  C4  UNL     1      24.161   0.191  53.031  1.00  0.00     0.036 A 
HETATM    3  C5  UNL     1      24.897  -0.811  53.322  1.00  0.00     0.166 A 
HETATM    4  O3  UNL     1      26.265  -0.695  52.948  1.00  0.00    -0.380 OA
HETATM    5  C6  UNL     1      27.167  -0.097  53.851  1.00  0.00     0.194 C 
HETATM    6  C7  UNL     1      28.064   0.953  53.266  1.00  0.00     0.194 C 
HETATM    7  O4  UNL     1      27.384   2.004  52.717  1.00  0.00    -0.385 OA
HETATM    8  C8  UNL     1      26.640   1.798  51.603  1.00  0.00     0.197 C 
HETATM    9  C9  UNL     1      25.755   2.964  51.278  1.00  0.00     0.032 C 
HETATM   10  C10 UNL     1      24.448   3.080  51.567  1.00  0.00     0.070 A 
HETATM   11  N1  UNL     1      24.124   4.285  51.075  1.00  0.00    -0.241 NA
HETATM   12  C11 UNL     1      22.941   4.892  51.091  1.00  0.00     0.235 A 
HETATM   13  N2  UNL     1      21.940   4.227  51.668  1.00  0.00    -0.224 NA
HETATM   14  C12 UNL     1      22.243   3.014  52.169  1.00  0.00     0.141 A 
HETATM   15  C20 UNL     1      23.488   2.350  52.164  1.00  0.00     0.036 A 
HETATM   16  C21 UNL     1      23.186   1.211  52.790  1.00  0.00     0.006 C 
ENDROOT
BRANCH  14  17
HETATM   17  N3  UNL     1      20.959   2.578  52.700  1.00  0.00    -0.340 N 
HETATM   18  H17 UNL     1      20.667   2.397  53.684  1.00  0.00     0.167 HD
BRANCH  17  19
HETATM   19  C13 UNL     1      19.983   2.384  51.657  1.00  0.00     0.034 A 
HETATM   20  C14 UNL     1      20.125   1.418  50.687  1.00  0.00     0.029 A 
HETATM   21  C15 UNL     1      19.163   1.250  49.689  1.00  0.00     0.003 A 
HETATM   22  C16 UNL     1      18.038   2.039  49.639  1.00  0.00     0.007 A 
HETATM   23  C17 UNL     1      17.896   3.006  50.612  1.00  0.00    -0.060 A 
HETATM   24  C18 UNL     1      16.711   3.915  50.657  1.00  0.00     0.048 C 
HETATM   25  C19 UNL     1      18.848   3.174  51.600  1.00  0.00     0.036 A 
ENDBRANCH  17  19
ENDBRANCH  14  17
BRANCH   1  26
HETATM   26  C3  UNL     1      22.645  -0.797  54.765  1.00  0.00     0.028 C 
BRANCH  26  27
HETATM   27  C2  UNL     1      21.241  -1.282  54.436  1.00  0.00     0.167 C 
BRANCH  27  28
HETATM   28  O1  UNL     1      20.393  -0.249  54.040  1.00  0.00    -0.396 OA
HETATM   29  C1  UNL     1      19.261  -0.857  53.451  1.00  0.00     0.201 C 
ENDBRANCH  27  28
ENDBRANCH  26  27
ENDBRANCH   1  26
TORSDOF 5
ENDMDL
MODEL 9
REMARK VINA RESULT:      -7.5      2.198      4.688
REMARK  5 active torsions:
REMARK  status: ('A' for Active; 'I' for Inactive)
REMARK    1  A    between atoms: O1_2  and  C2_3 
REMARK    2  A    between atoms: C2_3  and  C3_4 
REMARK    3  A    between atoms: C3_4  and  O2_5 
REMARK    4  A    between atoms: C12_18  and  N3_19 
REMARK    5  A    between atoms: N3_19  and  C13_20 
ROOT
HETATM    1  O2  UNL     1      24.037   4.229  49.216  1.00  0.00     0.000 OA
HETATM    2  C4  UNL     1      23.134   3.214  49.549  1.00  0.00     0.036 A 
HETATM    3  C5  UNL     1      22.887   3.815  48.450  1.00  0.00     0.166 A 
HETATM    4  O3  UNL     1      21.737   3.358  47.748  1.00  0.00    -0.380 OA
HETATM    5  C6  UNL     1      20.485   3.935  48.048  1.00  0.00     0.194 C 
HETATM    6  C7  UNL     1      19.366   2.963  48.280  1.00  0.00     0.194 C 
HETATM    7  O4  UNL     1      19.601   2.102  49.315  1.00  0.00    -0.385 OA
HETATM    8  C8  UNL     1      20.586   1.178  49.193  1.00  0.00     0.197 C 
HETATM    9  C9  UNL     1      20.894   0.493  50.490  1.00  0.00     0.032 C 
HETATM   10  C10 UNL     1      21.907   0.782  51.325  1.00  0.00     0.070 A 
HETATM   11  N1  UNL     1      21.752  -0.100  52.323  1.00  0.00    -0.241 NA
HETATM   12  C11 UNL     1      22.496  -0.250  53.415  1.00  0.00     0.235 A 
HETATM   13  N2  UNL     1      23.532   0.578  53.546  1.00  0.00    -0.224 NA
HETATM   14  C12 UNL     1      23.707   1.472  52.554  1.00  0.00     0.141 A 
HETATM   15  C20 UNL     1      22.933   1.650  51.389  1.00  0.00     0.036 A 
HETATM   16  C21 UNL     1      23.569   2.664  50.797  1.00  0.00     0.006 C 
ENDROOT
BRANCH  14  17
HETATM   17  N3  UNL     1      24.894   2.188  53.000  1.00  0.00    -0.340 N 
HETATM   18  H17 UNL     1      25.024   3.196  53.227  1.00  0.00     0.167 HD
BRANCH  17  19
HETATM   19  C13 UNL     1      26.033   1.313  53.129  1.00  0.00     0.034 A 
HETATM   20  C14 UNL     1      27.193   1.702  53.759  1.00  0.00     0.029 A 
HETATM   21  C15 UNL     1      28.281   0.834  53.872  1.00  0.00     0.003 A 
HETATM   22  C16 UNL     1      28.234  -0.441  53.360  1.00  0.00     0.007 A 
HETATM   23  C17 UNL     1      27.071  -0.831  52.729  1.00  0.00    -0.060 A 
HETATM   24  C18 UNL     1      26.909  -2.196  52.142  1.00  0.00     0.048 C 
HETATM   25  C19 UNL     1      25.994   0.028  52.616  1.00  0.00     0.036 A 
ENDBRANCH  17  19
ENDBRANCH  14  17
BRANCH   1  26
HETATM   26  C3  UNL     1      24.503   5.260  50.016  1.00  0.00     0.028 C 
BRANCH  26  27
HETATM   27  C2  UNL     1      25.952   5.620  49.720  1.00  0.00     0.167 C 
BRANCH  27  28
HETATM   28  O1  UNL     1      26.755   4.499  49.520  1.00  0.00    -0.396 OA
HETATM   29  C1  UNL     1      27.732   4.866  48.565  1.00  0.00     0.201 C 
ENDBRANCH  27  28
ENDBRANCH  26  27
ENDBRANCH   1  26
TORSDOF 5
ENDMDL
