MODEL 1
REMARK VINA RESULT:      -7.4      0.000      0.000
REMARK  7 active torsions:
REMARK  status: ('A' for Active; 'I' for Inactive)
REMARK    1  A    between atoms: N1_3  and  C3_4 
REMARK    2  A    between atoms: C4_5  and  N2_6 
REMARK    3  A    between atoms: C4_5  and  C7_9 
REMARK    4  A    between atoms: N2_6  and  C5_7 
REMARK    5  A    between atoms: C8_10  and  C9_11 
REMARK    6  A    between atoms: C15_18  and  O2_19 
REMARK    7  A    between atoms: N3_21  and  O3_22 
ROOT
HETATM    1  C7  UNL     1      25.882   1.012  52.547  1.00  0.00     0.121 A 
HETATM    2  C8  UNL     1      24.810   0.362  52.997  1.00  0.00     0.107 A 
HETATM    3  N3  UNL     1      26.060  -0.296  53.134  1.00  0.00    -0.215 N 
ENDROOT
BRANCH   2   4
HETATM    4  C9  UNL     1      23.384   0.222  53.259  1.00  0.00     0.029 C 
HETATM    5  C10 UNL     1      23.038  -0.900  53.892  1.00  0.00     0.018 C 
HETATM    6  C11 UNL     1      21.829  -1.543  54.389  1.00  0.00     0.025 C 
HETATM    7  C12 UNL     1      20.550  -1.238  54.146  1.00  0.00     0.135 C 
HETATM    8  O1  UNL     1      19.879  -0.278  53.393  1.00  0.00    -0.359 OA
HETATM    9  C13 UNL     1      20.184   0.447  52.212  1.00  0.00     0.204 C 
HETATM   10  C14 UNL     1      21.289   1.412  52.376  1.00  0.00     0.037 C 
HETATM   11  C15 UNL     1      22.566   1.334  52.791  1.00  0.00     0.079 C 
BRANCH  11  12
HETATM   12  O2  UNL     1      23.324   2.492  52.811  1.00  0.00    -0.355 OA
HETATM   13  C16 UNL     1      22.959   3.694  52.195  1.00  0.00     0.210 C 
ENDBRANCH  11  12
ENDBRANCH   2   4
BRANCH   1  14
HETATM   14  C4  UNL     1      26.677   2.065  51.948  1.00  0.00     0.077 C 
HETATM   15  C3  UNL     1      26.399   2.537  50.752  1.00  0.00     0.147 C 
BRANCH  15  16
HETATM   16  N1  UNL     1      26.975   3.529  49.933  1.00  0.00    -0.275 NA
HETATM   17  C2  UNL     1      26.333   4.531  49.470  1.00  0.00     0.085 C 
HETATM   18  C1  UNL     1      27.132   5.453  48.631  1.00  0.00     0.057 C 
ENDBRANCH  15  16
BRANCH  14  19
HETATM   19  N2  UNL     1      27.797   2.683  52.554  1.00  0.00    -0.387 N 
HETATM   20  H6  UNL     1      28.294   3.441  52.023  1.00  0.00     0.159 HD
BRANCH  19  21
HETATM   21  C5  UNL     1      28.145   2.180  53.882  1.00  0.00     0.115 C 
HETATM   22  C6  UNL     1      29.279   1.182  53.757  1.00  0.00     0.026 C 
ENDBRANCH  19  21
ENDBRANCH  14  19
ENDBRANCH   1  14
BRANCH   3  23
HETATM   23  O3  UNL     1      26.814  -1.370  53.531  1.00  0.00    -0.277 OA
HETATM   24  C17 UNL     1      26.884  -2.225  52.435  1.00  0.00     0.238 C 
ENDBRANCH   3  23
TORSDOF 7
ENDMDL
MODEL 2
REMARK VINA RESULT:      -7.3      2.015      2.920
REMARK  7 active torsions:
REMARK  status: ('A' for Active; 'I' for Inactive)
REMARK    1  A    between atoms: N1_3  and  C3_4 
REMARK    2  A    between atoms: C4_5  and  N2_6 
REMARK    3  A    between atoms: C4_5  and  C7_9 
REMARK    4  A    between atoms: N2_6  and  C5_7 
REMARK    5  A    between atoms: C8_10  and  C9_11 
REMARK    6  A    between atoms: C15_18  and  O2_19 
REMARK    7  A    between atoms: N3_21  and  O3_22 
ROOT
HETATM    1  C7  UNL     1      24.640   2.355  51.032  1.00  0.00     0.121 A 
HETATM    2  C8  UNL     1      23.668   1.682  51.646  1.00  0.00     0.107 A 
HETATM    3  N3  UNL     1      23.361   2.227  50.371  1.00  0.00    -0.215 N 
ENDROOT
BRANCH   2   4
HETATM    4  C9  UNL     1      23.112   0.907  52.747  1.00  0.00     0.029 C 
HETATM    5  C10 UNL     1      23.985   0.117  53.373  1.00  0.00     0.018 C 
HETATM    6  C11 UNL     1      23.998  -0.831  54.479  1.00  0.00     0.025 C 
HETATM    7  C12 UNL     1      22.969  -1.383  55.130  1.00  0.00     0.135 C 
HETATM    8  O1  UNL     1      21.581  -1.308  55.049  1.00  0.00    -0.359 OA
HETATM    9  C13 UNL     1      20.662  -1.046  54.000  1.00  0.00     0.204 C 
HETATM   10  C14 UNL     1      20.723   0.339  53.490  1.00  0.00     0.037 C 
HETATM   11  C15 UNL     1      21.691   1.126  52.989  1.00  0.00     0.079 C 
BRANCH  11  12
HETATM   12  O2  UNL     1      21.359   2.413  52.603  1.00  0.00    -0.355 OA
HETATM   13  C16 UNL     1      20.094   2.810  52.156  1.00  0.00     0.210 C 
ENDBRANCH  11  12
ENDBRANCH   2   4
BRANCH   1  14
HETATM   14  C4  UNL     1      25.940   2.951  50.802  1.00  0.00     0.077 C 
HETATM   15  C3  UNL     1      26.226   3.554  49.668  1.00  0.00     0.147 C 
BRANCH  15  16
HETATM   16  N1  UNL     1      27.371   4.207  49.169  1.00  0.00    -0.275 NA
HETATM   17  C2  UNL     1      27.344   5.334  48.569  1.00  0.00     0.085 C 
HETATM   18  C1  UNL     1      28.663   5.841  48.127  1.00  0.00     0.057 C 
ENDBRANCH  15  16
BRANCH  14  19
HETATM   19  N2  UNL     1      27.009   2.954  51.730  1.00  0.00    -0.387 N 
HETATM   20  H6  UNL     1      27.517   3.857  51.900  1.00  0.00     0.159 HD
BRANCH  19  21
HETATM   21  C5  UNL     1      27.292   1.665  52.361  1.00  0.00     0.115 C 
HETATM   22  C6  UNL     1      27.196   1.815  53.866  1.00  0.00     0.026 C 
ENDBRANCH  19  21
ENDBRANCH  14  19
ENDBRANCH   1  14
BRANCH   3  23
HETATM   23  O3  UNL     1      22.488   2.442  49.337  1.00  0.00    -0.277 OA
HETATM   24  C17 UNL     1      21.770   1.260  49.180  1.00  0.00     0.238 C 
ENDBRANCH   3  23
TORSDOF 7
ENDMDL
MODEL 3
REMARK VINA RESULT:      -6.9      2.258      4.024
REMARK  7 active torsions:
REMARK  status: ('A' for Active; 'I' for Inactive)
REMARK    1  A    between atoms: N1_3  and  C3_4 
REMARK    2  A    between atoms: C4_5  and  N2_6 
REMARK    3  A    between atoms: C4_5  and  C7_9 
REMARK    4  A    between atoms: N2_6  and  C5_7 
REMARK    5  A    between atoms: C8_10  and  C9_11 
REMARK    6  A    between atoms: C15_18  and  O2_19 
REMARK    7  A    between atoms: N3_21  and  O3_22 
ROOT
HETATM    1  C7  UNL     1      23.964  -0.052  53.581  1.00  0.00     0.121 A 
HETATM    2  C8  UNL     1      22.817   0.159  52.938  1.00  0.00     0.107 A 
HETATM    3  N3  UNL     1      22.748  -0.603  54.134  1.00  0.00    -0.215 N 
ENDROOT
BRANCH   2   4
HETATM    4  C9  UNL     1      22.009   0.705  51.855  1.00  0.00     0.029 C 
HETATM    5  C10 UNL     1      20.726   0.344  51.876  1.00  0.00     0.018 C 
HETATM    6  C11 UNL     1      19.518   0.568  51.095  1.00  0.00     0.025 C 
HETATM    7  C12 UNL     1      19.386   1.112  49.880  1.00  0.00     0.135 C 
HETATM    8  O1  UNL     1      20.251   1.644  48.927  1.00  0.00    -0.359 OA
HETATM    9  C13 UNL     1      21.607   1.415  48.581  1.00  0.00     0.204 C 
HETATM   10  C14 UNL     1      22.565   1.839  49.622  1.00  0.00     0.037 C 
HETATM   11  C15 UNL     1      22.735   1.563  50.927  1.00  0.00     0.079 C 
BRANCH  11  12
HETATM   12  O2  UNL     1      23.781   2.173  51.598  1.00  0.00    -0.355 OA
HETATM   13  C16 UNL     1      24.923   2.699  50.984  1.00  0.00     0.210 C 
ENDBRANCH  11  12
ENDBRANCH   2   4
BRANCH   1  14
HETATM   14  C4  UNL     1      25.380  -0.001  53.879  1.00  0.00     0.077 C 
HETATM   15  C3  UNL     1      25.994   1.143  54.097  1.00  0.00     0.147 C 
BRANCH  15  16
HETATM   16  N1  UNL     1      27.324   1.498  54.400  1.00  0.00    -0.275 NA
HETATM   17  C2  UNL     1      28.136   2.003  53.554  1.00  0.00     0.085 C 
HETATM   18  C1  UNL     1      29.487   2.301  54.084  1.00  0.00     0.057 C 
ENDBRANCH  15  16
BRANCH  14  19
HETATM   19  N2  UNL     1      26.234  -1.126  53.967  1.00  0.00    -0.387 N 
HETATM   20  H6  UNL     1      26.340  -1.598  54.899  1.00  0.00     0.159 HD
BRANCH  19  21
HETATM   21  C5  UNL     1      26.888  -1.513  52.717  1.00  0.00     0.115 C 
HETATM   22  C6  UNL     1      28.359  -1.766  52.982  1.00  0.00     0.026 C 
ENDBRANCH  19  21
ENDBRANCH  14  19
ENDBRANCH   1  14
BRANCH   3  23
HETATM   23  O3  UNL     1      22.034  -1.309  55.067  1.00  0.00    -0.277 OA
HETATM   24  C17 UNL     1      20.960  -1.877  54.389  1.00  0.00     0.238 C 
ENDBRANCH   3  23
TORSDOF 7
ENDMDL
MODEL 4
REMARK VINA RESULT:      -6.9      2.353      4.429
REMARK  7 active torsions:
REMARK  status: ('A' for Active; 'I' for Inactive)
REMARK    1  A    between atoms: N1_3  and  C3_4 
REMARK    2  A    between atoms: C4_5  and  N2_6 
REMARK    3  A    between atoms: C4_5  and  C7_9 
REMARK    4  A    between atoms: N2_6  and  C5_7 
REMARK    5  A    between atoms: C8_10  and  C9_11 
REMARK    6  A    between atoms: C15_18  and  O2_19 
REMARK    7  A    between atoms: N3_21  and  O3_22 
ROOT
HETATM    1  C7  UNL     1      24.387   0.578  53.305  1.00  0.00     0.121 A 
HETATM    2  C8  UNL     1      23.327   0.886  52.560  1.00  0.00     0.107 A 
HETATM    3  N3  UNL     1      23.082   0.134  53.738  1.00  0.00    -0.215 N 
ENDROOT
BRANCH   2   4
HETATM    4  C9  UNL     1      22.674   1.499  51.411  1.00  0.00     0.029 C 
HETATM    5  C10 UNL     1      21.724   0.754  50.843  1.00  0.00     0.018 C 
HETATM    6  C11 UNL     1      20.790   0.844  49.729  1.00  0.00     0.025 C 
HETATM    7  C12 UNL     1      20.753   1.728  48.726  1.00  0.00     0.135 C 
HETATM    8  O1  UNL     1      21.509   2.833  48.342  1.00  0.00    -0.359 OA
HETATM    9  C13 UNL     1      22.865   3.213  48.510  1.00  0.00     0.204 C 
HETATM   10  C14 UNL     1      23.231   3.505  49.911  1.00  0.00     0.037 C 
HETATM   11  C15 UNL     1      23.160   2.831  51.073  1.00  0.00     0.079 C 
BRANCH  11  12
HETATM   12  O2  UNL     1      23.615   3.452  52.223  1.00  0.00    -0.355 OA
HETATM   13  C16 UNL     1      23.441   4.809  52.519  1.00  0.00     0.210 C 
ENDBRANCH  11  12
ENDBRANCH   2   4
BRANCH   1  14
HETATM   14  C4  UNL     1      25.769   0.507  53.733  1.00  0.00     0.077 C 
HETATM   15  C3  UNL     1      26.443  -0.622  53.690  1.00  0.00     0.147 C 
BRANCH  15  16
HETATM   16  N1  UNL     1      27.760  -0.989  54.030  1.00  0.00    -0.275 NA
HETATM   17  C2  UNL     1      28.686  -1.193  53.174  1.00  0.00     0.085 C 
HETATM   18  C1  UNL     1      29.998  -1.569  53.749  1.00  0.00     0.057 C 
ENDBRANCH  15  16
BRANCH  14  19
HETATM   19  N2  UNL     1      26.524   1.598  54.227  1.00  0.00    -0.387 N 
HETATM   20  H6  UNL     1      26.502   1.791  55.259  1.00  0.00     0.159 HD
BRANCH  19  21
HETATM   21  C5  UNL     1      27.267   2.351  53.217  1.00  0.00     0.115 C 
HETATM   22  C6  UNL     1      28.708   2.496  53.664  1.00  0.00     0.026 C 
ENDBRANCH  19  21
ENDBRANCH  14  19
ENDBRANCH   1  14
BRANCH   3  23
HETATM   23  O3  UNL     1      22.227  -0.508  54.596  1.00  0.00    -0.277 OA
HETATM   24  C17 UNL     1      21.589  -1.493  53.847  1.00  0.00     0.238 C 
ENDBRANCH   3  23
TORSDOF 7
ENDMDL
MODEL 5
REMARK VINA RESULT:      -6.9      1.640      3.426
REMARK  7 active torsions:
REMARK  status: ('A' for Active; 'I' for Inactive)
REMARK    1  A    between atoms: N1_3  and  C3_4 
REMARK    2  A    between atoms: C4_5  and  N2_6 
REMARK    3  A    between atoms: C4_5  and  C7_9 
REMARK    4  A    between atoms: N2_6  and  C5_7 
REMARK    5  A    between atoms: C8_10  and  C9_11 
REMARK    6  A    between atoms: C15_18  and  O2_19 
REMARK    7  A    between atoms: N3_21  and  O3_22 
ROOT
HETATM    1  C7  UNL     1      24.687   2.559  51.935  1.00  0.00     0.121 A 
HETATM    2  C8  UNL     1      23.716   1.861  52.521  1.00  0.00     0.107 A 
HETATM    3  N3  UNL     1      23.425   3.212  52.198  1.00  0.00    -0.215 N 
ENDROOT
BRANCH   2   4
HETATM    4  C9  UNL     1      23.151   0.657  53.114  1.00  0.00     0.029 C 
HETATM    5  C10 UNL     1      21.821   0.572  53.052  1.00  0.00     0.018 C 
HETATM    6  C11 UNL     1      20.768  -0.349  53.456  1.00  0.00     0.025 C 
HETATM    7  C12 UNL     1      20.836  -1.404  54.274  1.00  0.00     0.135 C 
HETATM    8  O1  UNL     1      21.835  -2.023  55.022  1.00  0.00    -0.359 OA
HETATM    9  C13 UNL     1      23.030  -1.577  55.641  1.00  0.00     0.204 C 
HETATM   10  C14 UNL     1      24.072  -1.151  54.685  1.00  0.00     0.037 C 
HETATM   11  C15 UNL     1      24.132  -0.264  53.676  1.00  0.00     0.079 C 
BRANCH  11  12
HETATM   12  O2  UNL     1      25.321  -0.138  52.980  1.00  0.00    -0.355 OA
HETATM   13  C16 UNL     1      26.356  -1.079  52.992  1.00  0.00     0.210 C 
ENDBRANCH  11  12
ENDBRANCH   2   4
BRANCH   1  14
HETATM   14  C4  UNL     1      25.979   2.861  51.355  1.00  0.00     0.077 C 
HETATM   15  C3  UNL     1      26.087   3.578  50.256  1.00  0.00     0.147 C 
BRANCH  15  16
HETATM   16  N1  UNL     1      27.176   4.021  49.480  1.00  0.00    -0.275 NA
HETATM   17  C2  UNL     1      27.239   5.173  48.932  1.00  0.00     0.085 C 
HETATM   18  C1  UNL     1      28.475   5.434  48.160  1.00  0.00     0.057 C 
ENDBRANCH  15  16
BRANCH  14  19
HETATM   19  N2  UNL     1      27.224   2.438  51.878  1.00  0.00    -0.387 N 
HETATM   20  H6  UNL     1      27.971   2.138  51.203  1.00  0.00     0.159 HD
BRANCH  19  21
HETATM   21  C5  UNL     1      27.331   2.466  53.336  1.00  0.00     0.115 C 
HETATM   22  C6  UNL     1      28.718   2.011  53.744  1.00  0.00     0.026 C 
ENDBRANCH  19  21
ENDBRANCH  14  19
ENDBRANCH   1  14
BRANCH   3  23
HETATM   23  O3  UNL     1      22.570   4.284  52.177  1.00  0.00    -0.277 OA
HETATM   24  C17 UNL     1      21.312   3.773  51.872  1.00  0.00     0.238 C 
ENDBRANCH   3  23
TORSDOF 7
ENDMDL
MODEL 6
REMARK VINA RESULT:      -6.8      2.332      5.737
REMARK  7 active torsions:
REMARK  status: ('A' for Active; 'I' for Inactive)
REMARK    1  A    between atoms: N1_3  and  C3_4 
REMARK    2  A    between atoms: C4_5  and  N2_6 
REMARK    3  A    between atoms: C4_5  and  C7_9 
REMARK    4  A    between atoms: N2_6  and  C5_7 
REMARK    5  A    between atoms: C8_10  and  C9_11 
REMARK    6  A    between atoms: C15_18  and  O2_19 
REMARK    7  A    between atoms: N3_21  and  O3_22 
ROOT
HETATM    1  C7  UNL     1      23.496   1.195  52.572  1.00  0.00     0.121 A 
HETATM    2  C8  UNL     1      24.619   0.529  52.829  1.00  0.00     0.107 A 
HETATM    3  N3  UNL     1      23.400  -0.146  53.099  1.00  0.00    -0.215 N 
ENDROOT
BRANCH   2   4
HETATM    4  C9  UNL     1      26.068   0.383  52.878  1.00  0.00     0.029 C 
HETATM    5  C10 UNL     1      26.501  -0.874  52.988  1.00  0.00     0.018 C 
HETATM    6  C11 UNL     1      27.769  -1.585  53.078  1.00  0.00     0.025 C 
HETATM    7  C12 UNL     1      28.996  -1.100  53.294  1.00  0.00     0.135 C 
HETATM    8  O1  UNL     1      29.547   0.161  53.508  1.00  0.00    -0.359 OA
HETATM    9  C13 UNL     1      29.066   1.370  54.072  1.00  0.00     0.204 C 
HETATM   10  C14 UNL     1      28.006   2.017  53.273  1.00  0.00     0.037 C 
HETATM   11  C15 UNL     1      26.809   1.635  52.792  1.00  0.00     0.079 C 
BRANCH  11  12
HETATM   12  O2  UNL     1      26.072   2.548  52.060  1.00  0.00    -0.355 OA
HETATM   13  C16 UNL     1      26.373   2.954  50.755  1.00  0.00     0.210 C 
ENDBRANCH  11  12
ENDBRANCH   2   4
BRANCH   1  14
HETATM   14  C4  UNL     1      22.625   2.274  52.151  1.00  0.00     0.077 C 
HETATM   15  C3  UNL     1      22.964   3.534  52.322  1.00  0.00     0.147 C 
BRANCH  15  16
HETATM   16  N1  UNL     1      22.343   4.763  52.024  1.00  0.00    -0.275 NA
HETATM   17  C2  UNL     1      22.652   5.493  51.022  1.00  0.00     0.085 C 
HETATM   18  C1  UNL     1      21.872   6.746  50.895  1.00  0.00     0.057 C 
ENDBRANCH  15  16
BRANCH  14  19
HETATM   19  N2  UNL     1      21.363   2.107  51.532  1.00  0.00    -0.387 N 
HETATM   20  H6  UNL     1      21.275   2.340  50.512  1.00  0.00     0.159 HD
BRANCH  19  21
HETATM   21  C5  UNL     1      20.299   1.617  52.408  1.00  0.00     0.115 C 
HETATM   22  C6  UNL     1      19.871   0.237  51.947  1.00  0.00     0.026 C 
ENDBRANCH  19  21
ENDBRANCH  14  19
ENDBRANCH   1  14
BRANCH   3  23
HETATM   23  O3  UNL     1      22.709  -1.247  53.536  1.00  0.00    -0.277 OA
HETATM   24  C17 UNL     1      22.757  -1.212  54.926  1.00  0.00     0.238 C 
ENDBRANCH   3  23
TORSDOF 7
ENDMDL
MODEL 7
REMARK VINA RESULT:      -6.8      2.096      3.927
REMARK  7 active torsions:
REMARK  status: ('A' for Active; 'I' for Inactive)
REMARK    1  A    between atoms: N1_3  and  C3_4 
REMARK    2  A    between atoms: C4_5  and  N2_6 
REMARK    3  A    between atoms: C4_5  and  C7_9 
REMARK    4  A    between atoms: N2_6  and  C5_7 
REMARK    5  A    between atoms: C8_10  and  C9_11 
REMARK    6  A    between atoms: C15_18  and  O2_19 
REMARK    7  A    between atoms: N3_21  and  O3_22 
ROOT
HETATM    1  C7  UNL     1      24.420   1.958  51.449  1.00  0.00     0.121 A 
HETATM    2  C8  UNL     1      23.157   1.586  51.651  1.00  0.00     0.107 A 
HETATM    3  N3  UNL     1      23.410   2.401  50.516  1.00  0.00    -0.215 N 
ENDROOT
BRANCH   2   4
HETATM    4  C9  UNL     1      22.101   0.894  52.378  1.00  0.00     0.029 C 
HETATM    5  C10 UNL     1      22.494  -0.201  53.029  1.00  0.00     0.018 C 
HETATM    6  C11 UNL     1      21.910  -1.234  53.874  1.00  0.00     0.025 C 
HETATM    7  C12 UNL     1      20.622  -1.513  54.100  1.00  0.00     0.135 C 
HETATM    8  O1  UNL     1      19.400  -0.996  53.676  1.00  0.00    -0.359 OA
HETATM    9  C13 UNL     1      18.959  -0.331  52.503  1.00  0.00     0.204 C 
HETATM   10  C14 UNL     1      19.538   1.017  52.331  1.00  0.00     0.037 C 
HETATM   11  C15 UNL     1      20.786   1.516  52.279  1.00  0.00     0.079 C 
BRANCH  11  12
HETATM   12  O2  UNL     1      20.942   2.880  52.101  1.00  0.00    -0.355 OA
HETATM   13  C16 UNL     1      19.983   3.725  51.532  1.00  0.00     0.210 C 
ENDBRANCH  11  12
ENDBRANCH   2   4
BRANCH   1  14
HETATM   14  C4  UNL     1      25.848   2.081  51.662  1.00  0.00     0.077 C 
HETATM   15  C3  UNL     1      26.524   1.162  52.319  1.00  0.00     0.147 C 
BRANCH  15  16
HETATM   16  N1  UNL     1      27.880   1.012  52.673  1.00  0.00    -0.275 NA
HETATM   17  C2  UNL     1      28.320   0.077  53.423  1.00  0.00     0.085 C 
HETATM   18  C1  UNL     1      29.781   0.106  53.668  1.00  0.00     0.057 C 
ENDBRANCH  15  16
BRANCH  14  19
HETATM   19  N2  UNL     1      26.648   3.156  51.207  1.00  0.00    -0.387 N 
HETATM   20  H6  UNL     1      27.155   3.735  51.922  1.00  0.00     0.159 HD
BRANCH  19  21
HETATM   21  C5  UNL     1      26.679   3.342  49.757  1.00  0.00     0.115 C 
HETATM   22  C6  UNL     1      26.175   4.732  49.422  1.00  0.00     0.026 C 
ENDBRANCH  19  21
ENDBRANCH  14  19
ENDBRANCH   1  14
BRANCH   3  23
HETATM   23  O3  UNL     1      22.978   3.075  49.403  1.00  0.00    -0.277 OA
HETATM   24  C17 UNL     1      22.071   2.234  48.765  1.00  0.00     0.238 C 
ENDBRANCH   3  23
TORSDOF 7
ENDMDL
MODEL 8
REMARK VINA RESULT:      -6.7      2.592      4.767
REMARK  7 active torsions:
REMARK  status: ('A' for Active; 'I' for Inactive)
REMARK    1  A    between atoms: N1_3  and  C3_4 
REMARK    2  A    between atoms: C4_5  and  N2_6 
REMARK    3  A    between atoms: C4_5  and  C7_9 
REMARK    4  A    between atoms: N2_6  and  C5_7 
REMARK    5  A    between atoms: C8_10  and  C9_11 
REMARK    6  A    between atoms: C15_18  and  O2_19 
REMARK    7  A    between atoms: N3_21  and  O3_22 
ROOT
HETATM    1  C7  UNL     1      25.549   4.030  49.789  1.00  0.00     0.121 A 
HETATM    2  C8  UNL     1      25.057   2.988  50.456  1.00  0.00     0.107 A 
HETATM    3  N3  UNL     1      24.329   3.418  49.316  1.00  0.00    -0.215 N 
ENDROOT
BRANCH   2   4
HETATM    4  C9  UNL     1      25.070   2.000  51.527  1.00  0.00     0.029 C 
HETATM    5  C10 UNL     1      26.165   1.240  51.575  1.00  0.00     0.018 C 
HETATM    6  C11 UNL     1      26.700   0.151  52.381  1.00  0.00     0.025 C 
HETATM    7  C12 UNL     1      26.082  -0.611  53.290  1.00  0.00     0.135 C 
HETATM    8  O1  UNL     1      24.793  -0.694  53.811  1.00  0.00    -0.359 OA
HETATM    9  C13 UNL     1      23.500  -0.397  53.309  1.00  0.00     0.204 C 
HETATM   10  C14 UNL     1      23.267   1.043  53.082  1.00  0.00     0.037 C 
HETATM   11  C15 UNL     1      23.884   2.007  52.375  1.00  0.00     0.079 C 
BRANCH  11  12
HETATM   12  O2  UNL     1      23.357   3.286  52.405  1.00  0.00    -0.355 OA
HETATM   13  C16 UNL     1      21.998   3.591  52.269  1.00  0.00     0.210 C 
ENDBRANCH  11  12
ENDBRANCH   2   4
BRANCH   1  14
HETATM   14  C4  UNL     1      26.438   5.119  49.440  1.00  0.00     0.077 C 
HETATM   15  C3  UNL     1      27.468   4.934  48.641  1.00  0.00     0.147 C 
BRANCH  15  16
HETATM   16  N1  UNL     1      28.478   5.777  48.137  1.00  0.00    -0.275 NA
HETATM   17  C2  UNL     1      29.719   5.475  48.131  1.00  0.00     0.085 C 
HETATM   18  C1  UNL     1      30.612   6.506  47.553  1.00  0.00     0.057 C 
ENDBRANCH  15  16
BRANCH  14  19
HETATM   19  N2  UNL     1      26.310   6.452  49.898  1.00  0.00    -0.387 N 
HETATM   20  H6  UNL     1      27.122   6.884  50.406  1.00  0.00     0.159 HD
BRANCH  19  21
HETATM   21  C5  UNL     1      25.029   7.093  49.604  1.00  0.00     0.115 C 
HETATM   22  C6  UNL     1      24.269   7.305  50.899  1.00  0.00     0.026 C 
ENDBRANCH  19  21
ENDBRANCH  14  19
ENDBRANCH   1  14
BRANCH   3  23
HETATM   23  O3  UNL     1      23.266   3.304  48.457  1.00  0.00    -0.277 OA
HETATM   24  C17 UNL     1      22.520   2.217  48.903  1.00  0.00     0.238 C 
ENDBRANCH   3  23
TORSDOF 7
ENDMDL
MODEL 9
REMARK VINA RESULT:      -6.7      2.553      5.405
REMARK  7 active torsions:
REMARK  status: ('A' for Active; 'I' for Inactive)
REMARK    1  A    between atoms: N1_3  and  C3_4 
REMARK    2  A    between atoms: C4_5  and  N2_6 
REMARK    3  A    between atoms: C4_5  and  C7_9 
REMARK    4  A    between atoms: N2_6  and  C5_7 
REMARK    5  A    between atoms: C8_10  and  C9_11 
REMARK    6  A    between atoms: C15_18  and  O2_19 
REMARK    7  A    between atoms: N3_21  and  O3_22 
ROOT
HETATM    1  C7  UNL     1      23.734   0.899  52.462  1.00  0.00     0.121 A 
HETATM    2  C8  UNL     1      24.762   0.175  52.900  1.00  0.00     0.107 A 
HETATM    3  N3  UNL     1      23.492  -0.115  53.462  1.00  0.00    -0.215 N 
ENDROOT
BRANCH   2   4
HETATM    4  C9  UNL     1      26.167  -0.210  52.933  1.00  0.00     0.029 C 
HETATM    5  C10 UNL     1      26.396  -1.512  52.755  1.00  0.00     0.018 C 
HETATM    6  C11 UNL     1      27.532  -2.420  52.695  1.00  0.00     0.025 C 
HETATM    7  C12 UNL     1      28.807  -2.202  53.033  1.00  0.00     0.135 C 
HETATM    8  O1  UNL     1      29.535  -1.127  53.540  1.00  0.00    -0.359 OA
HETATM    9  C13 UNL     1      29.218  -0.015  54.361  1.00  0.00     0.204 C 
HETATM   10  C14 UNL     1      28.312   0.958  53.719  1.00  0.00     0.037 C 
HETATM   11  C15 UNL     1      27.096   0.893  53.148  1.00  0.00     0.079 C 
BRANCH  11  12
HETATM   12  O2  UNL     1      26.546   2.055  52.637  1.00  0.00    -0.355 OA
HETATM   13  C16 UNL     1      26.827   2.581  51.371  1.00  0.00     0.210 C 
ENDBRANCH  11  12
ENDBRANCH   2   4
BRANCH   1  14
HETATM   14  C4  UNL     1      23.000   1.892  51.705  1.00  0.00     0.077 C 
HETATM   15  C3  UNL     1      22.742   1.725  50.425  1.00  0.00     0.147 C 
BRANCH  15  16
HETATM   16  N1  UNL     1      22.070   2.495  49.454  1.00  0.00    -0.275 NA
HETATM   17  C2  UNL     1      22.662   3.204  48.573  1.00  0.00     0.085 C 
HETATM   18  C1  UNL     1      21.764   3.933  47.648  1.00  0.00     0.057 C 
ENDBRANCH  15  16
BRANCH  14  19
HETATM   19  N2  UNL     1      22.496   3.106  52.230  1.00  0.00    -0.387 N 
HETATM   20  H6  UNL     1      21.457   3.201  52.353  1.00  0.00     0.159 HD
BRANCH  19  21
HETATM   21  C5  UNL     1      23.505   4.115  52.550  1.00  0.00     0.115 C 
HETATM   22  C6  UNL     1      23.285   5.334  51.677  1.00  0.00     0.026 C 
ENDBRANCH  19  21
ENDBRANCH  14  19
ENDBRANCH   1  14
BRANCH   3  23
HETATM   23  O3  UNL     1      22.692  -0.832  54.315  1.00  0.00    -0.277 OA
HETATM   24  C17 UNL     1      23.513  -1.258  55.355  1.00  0.00     0.238 C 
ENDBRANCH   3  23
TORSDOF 7
ENDMDL
