MODEL 1
REMARK VINA RESULT:      -9.5      0.000      0.000
REMARK  3 active torsions:
REMARK  status: ('A' for Active; 'I' for Inactive)
REMARK    1  A    between atoms: C2_2  and  C3_3 
REMARK    2  A    between atoms: C6_8  and  N3_9 
REMARK    3  A    between atoms: N3_9  and  C7_10 
ROOT
HETATM    1  C3  UNL     1      22.647   4.108  50.047  1.00  0.00     0.117 C 
HETATM    2  C4  UNL     1      22.636   4.736  51.390  1.00  0.00     0.058 C 
HETATM    3  N1  UNL     1      23.008   4.808  52.593  1.00  0.00    -0.245 NA
HETATM    4  C5  UNL     1      23.925   3.901  53.196  1.00  0.00     0.235 C 
HETATM    5  N2  UNL     1      23.569   2.738  52.776  1.00  0.00    -0.222 NA
HETATM    6  C6  UNL     1      24.129   1.498  53.061  1.00  0.00     0.154 C 
HETATM    7  C13 UNL     1      23.189   0.563  53.186  1.00  0.00     0.077 C 
HETATM    8  C14 UNL     1      23.376  -0.882  53.487  1.00  0.00     0.228 C 
HETATM    9  O1  UNL     1      22.685  -1.251  54.649  1.00  0.00    -0.384 OA
HETATM   10  C15 UNL     1      21.329  -1.151  54.471  1.00  0.00     0.187 C 
HETATM   11  C16 UNL     1      21.019   0.325  54.245  1.00  0.00     0.149 C 
HETATM   12  N4  UNL     1      21.764   0.689  53.044  1.00  0.00    -0.377 N 
HETATM   13  C17 UNL     1      21.050   1.123  51.852  1.00  0.00     0.125 C 
HETATM   14  C18 UNL     1      20.062   2.215  52.148  1.00  0.00     0.046 C 
HETATM   15  C19 UNL     1      19.416   2.651  50.839  1.00  0.00     0.176 C 
HETATM   16  O2  UNL     1      20.501   3.100  50.031  1.00  0.00    -0.354 OA
HETATM   17  C20 UNL     1      21.176   4.262  50.307  1.00  0.00     0.068 C 
HETATM   18  C21 UNL     1      21.629   5.466  50.628  1.00  0.00    -0.006 C 
HETATM   19  C22 UNL     1      21.112   6.780  50.248  1.00  0.00     0.053 C 
ENDROOT
BRANCH   6  20
HETATM   20  N3  UNL     1      25.461   1.130  53.203  1.00  0.00    -0.339 N 
HETATM   21  H6  UNL     1      25.217   0.264  52.627  1.00  0.00     0.167 HD
BRANCH  20  22
HETATM   22  C7  UNL     1      26.797   0.789  53.362  1.00  0.00     0.035 A 
HETATM   23  C8  UNL     1      27.828   1.631  53.682  1.00  0.00     0.032 A 
HETATM   24  C9  UNL     1      29.101   1.144  53.795  1.00  0.00     0.046 A 
HETATM   25  C10 UNL     1      29.243  -0.204  53.571  1.00  0.00     0.138 A 
HETATM   26  F1  UNL     1      30.516  -0.697  53.688  1.00  0.00    -0.204 F 
HETATM   27  C11 UNL     1      28.290  -1.141  53.248  1.00  0.00     0.074 A 
HETATM   28 CL1  UNL     1      28.663  -2.828  52.998  1.00  0.00    -0.081 Cl
HETATM   29  C12 UNL     1      27.016  -0.563  53.151  1.00  0.00     0.056 A 
ENDBRANCH  20  22
ENDBRANCH   6  20
BRANCH   1  30
HETATM   30  C2  UNL     1      23.171   4.908  48.962  1.00  0.00    -0.019 C 
HETATM   31  C1  UNL     1      24.251   5.481  48.571  1.00  0.00     0.008 C 
ENDBRANCH   1  30
TORSDOF 3
ENDMDL
MODEL 2
REMARK VINA RESULT:      -8.9      4.158      7.601
REMARK  3 active torsions:
REMARK  status: ('A' for Active; 'I' for Inactive)
REMARK    1  A    between atoms: C2_2  and  C3_3 
REMARK    2  A    between atoms: C6_8  and  N3_9 
REMARK    3  A    between atoms: N3_9  and  C7_10 
ROOT
HETATM    1  C3  UNL     1      26.039   1.119  51.728  1.00  0.00     0.117 C 
HETATM    2  C4  UNL     1      25.603   2.081  52.768  1.00  0.00     0.058 C 
HETATM    3  N1  UNL     1      24.715   2.680  53.435  1.00  0.00    -0.245 NA
HETATM    4  C5  UNL     1      23.317   2.477  53.258  1.00  0.00     0.235 C 
HETATM    5  N2  UNL     1      23.144   2.435  51.984  1.00  0.00    -0.222 NA
HETATM    6  C6  UNL     1      21.966   2.255  51.269  1.00  0.00     0.154 C 
HETATM    7  C13 UNL     1      21.950   3.009  50.171  1.00  0.00     0.077 C 
HETATM    8  C14 UNL     1      20.876   3.104  49.147  1.00  0.00     0.228 C 
HETATM    9  O1  UNL     1      20.413   4.420  49.019  1.00  0.00    -0.384 OA
HETATM   10  C15 UNL     1      21.387   5.241  48.513  1.00  0.00     0.187 C 
HETATM   11  C16 UNL     1      22.510   5.285  49.545  1.00  0.00     0.149 C 
HETATM   12  N4  UNL     1      22.960   3.903  49.674  1.00  0.00    -0.377 N 
HETATM   13  C17 UNL     1      24.322   3.548  49.306  1.00  0.00     0.125 C 
HETATM   14  C18 UNL     1      25.339   4.442  49.955  1.00  0.00     0.046 C 
HETATM   15  C19 UNL     1      26.731   3.955  49.569  1.00  0.00     0.176 C 
HETATM   16  O2  UNL     1      26.793   2.615  50.052  1.00  0.00    -0.354 OA
HETATM   17  C20 UNL     1      26.857   2.332  51.392  1.00  0.00     0.068 C 
HETATM   18  C21 UNL     1      27.051   2.236  52.700  1.00  0.00    -0.006 C 
HETATM   19  C22 UNL     1      28.300   2.315  53.458  1.00  0.00     0.053 C 
ENDROOT
BRANCH   6  20
HETATM   20  N3  UNL     1      20.880   1.428  51.527  1.00  0.00    -0.339 N 
HETATM   21  H6  UNL     1      20.845   1.251  50.474  1.00  0.00     0.167 HD
BRANCH  20  22
HETATM   22  C7  UNL     1      19.798   0.608  51.816  1.00  0.00     0.035 A 
HETATM   23  C8  UNL     1      19.614  -0.142  52.946  1.00  0.00     0.032 A 
HETATM   24  C9  UNL     1      18.493  -0.913  53.082  1.00  0.00     0.046 A 
HETATM   25  C10 UNL     1      17.608  -0.865  52.032  1.00  0.00     0.138 A 
HETATM   26  F1  UNL     1      16.480  -1.631  52.167  1.00  0.00    -0.204 F 
HETATM   27  C11 UNL     1      17.684  -0.154  50.858  1.00  0.00     0.074 A 
HETATM   28 CL1  UNL     1      16.450  -0.221  49.625  1.00  0.00    -0.081 Cl
HETATM   29  C12 UNL     1      18.860   0.608  50.796  1.00  0.00     0.056 A 
ENDBRANCH  20  22
ENDBRANCH   6  20
BRANCH   1  30
HETATM   30  C2  UNL     1      26.792  -0.029  52.183  1.00  0.00    -0.019 C 
HETATM   31  C1  UNL     1      26.638  -1.256  52.527  1.00  0.00     0.008 C 
ENDBRANCH   1  30
TORSDOF 3
ENDMDL
MODEL 3
REMARK VINA RESULT:      -8.8      4.618      7.741
REMARK  3 active torsions:
REMARK  status: ('A' for Active; 'I' for Inactive)
REMARK    1  A    between atoms: C2_2  and  C3_3 
REMARK    2  A    between atoms: C6_8  and  N3_9 
REMARK    3  A    between atoms: N3_9  and  C7_10 
ROOT
HETATM    1  C3  UNL     1      26.770   2.515  52.528  1.00  0.00     0.117 C 
HETATM    2  C4  UNL     1      26.566   2.142  51.108  1.00  0.00     0.058 C 
HETATM    3  N1  UNL     1      26.449   2.425  49.884  1.00  0.00    -0.245 NA
HETATM    4  C5  UNL     1      26.513   3.749  49.365  1.00  0.00     0.235 C 
HETATM    5  N2  UNL     1      25.824   4.462  50.185  1.00  0.00    -0.222 NA
HETATM    6  C6  UNL     1      25.563   5.827  50.148  1.00  0.00     0.154 C 
HETATM    7  C13 UNL     1      24.320   6.090  50.545  1.00  0.00     0.077 C 
HETATM    8  C14 UNL     1      23.658   7.418  50.647  1.00  0.00     0.228 C 
HETATM    9  O1  UNL     1      22.500   7.469  49.859  1.00  0.00    -0.384 OA
HETATM   10  C15 UNL     1      21.540   6.614  50.335  1.00  0.00     0.187 C 
HETATM   11  C16 UNL     1      22.092   5.200  50.186  1.00  0.00     0.149 C 
HETATM   12  N4  UNL     1      23.304   5.179  50.998  1.00  0.00    -0.377 N 
HETATM   13  C17 UNL     1      23.391   4.291  52.147  1.00  0.00     0.125 C 
HETATM   14  C18 UNL     1      23.025   2.875  51.802  1.00  0.00     0.046 C 
HETATM   15  C19 UNL     1      23.211   2.010  53.042  1.00  0.00     0.176 C 
HETATM   16  O2  UNL     1      24.589   2.152  53.381  1.00  0.00    -0.354 OA
HETATM   17  C20 UNL     1      25.582   1.601  52.613  1.00  0.00     0.068 C 
HETATM   18  C21 UNL     1      26.403   0.896  51.847  1.00  0.00    -0.006 C 
HETATM   19  C22 UNL     1      26.771  -0.517  51.940  1.00  0.00     0.053 C 
ENDROOT
BRANCH   6  20
HETATM   20  N3  UNL     1      26.388   6.886  49.789  1.00  0.00    -0.339 N 
HETATM   21  H6  UNL     1      26.314   7.204  50.807  1.00  0.00     0.167 HD
BRANCH  20  22
HETATM   22  C7  UNL     1      27.214   7.933  49.402  1.00  0.00     0.035 A 
HETATM   23  C8  UNL     1      27.280   9.178  49.966  1.00  0.00     0.032 A 
HETATM   24  C9  UNL     1      28.143  10.113  49.463  1.00  0.00     0.046 A 
HETATM   25  C10 UNL     1      28.902   9.705  48.393  1.00  0.00     0.138 A 
HETATM   26  F1  UNL     1      29.772  10.637  47.890  1.00  0.00    -0.204 F 
HETATM   27  C11 UNL     1      28.924   8.491  47.749  1.00  0.00     0.074 A 
HETATM   28 CL1  UNL     1      29.967   8.154  46.391  1.00  0.00    -0.081 Cl
HETATM   29  C12 UNL     1      28.013   7.591  48.322  1.00  0.00     0.056 A 
ENDBRANCH  20  22
ENDBRANCH   6  20
BRANCH   1  30
HETATM   30  C2  UNL     1      27.975   2.024  53.159  1.00  0.00    -0.019 C 
HETATM   31  C1  UNL     1      28.967   2.424  53.870  1.00  0.00     0.008 C 
ENDBRANCH   1  30
TORSDOF 3
ENDMDL
MODEL 4
REMARK VINA RESULT:      -8.4      1.670      2.113
REMARK  3 active torsions:
REMARK  status: ('A' for Active; 'I' for Inactive)
REMARK    1  A    between atoms: C2_2  and  C3_3 
REMARK    2  A    between atoms: C6_8  and  N3_9 
REMARK    3  A    between atoms: N3_9  and  C7_10 
ROOT
HETATM    1  C3  UNL     1      23.360   5.352  49.437  1.00  0.00     0.117 C 
HETATM    2  C4  UNL     1      23.191   5.804  50.839  1.00  0.00     0.058 C 
HETATM    3  N1  UNL     1      23.295   5.640  52.086  1.00  0.00    -0.245 NA
HETATM    4  C5  UNL     1      23.832   4.469  52.691  1.00  0.00     0.235 C 
HETATM    5  N2  UNL     1      23.329   3.489  52.026  1.00  0.00    -0.222 NA
HETATM    6  C6  UNL     1      23.525   2.124  52.201  1.00  0.00     0.154 C 
HETATM    7  C13 UNL     1      22.398   1.446  51.992  1.00  0.00     0.077 C 
HETATM    8  C14 UNL     1      22.189  -0.024  52.080  1.00  0.00     0.228 C 
HETATM    9  O1  UNL     1      21.195  -0.340  53.015  1.00  0.00    -0.384 OA
HETATM   10  C15 UNL     1      19.968   0.116  52.606  1.00  0.00     0.187 C 
HETATM   11  C16 UNL     1      20.050   1.639  52.573  1.00  0.00     0.149 C 
HETATM   12  N4  UNL     1      21.103   1.941  51.609  1.00  0.00    -0.377 N 
HETATM   13  C17 UNL     1      20.785   2.675  50.394  1.00  0.00     0.125 C 
HETATM   14  C18 UNL     1      20.022   3.938  50.676  1.00  0.00     0.046 C 
HETATM   15  C19 UNL     1      19.794   4.671  49.359  1.00  0.00     0.176 C 
HETATM   16  O2  UNL     1      21.103   4.923  48.854  1.00  0.00    -0.354 OA
HETATM   17  C20 UNL     1      21.940   5.839  49.439  1.00  0.00     0.068 C 
HETATM   18  C21 UNL     1      22.564   6.845  50.034  1.00  0.00    -0.006 C 
HETATM   19  C22 UNL     1      22.449   8.282  49.786  1.00  0.00     0.053 C 
ENDROOT
BRANCH   6  20
HETATM   20  N3  UNL     1      24.677   1.420  52.527  1.00  0.00    -0.339 N 
HETATM   21  H6  UNL     1      24.763   2.076  53.366  1.00  0.00     0.167 HD
BRANCH  20  22
HETATM   22  C7  UNL     1      25.825   0.699  52.828  1.00  0.00     0.035 A 
HETATM   23  C8  UNL     1      26.021  -0.644  52.652  1.00  0.00     0.032 A 
HETATM   24  C9  UNL     1      27.211  -1.216  53.008  1.00  0.00     0.046 A 
HETATM   25  C10 UNL     1      28.149  -0.358  53.532  1.00  0.00     0.138 A 
HETATM   26  F1  UNL     1      29.345  -0.925  53.884  1.00  0.00    -0.204 F 
HETATM   27  C11 UNL     1      28.066   0.997  53.752  1.00  0.00     0.074 A 
HETATM   28 CL1  UNL     1      29.375   1.929  54.435  1.00  0.00    -0.081 Cl
HETATM   29  C12 UNL     1      26.818   1.504  53.363  1.00  0.00     0.056 A 
ENDBRANCH  20  22
ENDBRANCH   6  20
BRANCH   1  30
HETATM   30  C2  UNL     1      24.274   6.116  48.616  1.00  0.00    -0.019 C 
HETATM   31  C1  UNL     1      25.530   6.305  48.427  1.00  0.00     0.008 C 
ENDBRANCH   1  30
TORSDOF 3
ENDMDL
MODEL 5
REMARK VINA RESULT:      -8.3      3.217      5.059
REMARK  3 active torsions:
REMARK  status: ('A' for Active; 'I' for Inactive)
REMARK    1  A    between atoms: C2_2  and  C3_3 
REMARK    2  A    between atoms: C6_8  and  N3_9 
REMARK    3  A    between atoms: N3_9  and  C7_10 
ROOT
HETATM    1  C3  UNL     1      24.840   5.260  49.347  1.00  0.00     0.117 C 
HETATM    2  C4  UNL     1      24.340   6.068  50.485  1.00  0.00     0.058 C 
HETATM    3  N1  UNL     1      23.720   6.197  51.576  1.00  0.00    -0.245 NA
HETATM    4  C5  UNL     1      23.076   5.124  52.256  1.00  0.00     0.235 C 
HETATM    5  N2  UNL     1      22.478   4.455  51.334  1.00  0.00    -0.222 NA
HETATM    6  C6  UNL     1      21.702   3.308  51.451  1.00  0.00     0.154 C 
HETATM    7  C13 UNL     1      20.667   3.340  50.614  1.00  0.00     0.077 C 
HETATM    8  C14 UNL     1      19.608   2.311  50.435  1.00  0.00     0.228 C 
HETATM    9  O1  UNL     1      18.335   2.847  50.669  1.00  0.00    -0.384 OA
HETATM   10  C15 UNL     1      18.011   3.783  49.721  1.00  0.00     0.187 C 
HETATM   11  C16 UNL     1      18.994   4.938  49.884  1.00  0.00     0.149 C 
HETATM   12  N4  UNL     1      20.310   4.351  49.657  1.00  0.00    -0.377 N 
HETATM   13  C17 UNL     1      21.120   4.801  48.534  1.00  0.00     0.125 C 
HETATM   14  C18 UNL     1      21.252   6.297  48.492  1.00  0.00     0.046 C 
HETATM   15  C19 UNL     1      22.168   6.670  47.333  1.00  0.00     0.176 C 
HETATM   16  O2  UNL     1      23.403   6.019  47.622  1.00  0.00    -0.354 OA
HETATM   17  C20 UNL     1      24.215   6.432  48.646  1.00  0.00     0.068 C 
HETATM   18  C21 UNL     1      24.941   7.036  49.576  1.00  0.00    -0.006 C 
HETATM   19  C22 UNL     1      25.847   8.178  49.446  1.00  0.00     0.053 C 
ENDROOT
BRANCH   6  20
HETATM   20  N3  UNL     1      21.869   2.196  52.266  1.00  0.00    -0.339 N 
HETATM   21  H6  UNL     1      21.841   1.615  51.370  1.00  0.00     0.167 HD
BRANCH  20  22
HETATM   22  C7  UNL     1      22.036   1.102  53.106  1.00  0.00     0.035 A 
HETATM   23  C8  UNL     1      21.061   0.457  53.818  1.00  0.00     0.032 A 
HETATM   24  C9  UNL     1      21.384  -0.606  54.615  1.00  0.00     0.046 A 
HETATM   25  C10 UNL     1      22.714  -0.952  54.632  1.00  0.00     0.138 A 
HETATM   26  F1  UNL     1      23.042  -2.021  55.424  1.00  0.00    -0.204 F 
HETATM   27  C11 UNL     1      23.773  -0.385  53.963  1.00  0.00     0.074 A 
HETATM   28 CL1  UNL     1      25.412  -0.968  54.111  1.00  0.00    -0.081 Cl
HETATM   29  C12 UNL     1      23.359   0.696  53.171  1.00  0.00     0.056 A 
ENDBRANCH  20  22
ENDBRANCH   6  20
BRANCH   1  30
HETATM   30  C2  UNL     1      26.277   5.152  49.211  1.00  0.00    -0.019 C 
HETATM   31  C1  UNL     1      27.197   4.294  48.958  1.00  0.00     0.008 C 
ENDBRANCH   1  30
TORSDOF 3
ENDMDL
MODEL 6
REMARK VINA RESULT:      -8.2      7.933     11.523
REMARK  3 active torsions:
REMARK  status: ('A' for Active; 'I' for Inactive)
REMARK    1  A    between atoms: C2_2  and  C3_3 
REMARK    2  A    between atoms: C6_8  and  N3_9 
REMARK    3  A    between atoms: N3_9  and  C7_10 
ROOT
HETATM    1  C3  UNL     1      32.041   3.898  46.590  1.00  0.00     0.117 C 
HETATM    2  C4  UNL     1      32.582   4.659  47.741  1.00  0.00     0.058 C 
HETATM    3  N1  UNL     1      32.456   5.446  48.719  1.00  0.00    -0.245 NA
HETATM    4  C5  UNL     1      31.223   6.046  49.102  1.00  0.00     0.235 C 
HETATM    5  N2  UNL     1      30.672   6.412  47.998  1.00  0.00    -0.222 NA
HETATM    6  C6  UNL     1      29.453   7.049  47.800  1.00  0.00     0.154 C 
HETATM    7  C13 UNL     1      29.531   7.943  46.817  1.00  0.00     0.077 C 
HETATM    8  C14 UNL     1      28.452   8.827  46.301  1.00  0.00     0.228 C 
HETATM    9  O1  UNL     1      28.812  10.177  46.400  1.00  0.00    -0.384 OA
HETATM   10  C15 UNL     1      29.865  10.470  45.572  1.00  0.00     0.187 C 
HETATM   11  C16 UNL     1      31.063   9.674  46.079  1.00  0.00     0.149 C 
HETATM   12  N4  UNL     1      30.656   8.276  45.986  1.00  0.00    -0.377 N 
HETATM   13  C17 UNL     1      31.374   7.370  45.101  1.00  0.00     0.125 C 
HETATM   14  C18 UNL     1      32.859   7.419  45.320  1.00  0.00     0.046 C 
HETATM   15  C19 UNL     1      33.519   6.394  44.405  1.00  0.00     0.176 C 
HETATM   16  O2  UNL     1      32.949   5.145  44.791  1.00  0.00    -0.354 OA
HETATM   17  C20 UNL     1      33.252   4.552  45.990  1.00  0.00     0.068 C 
HETATM   18  C21 UNL     1      33.750   4.054  47.112  1.00  0.00    -0.006 C 
HETATM   19  C22 UNL     1      34.979   3.288  47.319  1.00  0.00     0.053 C 
ENDROOT
BRANCH   6  20
HETATM   20  N3  UNL     1      28.235   6.868  48.444  1.00  0.00    -0.339 N 
HETATM   21  H6  UNL     1      28.137   7.932  48.418  1.00  0.00     0.167 HD
BRANCH  20  22
HETATM   22  C7  UNL     1      27.023   6.658  49.088  1.00  0.00     0.035 A 
HETATM   23  C8  UNL     1      26.297   7.578  49.795  1.00  0.00     0.032 A 
HETATM   24  C9  UNL     1      25.119   7.215  50.385  1.00  0.00     0.046 A 
HETATM   25  C10 UNL     1      24.746   5.904  50.209  1.00  0.00     0.138 A 
HETATM   26  F1  UNL     1      23.562   5.538  50.793  1.00  0.00    -0.204 F 
HETATM   27  C11 UNL     1      25.386   4.898  49.524  1.00  0.00     0.074 A 
HETATM   28 CL1  UNL     1      24.753   3.276  49.410  1.00  0.00    -0.081 Cl
HETATM   29  C12 UNL     1      26.584   5.351  48.952  1.00  0.00     0.056 A 
ENDBRANCH  20  22
ENDBRANCH   6  20
BRANCH   1  30
HETATM   30  C2  UNL     1      32.099   2.455  46.682  1.00  0.00    -0.019 C 
HETATM   31  C1  UNL     1      31.415   1.406  46.402  1.00  0.00     0.008 C 
ENDBRANCH   1  30
TORSDOF 3
ENDMDL
MODEL 7
REMARK VINA RESULT:      -8.2      3.728      5.590
REMARK  3 active torsions:
REMARK  status: ('A' for Active; 'I' for Inactive)
REMARK    1  A    between atoms: C2_2  and  C3_3 
REMARK    2  A    between atoms: C6_8  and  N3_9 
REMARK    3  A    between atoms: N3_9  and  C7_10 
ROOT
HETATM    1  C3  UNL     1      20.886   3.292  49.680  1.00  0.00     0.117 C 
HETATM    2  C4  UNL     1      21.005   4.270  50.787  1.00  0.00     0.058 C 
HETATM    3  N1  UNL     1      21.645   5.126  51.459  1.00  0.00    -0.245 NA
HETATM    4  C5  UNL     1      22.987   5.511  51.182  1.00  0.00     0.235 C 
HETATM    5  N2  UNL     1      23.603   4.411  50.922  1.00  0.00    -0.222 NA
HETATM    6  C6  UNL     1      24.937   4.217  50.586  1.00  0.00     0.154 C 
HETATM    7  C13 UNL     1      25.417   3.108  51.144  1.00  0.00     0.077 C 
HETATM    8  C14 UNL     1      26.793   2.552  51.031  1.00  0.00     0.228 C 
HETATM    9  O1  UNL     1      27.391   2.418  52.290  1.00  0.00    -0.384 OA
HETATM   10  C15 UNL     1      26.744   1.475  53.047  1.00  0.00     0.187 C 
HETATM   11  C16 UNL     1      25.335   2.000  53.301  1.00  0.00     0.149 C 
HETATM   12  N4  UNL     1      24.742   2.150  51.977  1.00  0.00    -0.377 N 
HETATM   13  C17 UNL     1      23.577   1.358  51.610  1.00  0.00     0.125 C 
HETATM   14  C18 UNL     1      22.483   1.449  52.635  1.00  0.00     0.046 C 
HETATM   15  C19 UNL     1      21.285   0.648  52.137  1.00  0.00     0.176 C 
HETATM   16  O2  UNL     1      20.929   1.260  50.899  1.00  0.00    -0.354 OA
HETATM   17  C20 UNL     1      20.360   2.507  50.846  1.00  0.00     0.068 C 
HETATM   18  C21 UNL     1      19.700   3.649  50.977  1.00  0.00    -0.006 C 
HETATM   19  C22 UNL     1      18.275   3.870  51.224  1.00  0.00     0.053 C 
ENDROOT
BRANCH   6  20
HETATM   20  N3  UNL     1      25.775   4.975  49.777  1.00  0.00    -0.339 N 
HETATM   21  H6  UNL     1      26.463   4.159  49.834  1.00  0.00     0.167 HD
BRANCH  20  22
HETATM   22  C7  UNL     1      26.591   5.755  48.969  1.00  0.00     0.035 A 
HETATM   23  C8  UNL     1      26.251   6.923  48.342  1.00  0.00     0.032 A 
HETATM   24  C9  UNL     1      27.168   7.577  47.566  1.00  0.00     0.046 A 
HETATM   25  C10 UNL     1      28.404   6.982  47.479  1.00  0.00     0.138 A 
HETATM   26  F1  UNL     1      29.327   7.637  46.707  1.00  0.00    -0.204 F 
HETATM   27  C11 UNL     1      28.858   5.822  48.061  1.00  0.00     0.074 A 
HETATM   28 CL1  UNL     1      30.479   5.217  47.832  1.00  0.00    -0.081 Cl
HETATM   29  C12 UNL     1      27.860   5.214  48.837  1.00  0.00     0.056 A 
ENDBRANCH  20  22
ENDBRANCH   6  20
BRANCH   1  30
HETATM   30  C2  UNL     1      19.916   3.595  48.650  1.00  0.00    -0.019 C 
HETATM   31  C1  UNL     1      19.675   3.381  47.407  1.00  0.00     0.008 C 
ENDBRANCH   1  30
TORSDOF 3
ENDMDL
MODEL 8
REMARK VINA RESULT:      -7.7      3.405      6.246
REMARK  3 active torsions:
REMARK  status: ('A' for Active; 'I' for Inactive)
REMARK    1  A    between atoms: C2_2  and  C3_3 
REMARK    2  A    between atoms: C6_8  and  N3_9 
REMARK    3  A    between atoms: N3_9  and  C7_10 
ROOT
HETATM    1  C3  UNL     1      26.727   6.811  48.195  1.00  0.00     0.117 C 
HETATM    2  C4  UNL     1      26.224   7.568  49.366  1.00  0.00     0.058 C 
HETATM    3  N1  UNL     1      25.569   7.659  50.441  1.00  0.00    -0.245 NA
HETATM    4  C5  UNL     1      24.848   6.579  51.025  1.00  0.00     0.235 C 
HETATM    5  N2  UNL     1      24.253   6.003  50.039  1.00  0.00    -0.222 NA
HETATM    6  C6  UNL     1      23.416   4.894  50.053  1.00  0.00     0.154 C 
HETATM    7  C13 UNL     1      22.417   5.033  49.184  1.00  0.00     0.077 C 
HETATM    8  C14 UNL     1      21.316   4.074  48.899  1.00  0.00     0.228 C 
HETATM    9  O1  UNL     1      20.064   4.660  49.123  1.00  0.00    -0.384 OA
HETATM   10  C15 UNL     1      19.823   5.671  48.229  1.00  0.00     0.187 C 
HETATM   11  C16 UNL     1      20.855   6.760  48.504  1.00  0.00     0.149 C 
HETATM   12  N4  UNL     1      22.148   6.122  48.284  1.00  0.00    -0.377 N 
HETATM   13  C17 UNL     1      23.022   6.600  47.223  1.00  0.00     0.125 C 
HETATM   14  C18 UNL     1      23.230   8.087  47.286  1.00  0.00     0.046 C 
HETATM   15  C19 UNL     1      24.207   8.486  46.187  1.00  0.00     0.176 C 
HETATM   16  O2  UNL     1      25.397   7.754  46.475  1.00  0.00    -0.354 OA
HETATM   17  C20 UNL     1      26.188   8.057  47.553  1.00  0.00     0.068 C 
HETATM   18  C21 UNL     1      26.907   8.561  48.546  1.00  0.00    -0.006 C 
HETATM   19  C22 UNL     1      27.873   9.660  48.524  1.00  0.00     0.053 C 
ENDROOT
BRANCH   6  20
HETATM   20  N3  UNL     1      23.496   3.723  50.797  1.00  0.00    -0.339 N 
HETATM   21  H6  UNL     1      24.483   3.615  50.402  1.00  0.00     0.167 HD
BRANCH  20  22
HETATM   22  C7  UNL     1      23.547   2.558  51.552  1.00  0.00     0.035 A 
HETATM   23  C8  UNL     1      22.522   1.997  52.265  1.00  0.00     0.032 A 
HETATM   24  C9  UNL     1      22.730   0.844  52.971  1.00  0.00     0.046 A 
HETATM   25  C10 UNL     1      24.001   0.325  52.900  1.00  0.00     0.138 A 
HETATM   26  F1  UNL     1      24.212  -0.832  53.601  1.00  0.00    -0.204 F 
HETATM   27  C11 UNL     1      25.100   0.796  52.220  1.00  0.00     0.074 A 
HETATM   28 CL1  UNL     1      26.649  -0.007  52.249  1.00  0.00    -0.081 Cl
HETATM   29  C12 UNL     1      24.804   1.977  51.524  1.00  0.00     0.056 A 
ENDBRANCH  20  22
ENDBRANCH   6  20
BRANCH   1  30
HETATM   30  C2  UNL     1      28.160   6.637  48.103  1.00  0.00    -0.019 C 
HETATM   31  C1  UNL     1      29.070   5.741  48.230  1.00  0.00     0.008 C 
ENDBRANCH   1  30
TORSDOF 3
ENDMDL
MODEL 9
REMARK VINA RESULT:      -7.7      7.289      9.308
REMARK  3 active torsions:
REMARK  status: ('A' for Active; 'I' for Inactive)
REMARK    1  A    between atoms: C2_2  and  C3_3 
REMARK    2  A    between atoms: C6_8  and  N3_9 
REMARK    3  A    between atoms: N3_9  and  C7_10 
ROOT
HETATM    1  C3  UNL     1      28.694  10.819  46.447  1.00  0.00     0.117 C 
HETATM    2  C4  UNL     1      28.844  10.997  47.911  1.00  0.00     0.058 C 
HETATM    3  N1  UNL     1      29.237  10.617  49.048  1.00  0.00    -0.245 NA
HETATM    4  C5  UNL     1      29.922   9.392  49.283  1.00  0.00     0.235 C 
HETATM    5  N2  UNL     1      29.299   8.518  48.572  1.00  0.00    -0.222 NA
HETATM    6  C6  UNL     1      29.557   7.160  48.435  1.00  0.00     0.154 C 
HETATM    7  C13 UNL     1      28.427   6.461  48.357  1.00  0.00     0.077 C 
HETATM    8  C14 UNL     1      28.274   4.989  48.206  1.00  0.00     0.228 C 
HETATM    9  O1  UNL     1      27.529   4.446  49.261  1.00  0.00    -0.384 OA
HETATM   10  C15 UNL     1      26.232   4.890  49.231  1.00  0.00     0.187 C 
HETATM   11  C16 UNL     1      26.273   6.396  49.472  1.00  0.00     0.149 C 
HETATM   12  N4  UNL     1      27.069   6.934  48.374  1.00  0.00    -0.377 N 
HETATM   13  C17 UNL     1      26.464   7.855  47.423  1.00  0.00     0.125 C 
HETATM   14  C18 UNL     1      25.761   8.994  48.104  1.00  0.00     0.046 C 
HETATM   15  C19 UNL     1      25.220   9.938  47.036  1.00  0.00     0.176 C 
HETATM   16  O2  UNL     1      26.372  10.361  46.310  1.00  0.00    -0.354 OA
HETATM   17  C20 UNL     1      27.303  11.206  46.858  1.00  0.00     0.068 C 
HETATM   18  C21 UNL     1      28.027  12.125  47.480  1.00  0.00    -0.006 C 
HETATM   19  C22 UNL     1      27.829  13.573  47.544  1.00  0.00     0.053 C 
ENDROOT
BRANCH   6  20
HETATM   20  N3  UNL     1      30.768   6.483  48.356  1.00  0.00    -0.339 N 
HETATM   21  H6  UNL     1      30.410   6.082  47.432  1.00  0.00     0.167 HD
BRANCH  20  22
HETATM   22  C7  UNL     1      31.987   5.820  48.303  1.00  0.00     0.035 A 
HETATM   23  C8  UNL     1      33.203   6.303  48.705  1.00  0.00     0.032 A 
HETATM   24  C9  UNL     1      34.323   5.528  48.581  1.00  0.00     0.046 A 
HETATM   25  C10 UNL     1      34.124   4.279  48.044  1.00  0.00     0.138 A 
HETATM   26  F1  UNL     1      35.243   3.497  47.923  1.00  0.00    -0.204 F 
HETATM   27  C11 UNL     1      32.960   3.689  47.611  1.00  0.00     0.074 A 
HETATM   28 CL1  UNL     1      32.903   2.075  46.949  1.00  0.00    -0.081 Cl
HETATM   29  C12 UNL     1      31.862   4.546  47.771  1.00  0.00     0.056 A 
ENDBRANCH  20  22
ENDBRANCH   6  20
BRANCH   1  30
HETATM   30  C2  UNL     1      29.378  11.775  45.605  1.00  0.00    -0.019 C 
HETATM   31  C1  UNL     1      30.258  11.838  44.672  1.00  0.00     0.008 C 
ENDBRANCH   1  30
TORSDOF 3
ENDMDL
