MODEL 1
REMARK VINA RESULT:      -8.7      0.000      0.000
REMARK  2 active torsions:
REMARK  status: ('A' for Active; 'I' for Inactive)
REMARK    1  A    between atoms: C7_11  and  N3_12 
REMARK    2  A    between atoms: N3_12  and  C8_13 
ROOT
HETATM    1 CL1  UNL     1      19.410  -0.444  52.682  1.00  0.00    -0.088 Cl
HETATM    2  C1  UNL     1      20.983  -0.614  53.430  1.00  0.00     0.024 A 
HETATM    3  C2  UNL     1      21.169  -1.191  54.604  1.00  0.00     0.023 A 
HETATM    4  C3  UNL     1      22.595  -1.151  54.904  1.00  0.00     0.035 A 
HETATM    5  C4  UNL     1      23.242  -0.544  53.894  1.00  0.00     0.066 A 
HETATM    6  O1  UNL     1      24.645  -0.389  53.967  1.00  0.00    -0.294 OA
HETATM    7  C5  UNL     1      25.307   0.534  53.130  1.00  0.00     0.201 A 
HETATM    8  N1  UNL     1      26.645   0.268  53.050  1.00  0.00    -0.215 NA
HETATM    9  C6  UNL     1      27.404   1.071  52.280  1.00  0.00     0.238 A 
HETATM   10  N2  UNL     1      26.872   2.101  51.612  1.00  0.00    -0.222 NA
HETATM   11  C7  UNL     1      25.589   2.431  51.630  1.00  0.00     0.160 A 
HETATM   12  C14 UNL     1      24.795   1.625  52.411  1.00  0.00     0.128 A 
HETATM   13  N4  UNL     1      23.439   1.999  52.439  1.00  0.00    -0.382 N 
HETATM   14  C15 UNL     1      22.205   1.290  52.524  1.00  0.00     0.137 C 
HETATM   15  C16 UNL     1      22.269  -0.145  52.856  1.00  0.00     0.105 A 
HETATM   16  H9  UNL     1      23.324   3.058  52.387  1.00  0.00     0.160 HD
ENDROOT
BRANCH  11  17
HETATM   17  N3  UNL     1      25.031   3.518  50.914  1.00  0.00    -0.339 N 
HETATM   18  H4  UNL     1      24.033   3.802  50.855  1.00  0.00     0.167 HD
BRANCH  17  19
HETATM   19  C8  UNL     1      25.797   4.417  50.118  1.00  0.00     0.035 A 
HETATM   20  C9  UNL     1      26.876   4.067  49.332  1.00  0.00     0.029 A 
HETATM   21  C10 UNL     1      27.602   4.922  48.552  1.00  0.00     0.004 A 
HETATM   22  C11 UNL     1      27.277   6.240  48.510  1.00  0.00     0.019 A 
HETATM   23  C12 UNL     1      26.216   6.687  49.260  1.00  0.00     0.013 A 
HETATM   24 BR1  UNL     1      25.719   8.527  49.238  1.00  0.00    -0.051 Br
HETATM   25  C13 UNL     1      25.528   5.775  50.023  1.00  0.00     0.048 A 
ENDBRANCH  17  19
ENDBRANCH  11  17
TORSDOF 2
ENDMDL
MODEL 2
REMARK VINA RESULT:      -8.6      4.278      7.048
REMARK  2 active torsions:
REMARK  status: ('A' for Active; 'I' for Inactive)
REMARK    1  A    between atoms: C7_11  and  N3_12 
REMARK    2  A    between atoms: N3_12  and  C8_13 
ROOT
HETATM    1 CL1  UNL     1      29.073  -2.548  53.081  1.00  0.00    -0.088 Cl
HETATM    2  C1  UNL     1      28.581  -0.908  53.444  1.00  0.00     0.024 A 
HETATM    3  C2  UNL     1      29.315  -0.070  54.155  1.00  0.00     0.023 A 
HETATM    4  C3  UNL     1      28.593   1.192  54.250  1.00  0.00     0.035 A 
HETATM    5  C4  UNL     1      27.428   1.085  53.587  1.00  0.00     0.066 A 
HETATM    6  O1  UNL     1      26.554   2.196  53.545  1.00  0.00    -0.294 OA
HETATM    7  C5  UNL     1      25.200   2.027  53.183  1.00  0.00     0.201 A 
HETATM    8  N1  UNL     1      24.629   3.212  52.812  1.00  0.00    -0.215 NA
HETATM    9  C6  UNL     1      23.335   3.199  52.439  1.00  0.00     0.238 A 
HETATM   10  N2  UNL     1      22.624   2.066  52.429  1.00  0.00    -0.222 NA
HETATM   11  C7  UNL     1      23.095   0.876  52.771  1.00  0.00     0.160 A 
HETATM   12  C14 UNL     1      24.415   0.865  53.157  1.00  0.00     0.128 A 
HETATM   13  N4  UNL     1      24.896  -0.401  53.538  1.00  0.00    -0.382 N 
HETATM   14  C15 UNL     1      26.149  -1.072  53.426  1.00  0.00     0.137 C 
HETATM   15  C16 UNL     1      27.314  -0.269  53.009  1.00  0.00     0.105 A 
HETATM   16  H9  UNL     1      24.141  -0.978  54.021  1.00  0.00     0.160 HD
ENDROOT
BRANCH  11  17
HETATM   17  N3  UNL     1      22.339  -0.322  52.750  1.00  0.00    -0.339 N 
HETATM   18  H4  UNL     1      22.685  -1.299  52.811  1.00  0.00     0.167 HD
BRANCH  17  19
HETATM   19  C8  UNL     1      20.921  -0.359  52.624  1.00  0.00     0.035 A 
HETATM   20  C9  UNL     1      20.055  -0.954  53.519  1.00  0.00     0.029 A 
HETATM   21  C10 UNL     1      18.693  -0.975  53.413  1.00  0.00     0.004 A 
HETATM   22  C11 UNL     1      18.087  -0.375  52.355  1.00  0.00     0.019 A 
HETATM   23  C12 UNL     1      18.867   0.246  51.408  1.00  0.00     0.013 A 
HETATM   24 BR1  UNL     1      18.066   1.102  49.904  1.00  0.00    -0.051 Br
HETATM   25  C13 UNL     1      20.229   0.231  51.575  1.00  0.00     0.048 A 
ENDBRANCH  17  19
ENDBRANCH  11  17
TORSDOF 2
ENDMDL
MODEL 3
REMARK VINA RESULT:      -8.3      3.040      4.353
REMARK  2 active torsions:
REMARK  status: ('A' for Active; 'I' for Inactive)
REMARK    1  A    between atoms: C7_11  and  N3_12 
REMARK    2  A    between atoms: N3_12  and  C8_13 
ROOT
HETATM    1 CL1  UNL     1      28.650   0.769  54.779  1.00  0.00    -0.088 Cl
HETATM    2  C1  UNL     1      27.178   0.339  53.937  1.00  0.00     0.024 A 
HETATM    3  C2  UNL     1      26.997  -0.825  53.339  1.00  0.00     0.023 A 
HETATM    4  C3  UNL     1      25.664  -0.826  52.750  1.00  0.00     0.035 A 
HETATM    5  C4  UNL     1      25.066   0.350  53.008  1.00  0.00     0.066 A 
HETATM    6  O1  UNL     1      23.756   0.578  52.528  1.00  0.00    -0.294 OA
HETATM    7  C5  UNL     1      23.238   1.889  52.461  1.00  0.00     0.201 A 
HETATM    8  N1  UNL     1      21.874   1.884  52.366  1.00  0.00    -0.215 NA
HETATM    9  C6  UNL     1      21.242   3.071  52.295  1.00  0.00     0.238 A 
HETATM   10  N2  UNL     1      21.921   4.225  52.316  1.00  0.00    -0.222 NA
HETATM   11  C7  UNL     1      23.238   4.323  52.406  1.00  0.00     0.160 A 
HETATM   12  C14 UNL     1      23.906   3.123  52.479  1.00  0.00     0.128 A 
HETATM   13  N4  UNL     1      25.305   3.241  52.553  1.00  0.00    -0.382 N 
HETATM   14  C15 UNL     1      26.340   2.507  53.203  1.00  0.00     0.137 C 
HETATM   15  C16 UNL     1      25.981   1.205  53.793  1.00  0.00     0.105 A 
HETATM   16  H9  UNL     1      25.659   4.072  51.986  1.00  0.00     0.160 HD
ENDROOT
BRANCH  11  17
HETATM   17  N3  UNL     1      23.950   5.547  52.436  1.00  0.00    -0.339 N 
HETATM   18  H4  UNL     1      24.410   6.002  53.250  1.00  0.00     0.167 HD
BRANCH  17  19
HETATM   19  C8  UNL     1      24.137   6.380  51.297  1.00  0.00     0.035 A 
HETATM   20  C9  UNL     1      23.297   7.405  50.910  1.00  0.00     0.029 A 
HETATM   21  C10 UNL     1      23.482   8.220  49.829  1.00  0.00     0.004 A 
HETATM   22  C11 UNL     1      24.570   8.050  49.032  1.00  0.00     0.019 A 
HETATM   23  C12 UNL     1      25.466   7.053  49.336  1.00  0.00     0.013 A 
HETATM   24 BR1  UNL     1      27.008   6.773  48.250  1.00  0.00    -0.051 Br
HETATM   25  C13 UNL     1      25.221   6.270  50.437  1.00  0.00     0.048 A 
ENDBRANCH  17  19
ENDBRANCH  11  17
TORSDOF 2
ENDMDL
MODEL 4
REMARK VINA RESULT:      -8.3      4.192      7.821
REMARK  2 active torsions:
REMARK  status: ('A' for Active; 'I' for Inactive)
REMARK    1  A    between atoms: C7_11  and  N3_12 
REMARK    2  A    between atoms: N3_12  and  C8_13 
ROOT
HETATM    1 CL1  UNL     1      28.698   6.613  47.429  1.00  0.00    -0.088 Cl
HETATM    2  C1  UNL     1      27.526   7.127  48.624  1.00  0.00     0.024 A 
HETATM    3  C2  UNL     1      27.594   8.287  49.253  1.00  0.00     0.023 A 
HETATM    4  C3  UNL     1      26.460   8.371  50.165  1.00  0.00     0.035 A 
HETATM    5  C4  UNL     1      25.728   7.248  50.063  1.00  0.00     0.066 A 
HETATM    6  O1  UNL     1      24.570   7.105  50.862  1.00  0.00    -0.294 OA
HETATM    7  C5  UNL     1      23.987   5.834  51.053  1.00  0.00     0.201 A 
HETATM    8  N1  UNL     1      22.697   5.935  51.494  1.00  0.00    -0.215 NA
HETATM    9  C6  UNL     1      22.015   4.796  51.718  1.00  0.00     0.238 A 
HETATM   10  N2  UNL     1      22.575   3.598  51.518  1.00  0.00    -0.222 NA
HETATM   11  C7  UNL     1      23.814   3.405  51.092  1.00  0.00     0.160 A 
HETATM   12  C14 UNL     1      24.531   4.555  50.858  1.00  0.00     0.128 A 
HETATM   13  N4  UNL     1      25.852   4.337  50.426  1.00  0.00    -0.382 N 
HETATM   14  C15 UNL     1      26.740   5.009  49.536  1.00  0.00     0.137 C 
HETATM   15  C16 UNL     1      26.343   6.349  49.065  1.00  0.00     0.105 A 
HETATM   16  H9  UNL     1      26.274   3.469  50.879  1.00  0.00     0.160 HD
ENDROOT
BRANCH  11  17
HETATM   17  N3  UNL     1      24.399   2.134  50.875  1.00  0.00    -0.339 N 
HETATM   18  H4  UNL     1      24.630   1.681  49.968  1.00  0.00     0.167 HD
BRANCH  17  19
HETATM   19  C8  UNL     1      24.760   1.241  51.923  1.00  0.00     0.035 A 
HETATM   20  C9  UNL     1      23.876   0.585  52.755  1.00  0.00     0.029 A 
HETATM   21  C10 UNL     1      24.216  -0.288  53.749  1.00  0.00     0.004 A 
HETATM   22  C11 UNL     1      25.525  -0.570  53.982  1.00  0.00     0.019 A 
HETATM   23  C12 UNL     1      26.483   0.035  53.204  1.00  0.00     0.013 A 
HETATM   24 BR1  UNL     1      28.333  -0.327  53.491  1.00  0.00    -0.051 Br
HETATM   25  C13 UNL     1      26.073   0.902  52.222  1.00  0.00     0.048 A 
ENDBRANCH  17  19
ENDBRANCH  11  17
TORSDOF 2
ENDMDL
MODEL 5
REMARK VINA RESULT:      -8.3      4.304      7.905
REMARK  2 active torsions:
REMARK  status: ('A' for Active; 'I' for Inactive)
REMARK    1  A    between atoms: C7_11  and  N3_12 
REMARK    2  A    between atoms: N3_12  and  C8_13 
ROOT
HETATM    1 CL1  UNL     1      28.672   6.531  47.482  1.00  0.00    -0.088 Cl
HETATM    2  C1  UNL     1      27.499   7.080  48.660  1.00  0.00     0.024 A 
HETATM    3  C2  UNL     1      27.596   8.235  49.295  1.00  0.00     0.023 A 
HETATM    4  C3  UNL     1      26.450   8.353  50.189  1.00  0.00     0.035 A 
HETATM    5  C4  UNL     1      25.683   7.256  50.070  1.00  0.00     0.066 A 
HETATM    6  O1  UNL     1      24.508   7.149  50.850  1.00  0.00    -0.294 OA
HETATM    7  C5  UNL     1      23.879   5.897  51.025  1.00  0.00     0.201 A 
HETATM    8  N1  UNL     1      22.586   6.041  51.446  1.00  0.00    -0.215 NA
HETATM    9  C6  UNL     1      21.862   4.925  51.655  1.00  0.00     0.238 A 
HETATM   10  N2  UNL     1      22.385   3.709  51.458  1.00  0.00    -0.222 NA
HETATM   11  C7  UNL     1      23.624   3.476  51.051  1.00  0.00     0.160 A 
HETATM   12  C14 UNL     1      24.383   4.602  50.833  1.00  0.00     0.128 A 
HETATM   13  N4  UNL     1      25.703   4.341  50.422  1.00  0.00    -0.382 N 
HETATM   14  C15 UNL     1      26.627   4.986  49.550  1.00  0.00     0.137 C 
HETATM   15  C16 UNL     1      26.283   6.340  49.078  1.00  0.00     0.105 A 
HETATM   16  H9  UNL     1      26.087   3.457  50.878  1.00  0.00     0.160 HD
ENDROOT
BRANCH  11  17
HETATM   17  N3  UNL     1      24.168   2.186  50.837  1.00  0.00    -0.339 N 
HETATM   18  H4  UNL     1      24.435   1.745  49.935  1.00  0.00     0.167 HD
BRANCH  17  19
HETATM   19  C8  UNL     1      24.430   1.256  51.882  1.00  0.00     0.035 A 
HETATM   20  C9  UNL     1      25.683   0.890  52.331  1.00  0.00     0.029 A 
HETATM   21  C10 UNL     1      25.940   0.013  53.346  1.00  0.00     0.004 A 
HETATM   22  C11 UNL     1      24.910  -0.579  54.005  1.00  0.00     0.019 A 
HETATM   23  C12 UNL     1      23.622  -0.279  53.630  1.00  0.00     0.013 A 
HETATM   24 BR1  UNL     1      22.141  -1.083  54.522  1.00  0.00    -0.051 Br
HETATM   25  C13 UNL     1      23.434   0.611  52.602  1.00  0.00     0.048 A 
ENDBRANCH  17  19
ENDBRANCH  11  17
TORSDOF 2
ENDMDL
MODEL 6
REMARK VINA RESULT:      -8.2      2.150      2.450
REMARK  2 active torsions:
REMARK  status: ('A' for Active; 'I' for Inactive)
REMARK    1  A    between atoms: C7_11  and  N3_12 
REMARK    2  A    between atoms: N3_12  and  C8_13 
ROOT
HETATM    1 CL1  UNL     1      18.961  -0.108  52.716  1.00  0.00    -0.088 Cl
HETATM    2  C1  UNL     1      20.540  -0.597  53.291  1.00  0.00     0.024 A 
HETATM    3  C2  UNL     1      20.720  -1.518  54.221  1.00  0.00     0.023 A 
HETATM    4  C3  UNL     1      22.154  -1.662  54.441  1.00  0.00     0.035 A 
HETATM    5  C4  UNL     1      22.811  -0.815  53.630  1.00  0.00     0.066 A 
HETATM    6  O1  UNL     1      24.224  -0.778  53.671  1.00  0.00    -0.294 OA
HETATM    7  C5  UNL     1      24.926   0.315  53.120  1.00  0.00     0.201 A 
HETATM    8  N1  UNL     1      26.237   0.003  52.890  1.00  0.00    -0.215 NA
HETATM    9  C6  UNL     1      27.030   0.956  52.362  1.00  0.00     0.238 A 
HETATM   10  N2  UNL     1      26.556   2.173  52.069  1.00  0.00    -0.222 NA
HETATM   11  C7  UNL     1      25.303   2.560  52.257  1.00  0.00     0.160 A 
HETATM   12  C14 UNL     1      24.476   1.604  52.797  1.00  0.00     0.128 A 
HETATM   13  N4  UNL     1      23.154   2.035  53.011  1.00  0.00    -0.382 N 
HETATM   14  C15 UNL     1      21.873   1.413  52.943  1.00  0.00     0.137 C 
HETATM   15  C16 UNL     1      21.838  -0.056  52.818  1.00  0.00     0.105 A 
HETATM   16  H9  UNL     1      23.118   3.063  53.290  1.00  0.00     0.160 HD
ENDROOT
BRANCH  11  17
HETATM   17  N3  UNL     1      24.806   3.847  51.937  1.00  0.00    -0.339 N 
HETATM   18  H4  UNL     1      24.763   4.687  52.547  1.00  0.00     0.167 HD
BRANCH  17  19
HETATM   19  C8  UNL     1      24.253   4.188  50.670  1.00  0.00     0.035 A 
HETATM   20  C9  UNL     1      24.284   5.443  50.096  1.00  0.00     0.029 A 
HETATM   21  C10 UNL     1      23.773   5.770  48.872  1.00  0.00     0.004 A 
HETATM   22  C11 UNL     1      23.170   4.818  48.114  1.00  0.00     0.019 A 
HETATM   23  C12 UNL     1      23.089   3.535  48.600  1.00  0.00     0.013 A 
HETATM   24 BR1  UNL     1      22.253   2.161  47.576  1.00  0.00    -0.051 Br
HETATM   25  C13 UNL     1      23.624   3.273  49.837  1.00  0.00     0.048 A 
ENDBRANCH  17  19
ENDBRANCH  11  17
TORSDOF 2
ENDMDL
MODEL 7
REMARK VINA RESULT:      -8.1      2.932      4.162
REMARK  2 active torsions:
REMARK  status: ('A' for Active; 'I' for Inactive)
REMARK    1  A    between atoms: C7_11  and  N3_12 
REMARK    2  A    between atoms: N3_12  and  C8_13 
ROOT
HETATM    1 CL1  UNL     1      28.093   0.214  55.040  1.00  0.00    -0.088 Cl
HETATM    2  C1  UNL     1      26.541   0.352  54.242  1.00  0.00     0.024 A 
HETATM    3  C2  UNL     1      25.556  -0.510  54.420  1.00  0.00     0.023 A 
HETATM    4  C3  UNL     1      24.428  -0.079  53.602  1.00  0.00     0.035 A 
HETATM    5  C4  UNL     1      24.765   1.044  52.944  1.00  0.00     0.066 A 
HETATM    6  O1  UNL     1      23.820   1.647  52.083  1.00  0.00    -0.294 OA
HETATM    7  C5  UNL     1      24.233   2.593  51.120  1.00  0.00     0.201 A 
HETATM    8  N1  UNL     1      23.182   3.345  50.674  1.00  0.00    -0.215 NA
HETATM    9  C6  UNL     1      23.431   4.292  49.749  1.00  0.00     0.238 A 
HETATM   10  N2  UNL     1      24.666   4.497  49.277  1.00  0.00    -0.222 NA
HETATM   11  C7  UNL     1      25.740   3.819  49.653  1.00  0.00     0.160 A 
HETATM   12  C14 UNL     1      25.509   2.845  50.596  1.00  0.00     0.128 A 
HETATM   13  N4  UNL     1      26.654   2.118  50.970  1.00  0.00    -0.382 N 
HETATM   14  C15 UNL     1      27.111   1.521  52.182  1.00  0.00     0.137 C 
HETATM   15  C16 UNL     1      26.149   1.424  53.295  1.00  0.00     0.105 A 
HETATM   16  H9  UNL     1      27.322   1.989  50.149  1.00  0.00     0.160 HD
ENDROOT
BRANCH  11  17
HETATM   17  N3  UNL     1      27.047   4.047  49.155  1.00  0.00    -0.339 N 
HETATM   18  H4  UNL     1      27.847   3.385  49.129  1.00  0.00     0.167 HD
BRANCH  17  19
HETATM   19  C8  UNL     1      27.476   5.286  48.602  1.00  0.00     0.035 A 
HETATM   20  C9  UNL     1      26.682   6.401  48.428  1.00  0.00     0.029 A 
HETATM   21  C10 UNL     1      27.094   7.599  47.916  1.00  0.00     0.004 A 
HETATM   22  C11 UNL     1      28.386   7.760  47.527  1.00  0.00     0.019 A 
HETATM   23  C12 UNL     1      29.256   6.704  47.661  1.00  0.00     0.013 A 
HETATM   24 BR1  UNL     1      31.079   6.878  47.131  1.00  0.00    -0.051 Br
HETATM   25  C13 UNL     1      28.777   5.529  48.183  1.00  0.00     0.048 A 
ENDBRANCH  17  19
ENDBRANCH  11  17
TORSDOF 2
ENDMDL
MODEL 8
REMARK VINA RESULT:      -8.0      4.991      8.756
REMARK  2 active torsions:
REMARK  status: ('A' for Active; 'I' for Inactive)
REMARK    1  A    between atoms: C7_11  and  N3_12 
REMARK    2  A    between atoms: N3_12  and  C8_13 
ROOT
HETATM    1 CL1  UNL     1      30.668   7.310  46.375  1.00  0.00    -0.088 Cl
HETATM    2  C1  UNL     1      29.739   8.038  47.667  1.00  0.00     0.024 A 
HETATM    3  C2  UNL     1      30.199   9.014  48.430  1.00  0.00     0.023 A 
HETATM    4  C3  UNL     1      29.158   9.364  49.389  1.00  0.00     0.035 A 
HETATM    5  C4  UNL     1      28.084   8.583  49.179  1.00  0.00     0.066 A 
HETATM    6  O1  UNL     1      26.944   8.744  49.999  1.00  0.00    -0.294 OA
HETATM    7  C5  UNL     1      25.957   7.737  50.056  1.00  0.00     0.201 A 
HETATM    8  N1  UNL     1      24.779   8.217  50.556  1.00  0.00    -0.215 NA
HETATM    9  C6  UNL     1      23.744   7.362  50.667  1.00  0.00     0.238 A 
HETATM   10  N2  UNL     1      23.858   6.080  50.301  1.00  0.00    -0.222 NA
HETATM   11  C7  UNL     1      24.957   5.531  49.807  1.00  0.00     0.160 A 
HETATM   12  C14 UNL     1      26.028   6.385  49.686  1.00  0.00     0.128 A 
HETATM   13  N4  UNL     1      27.195   5.784  49.181  1.00  0.00    -0.382 N 
HETATM   14  C15 UNL     1      28.265   6.219  48.345  1.00  0.00     0.137 C 
HETATM   15  C16 UNL     1      28.357   7.662  48.056  1.00  0.00     0.105 A 
HETATM   16  H9  UNL     1      27.288   4.774  49.508  1.00  0.00     0.160 HD
ENDROOT
BRANCH  11  17
HETATM   17  N3  UNL     1      25.069   4.174  49.413  1.00  0.00    -0.339 N 
HETATM   18  H4  UNL     1      25.039   3.781  48.452  1.00  0.00     0.167 HD
BRANCH  17  19
HETATM   19  C8  UNL     1      25.233   3.097  50.330  1.00  0.00     0.035 A 
HETATM   20  C9  UNL     1      26.443   2.575  50.740  1.00  0.00     0.029 A 
HETATM   21  C10 UNL     1      26.607   1.555  51.634  1.00  0.00     0.004 A 
HETATM   22  C11 UNL     1      25.519   0.967  52.196  1.00  0.00     0.019 A 
HETATM   23  C12 UNL     1      24.268   1.417  51.849  1.00  0.00     0.013 A 
HETATM   24 BR1  UNL     1      22.708   0.626  52.609  1.00  0.00    -0.051 Br
HETATM   25  C13 UNL     1      24.173   2.446  50.946  1.00  0.00     0.048 A 
ENDBRANCH  17  19
ENDBRANCH  11  17
TORSDOF 2
ENDMDL
MODEL 9
REMARK VINA RESULT:      -7.9      2.624      3.894
REMARK  2 active torsions:
REMARK  status: ('A' for Active; 'I' for Inactive)
REMARK    1  A    between atoms: C7_11  and  N3_12 
REMARK    2  A    between atoms: N3_12  and  C8_13 
ROOT
HETATM    1 CL1  UNL     1      25.320  -0.911  54.300  1.00  0.00    -0.088 Cl
HETATM    2  C1  UNL     1      23.612  -0.535  54.221  1.00  0.00     0.024 A 
HETATM    3  C2  UNL     1      22.681  -1.265  54.809  1.00  0.00     0.023 A 
HETATM    4  C3  UNL     1      21.387  -0.653  54.529  1.00  0.00     0.035 A 
HETATM    5  C4  UNL     1      21.571   0.442  53.772  1.00  0.00     0.066 A 
HETATM    6  O1  UNL     1      20.448   1.202  53.374  1.00  0.00    -0.294 OA
HETATM    7  C5  UNL     1      20.549   2.125  52.311  1.00  0.00     0.201 A 
HETATM    8  N1  UNL     1      19.523   3.028  52.331  1.00  0.00    -0.215 NA
HETATM    9  C6  UNL     1      19.494   3.972  51.371  1.00  0.00     0.238 A 
HETATM   10  N2  UNL     1      20.436   4.031  50.423  1.00  0.00    -0.222 NA
HETATM   11  C7  UNL     1      21.464   3.201  50.328  1.00  0.00     0.160 A 
HETATM   12  C14 UNL     1      21.514   2.227  51.297  1.00  0.00     0.128 A 
HETATM   13  N4  UNL     1      22.598   1.339  51.171  1.00  0.00    -0.382 N 
HETATM   14  C15 UNL     1      23.429   0.636  52.091  1.00  0.00     0.137 C 
HETATM   15  C16 UNL     1      23.014   0.620  53.506  1.00  0.00     0.105 A 
HETATM   16  H9  UNL     1      22.839   1.158  50.149  1.00  0.00     0.160 HD
ENDROOT
BRANCH  11  17
HETATM   17  N3  UNL     1      22.463   3.274  49.326  1.00  0.00    -0.339 N 
HETATM   18  H4  UNL     1      22.487   2.788  48.408  1.00  0.00     0.167 HD
BRANCH  17  19
HETATM   19  C8  UNL     1      23.646   4.057  49.446  1.00  0.00     0.035 A 
HETATM   20  C9  UNL     1      24.936   3.576  49.344  1.00  0.00     0.029 A 
HETATM   21  C10 UNL     1      26.074   4.325  49.439  1.00  0.00     0.004 A 
HETATM   22  C11 UNL     1      25.986   5.664  49.653  1.00  0.00     0.019 A 
HETATM   23  C12 UNL     1      24.743   6.238  49.769  1.00  0.00     0.013 A 
HETATM   24 BR1  UNL     1      24.564   8.112  50.071  1.00  0.00    -0.051 Br
HETATM   25  C13 UNL     1      23.640   5.427  49.664  1.00  0.00     0.048 A 
ENDBRANCH  17  19
ENDBRANCH  11  17
TORSDOF 2
ENDMDL
