MODEL 1
REMARK VINA RESULT:      -9.1      0.000      0.000
REMARK  6 active torsions:
REMARK  status: ('A' for Active; 'I' for Inactive)
REMARK    1  A    between atoms: N1_3  and  C3_4 
REMARK    2  A    between atoms: C4_5  and  C5_6 
REMARK    3  A    between atoms: C6_7  and  C7_8 
REMARK    4  A    between atoms: N3_11  and  C9_12 
REMARK    5  A    between atoms: C13_16  and  N4_17 
REMARK       I    between atoms: N4_17  and  C14_18 
REMARK    6  A    between atoms: C14_18  and  C15_20 
ROOT
HETATM    1  C9  UNL     1      24.435  -0.153  53.210  1.00  0.00     0.055 A 
HETATM    2  C10 UNL     1      25.586  -0.847  53.523  1.00  0.00     0.031 A 
HETATM    3  C11 UNL     1      26.848  -0.513  53.077  1.00  0.00     0.005 A 
HETATM    4  C12 UNL     1      26.932   0.608  52.256  1.00  0.00     0.029 A 
HETATM    5  C13 UNL     1      25.823   1.364  51.892  1.00  0.00     0.037 A 
HETATM    6  C22 UNL     1      24.605   0.932  52.401  1.00  0.00     0.060 A 
ENDROOT
BRANCH   1   7
HETATM    7  N3  UNL     1      23.149  -0.518  53.680  1.00  0.00    -0.271 N 
HETATM    8  C8  UNL     1      22.804  -1.163  54.906  1.00  0.00     0.300 A 
HETATM    9  N2  UNL     1      21.369  -1.298  54.883  1.00  0.00    -0.250 NA
HETATM   10  C7  UNL     1      20.835  -0.831  53.832  1.00  0.00     0.138 A 
HETATM   11  N5  UNL     1      21.916  -0.334  53.057  1.00  0.00    -0.280 N 
HETATM   12  H23 UNL     1      21.861   0.123  52.123  1.00  0.00     0.189 HD
BRANCH  10  13
HETATM   13  C6  UNL     1      19.404  -0.856  53.587  1.00  0.00     0.051 C 
HETATM   14  C5  UNL     1      18.766  -0.426  52.521  1.00  0.00     0.005 C 
BRANCH  14  15
HETATM   15  C4  UNL     1      18.648   0.170  51.204  1.00  0.00     0.019 C 
HETATM   16  C3  UNL     1      19.043   1.022  50.305  1.00  0.00     0.116 C 
BRANCH  16  17
HETATM   17  N1  UNL     1      20.091   1.597  51.067  1.00  0.00    -0.278 NA
HETATM   18  C2  UNL     1      20.053   2.844  51.393  1.00  0.00     0.085 C 
HETATM   19  C1  UNL     1      21.222   3.329  52.200  1.00  0.00     0.057 C 
ENDBRANCH  16  17
ENDBRANCH  14  15
ENDBRANCH  10  13
ENDBRANCH   1   7
BRANCH   5  20
HETATM   20  N4  UNL     1      25.943   2.497  51.058  1.00  0.00    -0.323 N 
HETATM   21  C14 UNL     1      25.146   3.242  50.149  1.00  0.00     0.256 C 
HETATM   22  O1  UNL     1      23.972   2.812  50.002  1.00  0.00    -0.267 OA
HETATM   23  H14 UNL     1      26.923   2.682  51.316  1.00  0.00     0.169 HD
BRANCH  21  24
HETATM   24  C15 UNL     1      25.747   4.386  49.503  1.00  0.00     0.032 A 
HETATM   25  C16 UNL     1      25.161   5.587  49.190  1.00  0.00     0.017 A 
HETATM   26  C17 UNL     1      25.869   6.592  48.567  1.00  0.00     0.007 A 
HETATM   27  C18 UNL     1      27.198   6.422  48.235  1.00  0.00    -0.062 A 
HETATM   28  C19 UNL     1      27.807   7.590  47.575  1.00  0.00     0.048 C 
HETATM   29  C20 UNL     1      27.785   5.216  48.548  1.00  0.00     0.007 A 
HETATM   30  C21 UNL     1      27.073   4.210  49.174  1.00  0.00     0.017 A 
ENDBRANCH  21  24
ENDBRANCH   5  20
TORSDOF 6
ENDMDL
MODEL 2
REMARK VINA RESULT:      -9.0      2.934      8.901
REMARK  6 active torsions:
REMARK  status: ('A' for Active; 'I' for Inactive)
REMARK    1  A    between atoms: N1_3  and  C3_4 
REMARK    2  A    between atoms: C4_5  and  C5_6 
REMARK    3  A    between atoms: C6_7  and  C7_8 
REMARK    4  A    between atoms: N3_11  and  C9_12 
REMARK    5  A    between atoms: C13_16  and  N4_17 
REMARK       I    between atoms: N4_17  and  C14_18 
REMARK    6  A    between atoms: C14_18  and  C15_20 
ROOT
HETATM    1  C9  UNL     1      23.881   3.119  52.326  1.00  0.00     0.055 A 
HETATM    2  C10 UNL     1      23.408   4.408  52.188  1.00  0.00     0.031 A 
HETATM    3  C11 UNL     1      22.072   4.755  52.186  1.00  0.00     0.005 A 
HETATM    4  C12 UNL     1      21.166   3.708  52.334  1.00  0.00     0.029 A 
HETATM    5  C13 UNL     1      21.559   2.382  52.478  1.00  0.00     0.037 A 
HETATM    6  C22 UNL     1      22.929   2.154  52.467  1.00  0.00     0.060 A 
ENDROOT
BRANCH   1   7
HETATM    7  N3  UNL     1      25.260   2.789  52.325  1.00  0.00    -0.271 N 
HETATM    8  C8  UNL     1      26.091   2.457  51.213  1.00  0.00     0.300 A 
HETATM    9  N2  UNL     1      27.399   2.209  51.766  1.00  0.00    -0.250 NA
HETATM   10  C7  UNL     1      27.448   2.346  53.025  1.00  0.00     0.138 A 
HETATM   11  N5  UNL     1      26.131   2.709  53.411  1.00  0.00    -0.280 N 
HETATM   12  H23 UNL     1      25.789   2.904  54.375  1.00  0.00     0.189 HD
BRANCH  10  13
HETATM   13  C6  UNL     1      28.659   2.148  53.802  1.00  0.00     0.051 C 
HETATM   14  C5  UNL     1      29.376   1.051  53.902  1.00  0.00     0.005 C 
BRANCH  14  15
HETATM   15  C4  UNL     1      29.716  -0.333  53.634  1.00  0.00     0.019 C 
HETATM   16  C3  UNL     1      29.368  -1.575  53.468  1.00  0.00     0.116 C 
BRANCH  16  17
HETATM   17  N1  UNL     1      27.977  -1.388  53.660  1.00  0.00    -0.278 NA
HETATM   18  C2  UNL     1      27.187  -1.273  52.647  1.00  0.00     0.085 C 
HETATM   19  C1  UNL     1      25.738  -1.079  52.985  1.00  0.00     0.057 C 
ENDBRANCH  16  17
ENDBRANCH  14  15
ENDBRANCH  10  13
ENDBRANCH   1   7
BRANCH   5  20
HETATM   20  N4  UNL     1      20.613   1.344  52.628  1.00  0.00    -0.323 N 
HETATM   21  C14 UNL     1      20.464   0.133  53.354  1.00  0.00     0.256 C 
HETATM   22  O1  UNL     1      21.432  -0.153  54.106  1.00  0.00    -0.267 OA
HETATM   23  H14 UNL     1      19.940   1.753  51.964  1.00  0.00     0.169 HD
BRANCH  21  24
HETATM   24  C15 UNL     1      19.250  -0.627  53.161  1.00  0.00     0.032 A 
HETATM   25  C16 UNL     1      18.872  -1.791  53.780  1.00  0.00     0.017 A 
HETATM   26  C17 UNL     1      17.674  -2.406  53.488  1.00  0.00     0.007 A 
HETATM   27  C18 UNL     1      16.809  -1.867  52.556  1.00  0.00    -0.062 A 
HETATM   28  C19 UNL     1      15.574  -2.644  52.361  1.00  0.00     0.048 C 
HETATM   29  C20 UNL     1      17.190  -0.698  51.934  1.00  0.00     0.007 A 
HETATM   30  C21 UNL     1      18.393  -0.083  52.230  1.00  0.00     0.017 A 
ENDBRANCH  21  24
ENDBRANCH   5  20
TORSDOF 6
ENDMDL
MODEL 3
REMARK VINA RESULT:      -8.7      3.765      7.130
REMARK  6 active torsions:
REMARK  status: ('A' for Active; 'I' for Inactive)
REMARK    1  A    between atoms: N1_3  and  C3_4 
REMARK    2  A    between atoms: C4_5  and  C5_6 
REMARK    3  A    between atoms: C6_7  and  C7_8 
REMARK    4  A    between atoms: N3_11  and  C9_12 
REMARK    5  A    between atoms: C13_16  and  N4_17 
REMARK       I    between atoms: N4_17  and  C14_18 
REMARK    6  A    between atoms: C14_18  and  C15_20 
ROOT
HETATM    1  C9  UNL     1      25.984   4.989  49.226  1.00  0.00     0.055 A 
HETATM    2  C10 UNL     1      25.482   6.224  48.871  1.00  0.00     0.031 A 
HETATM    3  C11 UNL     1      26.215   7.219  48.256  1.00  0.00     0.005 A 
HETATM    4  C12 UNL     1      27.549   6.923  47.990  1.00  0.00     0.029 A 
HETATM    5  C13 UNL     1      28.133   5.704  48.316  1.00  0.00     0.037 A 
HETATM    6  C22 UNL     1      27.299   4.780  48.931  1.00  0.00     0.060 A 
ENDROOT
BRANCH   1   7
HETATM    7  N3  UNL     1      25.210   3.984  49.858  1.00  0.00    -0.271 N 
HETATM    8  C8  UNL     1      24.099   3.257  49.331  1.00  0.00     0.300 A 
HETATM    9  N2  UNL     1      23.685   2.364  50.384  1.00  0.00    -0.250 NA
HETATM   10  C7  UNL     1      24.385   2.465  51.436  1.00  0.00     0.138 A 
HETATM   11  N5  UNL     1      25.348   3.467  51.145  1.00  0.00    -0.280 N 
HETATM   12  H23 UNL     1      26.096   3.821  51.777  1.00  0.00     0.189 HD
BRANCH  10  13
HETATM   13  C6  UNL     1      24.153   1.667  52.626  1.00  0.00     0.051 C 
HETATM   14  C5  UNL     1      24.829   0.614  53.029  1.00  0.00     0.005 C 
BRANCH  14  15
HETATM   15  C4  UNL     1      25.866  -0.398  52.953  1.00  0.00     0.019 C 
HETATM   16  C3  UNL     1      27.120  -0.733  52.869  1.00  0.00     0.116 C 
BRANCH  16  17
HETATM   17  N1  UNL     1      27.645   0.583  52.845  1.00  0.00    -0.278 NA
HETATM   18  C2  UNL     1      28.332   1.031  53.840  1.00  0.00     0.085 C 
HETATM   19  C1  UNL     1      28.831   2.438  53.691  1.00  0.00     0.057 C 
ENDBRANCH  16  17
ENDBRANCH  14  15
ENDBRANCH  10  13
ENDBRANCH   1   7
BRANCH   5  20
HETATM   20  N4  UNL     1      29.490   5.436  48.031  1.00  0.00    -0.323 N 
HETATM   21  C14 UNL     1      30.773   5.921  48.399  1.00  0.00     0.256 C 
HETATM   22  O1  UNL     1      30.761   6.874  49.221  1.00  0.00    -0.267 OA
HETATM   23  H14 UNL     1      29.284   4.668  47.377  1.00  0.00     0.169 HD
BRANCH  21  24
HETATM   24  C15 UNL     1      31.930   5.289  47.808  1.00  0.00     0.032 A 
HETATM   25  C16 UNL     1      33.236   5.705  47.849  1.00  0.00     0.017 A 
HETATM   26  C17 UNL     1      34.240   4.991  47.231  1.00  0.00     0.007 A 
HETATM   27  C18 UNL     1      33.961   3.825  46.545  1.00  0.00    -0.062 A 
HETATM   28  C19 UNL     1      35.143   3.184  45.943  1.00  0.00     0.048 C 
HETATM   29  C20 UNL     1      32.649   3.408  46.504  1.00  0.00     0.007 A 
HETATM   30  C21 UNL     1      31.645   4.126  47.125  1.00  0.00     0.017 A 
ENDBRANCH  21  24
ENDBRANCH   5  20
TORSDOF 6
ENDMDL
MODEL 4
REMARK VINA RESULT:      -8.4      3.976      9.764
REMARK  6 active torsions:
REMARK  status: ('A' for Active; 'I' for Inactive)
REMARK    1  A    between atoms: N1_3  and  C3_4 
REMARK    2  A    between atoms: C4_5  and  C5_6 
REMARK    3  A    between atoms: C6_7  and  C7_8 
REMARK    4  A    between atoms: N3_11  and  C9_12 
REMARK    5  A    between atoms: C13_16  and  N4_17 
REMARK       I    between atoms: N4_17  and  C14_18 
REMARK    6  A    between atoms: C14_18  and  C15_20 
ROOT
HETATM    1  C9  UNL     1      25.523   5.703  49.090  1.00  0.00     0.055 A 
HETATM    2  C10 UNL     1      24.240   5.495  48.627  1.00  0.00     0.031 A 
HETATM    3  C11 UNL     1      23.502   4.352  48.855  1.00  0.00     0.005 A 
HETATM    4  C12 UNL     1      24.124   3.360  49.608  1.00  0.00     0.029 A 
HETATM    5  C13 UNL     1      25.413   3.489  50.112  1.00  0.00     0.037 A 
HETATM    6  C22 UNL     1      26.059   4.683  49.819  1.00  0.00     0.060 A 
ENDROOT
BRANCH   1   7
HETATM    7  N3  UNL     1      26.262   6.888  48.841  1.00  0.00    -0.271 N 
HETATM    8  C8  UNL     1      26.261   7.702  47.668  1.00  0.00     0.300 A 
HETATM    9  N2  UNL     1      27.185   8.775  47.941  1.00  0.00    -0.250 NA
HETATM   10  C7  UNL     1      27.717   8.703  49.089  1.00  0.00     0.138 A 
HETATM   11  N5  UNL     1      27.164   7.537  49.681  1.00  0.00    -0.280 N 
HETATM   12  H23 UNL     1      27.369   7.156  50.628  1.00  0.00     0.189 HD
BRANCH  10  13
HETATM   13  C6  UNL     1      28.677   9.672  49.584  1.00  0.00     0.051 C 
HETATM   14  C5  UNL     1      29.977   9.686  49.387  1.00  0.00     0.005 C 
BRANCH  14  15
HETATM   15  C4  UNL     1      31.238   9.198  48.861  1.00  0.00     0.019 C 
HETATM   16  C3  UNL     1      32.000   8.221  48.467  1.00  0.00     0.116 C 
BRANCH  16  17
HETATM   17  N1  UNL     1      31.070   7.177  48.699  1.00  0.00    -0.278 NA
HETATM   18  C2  UNL     1      30.489   6.588  47.709  1.00  0.00     0.085 C 
HETATM   19  C1  UNL     1      29.528   5.500  48.088  1.00  0.00     0.057 C 
ENDBRANCH  16  17
ENDBRANCH  14  15
ENDBRANCH  10  13
ENDBRANCH   1   7
BRANCH   5  20
HETATM   20  N4  UNL     1      26.015   2.463  50.874  1.00  0.00    -0.323 N 
HETATM   21  C14 UNL     1      25.840   1.825  52.130  1.00  0.00     0.256 C 
HETATM   22  O1  UNL     1      24.878   2.261  52.815  1.00  0.00    -0.267 OA
HETATM   23  H14 UNL     1      26.737   2.255  50.170  1.00  0.00     0.169 HD
BRANCH  21  24
HETATM   24  C15 UNL     1      26.760   0.768  52.486  1.00  0.00     0.032 A 
HETATM   25  C16 UNL     1      26.591  -0.585  52.347  1.00  0.00     0.017 A 
HETATM   26  C17 UNL     1      27.566  -1.477  52.737  1.00  0.00     0.007 A 
HETATM   27  C18 UNL     1      28.754  -1.034  53.284  1.00  0.00    -0.062 A 
HETATM   28  C19 UNL     1      29.689  -2.113  53.646  1.00  0.00     0.048 C 
HETATM   29  C20 UNL     1      28.924   0.326  53.424  1.00  0.00     0.007 A 
HETATM   30  C21 UNL     1      27.943   1.218  53.032  1.00  0.00     0.017 A 
ENDBRANCH  21  24
ENDBRANCH   5  20
TORSDOF 6
ENDMDL
MODEL 5
REMARK VINA RESULT:      -8.3      2.587      7.100
REMARK  6 active torsions:
REMARK  status: ('A' for Active; 'I' for Inactive)
REMARK    1  A    between atoms: N1_3  and  C3_4 
REMARK    2  A    between atoms: C4_5  and  C5_6 
REMARK    3  A    between atoms: C6_7  and  C7_8 
REMARK    4  A    between atoms: N3_11  and  C9_12 
REMARK    5  A    between atoms: C13_16  and  N4_17 
REMARK       I    between atoms: N4_17  and  C14_18 
REMARK    6  A    between atoms: C14_18  and  C15_20 
ROOT
HETATM    1  C9  UNL     1      21.026   2.516  51.472  1.00  0.00     0.055 A 
HETATM    2  C10 UNL     1      20.026   1.566  51.528  1.00  0.00     0.031 A 
HETATM    3  C11 UNL     1      20.199   0.274  51.980  1.00  0.00     0.005 A 
HETATM    4  C12 UNL     1      21.482  -0.063  52.401  1.00  0.00     0.029 A 
HETATM    5  C13 UNL     1      22.545   0.833  52.378  1.00  0.00     0.037 A 
HETATM    6  C22 UNL     1      22.253   2.105  51.903  1.00  0.00     0.060 A 
ENDROOT
BRANCH   1   7
HETATM    7  N3  UNL     1      20.823   3.838  51.003  1.00  0.00    -0.271 N 
HETATM    8  C8  UNL     1      19.761   4.336  50.188  1.00  0.00     0.300 A 
HETATM    9  N2  UNL     1      20.037   5.740  50.007  1.00  0.00    -0.250 NA
HETATM   10  C7  UNL     1      21.094   6.125  50.590  1.00  0.00     0.138 A 
HETATM   11  N5  UNL     1      21.613   4.965  51.223  1.00  0.00    -0.280 N 
HETATM   12  H23 UNL     1      22.478   4.897  51.798  1.00  0.00     0.189 HD
BRANCH  10  13
HETATM   13  C6  UNL     1      21.573   7.495  50.548  1.00  0.00     0.051 C 
HETATM   14  C5  UNL     1      22.821   7.908  50.532  1.00  0.00     0.005 C 
BRANCH  14  15
HETATM   15  C4  UNL     1      24.263   7.753  50.533  1.00  0.00     0.019 C 
HETATM   16  C3  UNL     1      25.324   7.007  50.435  1.00  0.00     0.116 C 
BRANCH  16  17
HETATM   17  N1  UNL     1      24.647   5.778  50.233  1.00  0.00    -0.278 NA
HETATM   18  C2  UNL     1      25.114   4.904  49.408  1.00  0.00     0.085 C 
HETATM   19  C1  UNL     1      24.305   3.645  49.285  1.00  0.00     0.057 C 
ENDBRANCH  16  17
ENDBRANCH  14  15
ENDBRANCH  10  13
ENDBRANCH   1   7
BRANCH   5  20
HETATM   20  N4  UNL     1      23.836   0.459  52.813  1.00  0.00    -0.323 N 
HETATM   21  C14 UNL     1      24.431  -0.323  53.838  1.00  0.00     0.256 C 
HETATM   22  O1  UNL     1      23.615  -0.871  54.624  1.00  0.00    -0.267 OA
HETATM   23  H14 UNL     1      24.324   0.986  52.075  1.00  0.00     0.169 HD
BRANCH  21  24
HETATM   24  C15 UNL     1      25.873  -0.406  53.874  1.00  0.00     0.032 A 
HETATM   25  C16 UNL     1      26.736   0.217  54.740  1.00  0.00     0.017 A 
HETATM   26  C17 UNL     1      28.099   0.039  54.649  1.00  0.00     0.007 A 
HETATM   27  C18 UNL     1      28.645  -0.777  53.678  1.00  0.00    -0.062 A 
HETATM   28  C19 UNL     1      30.115  -0.859  53.717  1.00  0.00     0.048 C 
HETATM   29  C20 UNL     1      27.778  -1.402  52.808  1.00  0.00     0.007 A 
HETATM   30  C21 UNL     1      26.411  -1.222  52.903  1.00  0.00     0.017 A 
ENDBRANCH  21  24
ENDBRANCH   5  20
TORSDOF 6
ENDMDL
MODEL 6
REMARK VINA RESULT:      -8.2      2.677      9.469
REMARK  6 active torsions:
REMARK  status: ('A' for Active; 'I' for Inactive)
REMARK    1  A    between atoms: N1_3  and  C3_4 
REMARK    2  A    between atoms: C4_5  and  C5_6 
REMARK    3  A    between atoms: C6_7  and  C7_8 
REMARK    4  A    between atoms: N3_11  and  C9_12 
REMARK    5  A    between atoms: C13_16  and  N4_17 
REMARK       I    between atoms: N4_17  and  C14_18 
REMARK    6  A    between atoms: C14_18  and  C15_20 
ROOT
HETATM    1  C9  UNL     1      25.907   3.207  50.567  1.00  0.00     0.055 A 
HETATM    2  C10 UNL     1      26.841   2.496  51.292  1.00  0.00     0.031 A 
HETATM    3  C11 UNL     1      26.553   1.395  52.073  1.00  0.00     0.005 A 
HETATM    4  C12 UNL     1      25.219   1.000  52.108  1.00  0.00     0.029 A 
HETATM    5  C13 UNL     1      24.216   1.659  51.407  1.00  0.00     0.037 A 
HETATM    6  C22 UNL     1      24.623   2.754  50.656  1.00  0.00     0.060 A 
ENDROOT
BRANCH   1   7
HETATM    7  N3  UNL     1      26.228   4.336  49.773  1.00  0.00    -0.271 N 
HETATM    8  C8  UNL     1      25.361   5.376  49.319  1.00  0.00     0.300 A 
HETATM    9  N2  UNL     1      26.194   6.269  48.552  1.00  0.00    -0.250 NA
HETATM   10  C7  UNL     1      27.406   5.902  48.494  1.00  0.00     0.138 A 
HETATM   11  N5  UNL     1      27.466   4.699  49.245  1.00  0.00    -0.280 N 
HETATM   12  H23 UNL     1      28.305   4.107  49.418  1.00  0.00     0.189 HD
BRANCH  10  13
HETATM   13  C6  UNL     1      28.429   6.643  47.778  1.00  0.00     0.051 C 
HETATM   14  C5  UNL     1      29.704   6.743  48.078  1.00  0.00     0.005 C 
BRANCH  14  15
HETATM   15  C4  UNL     1      30.900   6.492  48.859  1.00  0.00     0.019 C 
HETATM   16  C3  UNL     1      31.901   5.729  49.189  1.00  0.00     0.116 C 
BRANCH  16  17
HETATM   17  N1  UNL     1      31.589   4.656  48.318  1.00  0.00    -0.278 NA
HETATM   18  C2  UNL     1      32.443   4.260  47.436  1.00  0.00     0.085 C 
HETATM   19  C1  UNL     1      31.991   3.115  46.577  1.00  0.00     0.057 C 
ENDBRANCH  16  17
ENDBRANCH  14  15
ENDBRANCH  10  13
ENDBRANCH   1   7
BRANCH   5  20
HETATM   20  N4  UNL     1      22.871   1.231  51.464  1.00  0.00    -0.323 N 
HETATM   21  C14 UNL     1      21.718   1.222  50.636  1.00  0.00     0.256 C 
HETATM   22  O1  UNL     1      21.882   1.736  49.499  1.00  0.00    -0.267 OA
HETATM   23  H14 UNL     1      22.946   0.862  52.423  1.00  0.00     0.169 HD
BRANCH  21  24
HETATM   24  C15 UNL     1      20.507   0.641  51.168  1.00  0.00     0.032 A 
HETATM   25  C16 UNL     1      19.282   0.533  50.561  1.00  0.00     0.017 A 
HETATM   26  C17 UNL     1      18.210  -0.051  51.201  1.00  0.00     0.007 A 
HETATM   27  C18 UNL     1      18.335  -0.550  52.482  1.00  0.00    -0.062 A 
HETATM   28  C19 UNL     1      17.099  -1.140  53.022  1.00  0.00     0.048 C 
HETATM   29  C20 UNL     1      19.566  -0.440  53.092  1.00  0.00     0.007 A 
HETATM   30  C21 UNL     1      20.639   0.146  52.447  1.00  0.00     0.017 A 
ENDBRANCH  21  24
ENDBRANCH   5  20
TORSDOF 6
ENDMDL
MODEL 7
REMARK VINA RESULT:      -8.2      3.713      6.226
REMARK  6 active torsions:
REMARK  status: ('A' for Active; 'I' for Inactive)
REMARK    1  A    between atoms: N1_3  and  C3_4 
REMARK    2  A    between atoms: C4_5  and  C5_6 
REMARK    3  A    between atoms: C6_7  and  C7_8 
REMARK    4  A    between atoms: N3_11  and  C9_12 
REMARK    5  A    between atoms: C13_16  and  N4_17 
REMARK       I    between atoms: N4_17  and  C14_18 
REMARK    6  A    between atoms: C14_18  and  C15_20 
ROOT
HETATM    1  C9  UNL     1      26.019   4.844  49.459  1.00  0.00     0.055 A 
HETATM    2  C10 UNL     1      25.503   6.089  49.163  1.00  0.00     0.031 A 
HETATM    3  C11 UNL     1      26.193   7.084  48.501  1.00  0.00     0.005 A 
HETATM    4  C12 UNL     1      27.497   6.778  48.120  1.00  0.00     0.029 A 
HETATM    5  C13 UNL     1      28.092   5.549  48.379  1.00  0.00     0.037 A 
HETATM    6  C22 UNL     1      27.301   4.625  49.051  1.00  0.00     0.060 A 
ENDROOT
BRANCH   1   7
HETATM    7  N3  UNL     1      25.289   3.838  50.141  1.00  0.00    -0.271 N 
HETATM    8  C8  UNL     1      24.053   3.230  49.764  1.00  0.00     0.300 A 
HETATM    9  N2  UNL     1      23.757   2.276  50.804  1.00  0.00    -0.250 NA
HETATM   10  C7  UNL     1      24.630   2.243  51.722  1.00  0.00     0.138 A 
HETATM   11  N5  UNL     1      25.604   3.205  51.342  1.00  0.00    -0.280 N 
HETATM   12  H23 UNL     1      26.473   3.456  51.857  1.00  0.00     0.189 HD
BRANCH  10  13
HETATM   13  C6  UNL     1      24.545   1.362  52.872  1.00  0.00     0.051 C 
HETATM   14  C5  UNL     1      23.560   0.552  53.190  1.00  0.00     0.005 C 
BRANCH  14  15
HETATM   15  C4  UNL     1      22.268  -0.087  53.020  1.00  0.00     0.019 C 
HETATM   16  C3  UNL     1      20.979  -0.015  52.865  1.00  0.00     0.116 C 
BRANCH  16  17
HETATM   17  N1  UNL     1      20.885   1.399  52.885  1.00  0.00    -0.278 NA
HETATM   18  C2  UNL     1      20.358   2.033  51.893  1.00  0.00     0.085 C 
HETATM   19  C1  UNL     1      20.318   3.526  52.038  1.00  0.00     0.057 C 
ENDBRANCH  16  17
ENDBRANCH  14  15
ENDBRANCH  10  13
ENDBRANCH   1   7
BRANCH   5  20
HETATM   20  N4  UNL     1      29.417   5.270  47.978  1.00  0.00    -0.323 N 
HETATM   21  C14 UNL     1      30.732   5.735  48.244  1.00  0.00     0.256 C 
HETATM   22  O1  UNL     1      30.801   6.675  49.078  1.00  0.00    -0.267 OA
HETATM   23  H14 UNL     1      29.147   4.515  47.332  1.00  0.00     0.169 HD
BRANCH  21  24
HETATM   24  C15 UNL     1      31.828   5.100  47.548  1.00  0.00     0.032 A 
HETATM   25  C16 UNL     1      31.846   3.870  46.940  1.00  0.00     0.017 A 
HETATM   26  C17 UNL     1      32.976   3.394  46.312  1.00  0.00     0.007 A 
HETATM   27  C18 UNL     1      34.135   4.145  46.272  1.00  0.00    -0.062 A 
HETATM   28  C19 UNL     1      35.249   3.495  45.563  1.00  0.00     0.048 C 
HETATM   29  C20 UNL     1      34.116   5.380  46.883  1.00  0.00     0.007 A 
HETATM   30  C21 UNL     1      32.980   5.854  47.513  1.00  0.00     0.017 A 
ENDBRANCH  21  24
ENDBRANCH   5  20
TORSDOF 6
ENDMDL
MODEL 8
REMARK VINA RESULT:      -8.1      2.511      5.394
REMARK  6 active torsions:
REMARK  status: ('A' for Active; 'I' for Inactive)
REMARK    1  A    between atoms: N1_3  and  C3_4 
REMARK    2  A    between atoms: C4_5  and  C5_6 
REMARK    3  A    between atoms: C6_7  and  C7_8 
REMARK    4  A    between atoms: N3_11  and  C9_12 
REMARK    5  A    between atoms: C13_16  and  N4_17 
REMARK       I    between atoms: N4_17  and  C14_18 
REMARK    6  A    between atoms: C14_18  and  C15_20 
ROOT
HETATM    1  C9  UNL     1      23.938   4.586  50.852  1.00  0.00     0.055 A 
HETATM    2  C10 UNL     1      23.359   5.723  51.377  1.00  0.00     0.031 A 
HETATM    3  C11 UNL     1      23.873   6.997  51.244  1.00  0.00     0.005 A 
HETATM    4  C12 UNL     1      25.059   7.107  50.523  1.00  0.00     0.029 A 
HETATM    5  C13 UNL     1      25.708   6.013  49.961  1.00  0.00     0.037 A 
HETATM    6  C22 UNL     1      25.097   4.782  50.161  1.00  0.00     0.060 A 
ENDROOT
BRANCH   1   7
HETATM    7  N3  UNL     1      23.390   3.288  51.004  1.00  0.00    -0.271 N 
HETATM    8  C8  UNL     1      22.640   2.526  50.058  1.00  0.00     0.300 A 
HETATM    9  N2  UNL     1      22.328   1.284  50.720  1.00  0.00    -0.250 NA
HETATM   10  C7  UNL     1      22.781   1.214  51.902  1.00  0.00     0.138 A 
HETATM   11  N5  UNL     1      23.451   2.448  52.115  1.00  0.00    -0.280 N 
HETATM   12  H23 UNL     1      23.948   2.752  52.978  1.00  0.00     0.189 HD
BRANCH  10  13
HETATM   13  C6  UNL     1      22.591   0.060  52.761  1.00  0.00     0.051 C 
HETATM   14  C5  UNL     1      23.460  -0.474  53.591  1.00  0.00     0.005 C 
BRANCH  14  15
HETATM   15  C4  UNL     1      24.737  -0.595  54.266  1.00  0.00     0.019 C 
HETATM   16  C3  UNL     1      25.978  -0.235  54.421  1.00  0.00     0.116 C 
BRANCH  16  17
HETATM   17  N1  UNL     1      25.998   0.745  53.397  1.00  0.00    -0.278 NA
HETATM   18  C2  UNL     1      26.710   0.568  52.337  1.00  0.00     0.085 C 
HETATM   19  C1  UNL     1      26.645   1.678  51.329  1.00  0.00     0.057 C 
ENDBRANCH  16  17
ENDBRANCH  14  15
ENDBRANCH  10  13
ENDBRANCH   1   7
BRANCH   5  20
HETATM   20  N4  UNL     1      26.910   6.160  49.235  1.00  0.00    -0.323 N 
HETATM   21  C14 UNL     1      27.901   5.340  48.635  1.00  0.00     0.256 C 
HETATM   22  O1  UNL     1      27.703   4.102  48.753  1.00  0.00    -0.267 OA
HETATM   23  H14 UNL     1      26.887   7.190  49.251  1.00  0.00     0.169 HD
BRANCH  21  24
HETATM   24  C15 UNL     1      29.006   5.990  47.969  1.00  0.00     0.032 A 
HETATM   25  C16 UNL     1      30.319   5.596  47.925  1.00  0.00     0.017 A 
HETATM   26  C17 UNL     1      31.268   6.327  47.245  1.00  0.00     0.007 A 
HETATM   27  C18 UNL     1      30.927   7.489  46.580  1.00  0.00    -0.062 A 
HETATM   28  C19 UNL     1      32.055   8.149  45.904  1.00  0.00     0.048 C 
HETATM   29  C20 UNL     1      29.608   7.885  46.626  1.00  0.00     0.007 A 
HETATM   30  C21 UNL     1      28.658   7.148  47.309  1.00  0.00     0.017 A 
ENDBRANCH  21  24
ENDBRANCH   5  20
TORSDOF 6
ENDMDL
MODEL 9
REMARK VINA RESULT:      -8.0      3.692      6.329
REMARK  6 active torsions:
REMARK  status: ('A' for Active; 'I' for Inactive)
REMARK    1  A    between atoms: N1_3  and  C3_4 
REMARK    2  A    between atoms: C4_5  and  C5_6 
REMARK    3  A    between atoms: C6_7  and  C7_8 
REMARK    4  A    between atoms: N3_11  and  C9_12 
REMARK    5  A    between atoms: C13_16  and  N4_17 
REMARK       I    between atoms: N4_17  and  C14_18 
REMARK    6  A    between atoms: C14_18  and  C15_20 
ROOT
HETATM    1  C9  UNL     1      25.820   4.831  49.205  1.00  0.00     0.055 A 
HETATM    2  C10 UNL     1      25.302   6.063  48.861  1.00  0.00     0.031 A 
HETATM    3  C11 UNL     1      26.029   7.085  48.285  1.00  0.00     0.005 A 
HETATM    4  C12 UNL     1      27.375   6.822  48.047  1.00  0.00     0.029 A 
HETATM    5  C13 UNL     1      27.975   5.608  48.363  1.00  0.00     0.037 A 
HETATM    6  C22 UNL     1      27.145   4.655  48.938  1.00  0.00     0.060 A 
ENDROOT
BRANCH   1   7
HETATM    7  N3  UNL     1      25.051   3.798  49.797  1.00  0.00    -0.271 N 
HETATM    8  C8  UNL     1      25.325   3.061  50.989  1.00  0.00     0.300 A 
HETATM    9  N2  UNL     1      24.229   2.136  51.134  1.00  0.00    -0.250 NA
HETATM   10  C7  UNL     1      23.367   2.227  50.210  1.00  0.00     0.138 A 
HETATM   11  N5  UNL     1      23.846   3.255  49.356  1.00  0.00    -0.280 N 
HETATM   12  H23 UNL     1      23.397   3.608  48.485  1.00  0.00     0.189 HD
BRANCH  10  13
HETATM   13  C6  UNL     1      22.177   1.398  50.146  1.00  0.00     0.051 C 
HETATM   14  C5  UNL     1      21.514   0.868  51.150  1.00  0.00     0.005 C 
BRANCH  14  15
HETATM   15  C4  UNL     1      21.237   0.582  52.545  1.00  0.00     0.019 C 
HETATM   16  C3  UNL     1      21.644   0.307  53.749  1.00  0.00     0.116 C 
BRANCH  16  17
HETATM   17  N1  UNL     1      23.032   0.305  53.461  1.00  0.00    -0.278 NA
HETATM   18  C2  UNL     1      23.789  -0.642  53.902  1.00  0.00     0.085 C 
HETATM   19  C1  UNL     1      25.238  -0.529  53.528  1.00  0.00     0.057 C 
ENDBRANCH  16  17
ENDBRANCH  14  15
ENDBRANCH  10  13
ENDBRANCH   1   7
BRANCH   5  20
HETATM   20  N4  UNL     1      29.345   5.373  48.107  1.00  0.00    -0.323 N 
HETATM   21  C14 UNL     1      30.599   5.979  48.379  1.00  0.00     0.256 C 
HETATM   22  O1  UNL     1      30.538   7.047  49.041  1.00  0.00    -0.267 OA
HETATM   23  H14 UNL     1      29.179   4.502  47.584  1.00  0.00     0.169 HD
BRANCH  21  24
HETATM   24  C15 UNL     1      31.788   5.326  47.879  1.00  0.00     0.032 A 
HETATM   25  C16 UNL     1      33.098   5.663  48.106  1.00  0.00     0.017 A 
HETATM   26  C17 UNL     1      34.133   4.939  47.555  1.00  0.00     0.007 A 
HETATM   27  C18 UNL     1      33.884   3.844  46.752  1.00  0.00    -0.062 A 
HETATM   28  C19 UNL     1      35.098   3.181  46.244  1.00  0.00     0.048 C 
HETATM   29  C20 UNL     1      32.568   3.506  46.524  1.00  0.00     0.007 A 
HETATM   30  C21 UNL     1      31.532   4.235  47.078  1.00  0.00     0.017 A 
ENDBRANCH  21  24
ENDBRANCH   5  20
TORSDOF 6
ENDMDL
