MODEL 1
REMARK VINA RESULT:      -6.8      0.000      0.000
REMARK  5 active torsions:
REMARK  status: ('A' for Active; 'I' for Inactive)
REMARK    1  A    between atoms: O1_2  and  C2_3 
REMARK    2  A    between atoms: C2_3  and  C3_4 
REMARK    3  A    between atoms: C4_5  and  C5_6 
REMARK    4  A    between atoms: C9_10  and  N1_11 
REMARK    5  A    between atoms: N1_11  and  C10_12 
ROOT
HETATM    1  C5  UNL     1      22.339   2.367  48.659  1.00  0.00     0.024 C 
HETATM    2  C6  UNL     1      23.326   2.787  49.437  1.00  0.00     0.008 C 
HETATM    3  C7  UNL     1      24.146   3.977  49.170  1.00  0.00     0.086 C 
HETATM    4  C8  UNL     1      25.518   3.752  49.747  1.00  0.00     0.006 C 
HETATM    5  C9  UNL     1      25.686   3.184  50.948  1.00  0.00     0.024 C 
HETATM    6  C16 UNL     1      24.407   2.803  51.643  1.00  0.00     0.176 C 
HETATM    7  N2  UNL     1      23.648   2.069  50.622  1.00  0.00    -0.387 N 
HETATM    8  H20 UNL     1      23.368   1.076  50.771  1.00  0.00     0.159 HD
ENDROOT
BRANCH   5   9
HETATM    9  N1  UNL     1      26.880   2.892  51.652  1.00  0.00    -0.358 N 
HETATM   10  H12 UNL     1      27.608   3.625  51.514  1.00  0.00     0.166 HD
BRANCH   9  11
HETATM   11  C10 UNL     1      27.366   1.870  52.500  1.00  0.00     0.045 C 
HETATM   12  C11 UNL     1      28.156   2.294  53.455  1.00  0.00     0.001 C 
HETATM   13  C12 UNL     1      28.888   1.399  54.059  1.00  0.00     0.014 C 
HETATM   14  C13 UNL     1      28.649   0.111  54.761  1.00  0.00     0.202 C 
HETATM   15  O2  UNL     1      27.673  -0.673  54.129  1.00  0.00    -0.359 OA
HETATM   16  C14 UNL     1      27.059  -0.596  52.907  1.00  0.00     0.137 C 
HETATM   17  C15 UNL     1      26.917   0.509  52.182  1.00  0.00     0.054 C 
ENDBRANCH   9  11
ENDBRANCH   5   9
BRANCH   1  18
HETATM   18  C4  UNL     1      21.497   1.217  48.857  1.00  0.00     0.000 C 
HETATM   19  C3  UNL     1      20.474   1.189  49.656  1.00  0.00    -0.001 C 
BRANCH  19  20
HETATM   20  C2  UNL     1      19.914   2.226  50.522  1.00  0.00     0.194 C 
BRANCH  20  21
HETATM   21  O1  UNL     1      20.630   2.377  51.715  1.00  0.00    -0.392 OA
HETATM   22  C1  UNL     1      20.706   3.720  52.024  1.00  0.00     0.201 C 
ENDBRANCH  20  21
ENDBRANCH  19  20
ENDBRANCH   1  18
TORSDOF 5
ENDMDL
MODEL 2
REMARK VINA RESULT:      -6.7      2.016      7.140
REMARK  5 active torsions:
REMARK  status: ('A' for Active; 'I' for Inactive)
REMARK    1  A    between atoms: O1_2  and  C2_3 
REMARK    2  A    between atoms: C2_3  and  C3_4 
REMARK    3  A    between atoms: C4_5  and  C5_6 
REMARK    4  A    between atoms: C9_10  and  N1_11 
REMARK    5  A    between atoms: N1_11  and  C10_12 
ROOT
HETATM    1  C5  UNL     1      26.319  -1.177  53.325  1.00  0.00     0.024 C 
HETATM    2  C6  UNL     1      25.347  -0.287  53.185  1.00  0.00     0.008 C 
HETATM    3  C7  UNL     1      23.982  -0.457  53.702  1.00  0.00     0.086 C 
HETATM    4  C8  UNL     1      23.032   0.283  52.800  1.00  0.00     0.006 C 
HETATM    5  C9  UNL     1      23.328   1.498  52.320  1.00  0.00     0.024 C 
HETATM    6  C16 UNL     1      24.664   2.035  52.759  1.00  0.00     0.176 C 
HETATM    7  N2  UNL     1      25.598   0.932  52.495  1.00  0.00    -0.387 N 
HETATM    8  H20 UNL     1      26.396   1.050  51.835  1.00  0.00     0.159 HD
ENDROOT
BRANCH   5   9
HETATM    9  N1  UNL     1      22.575   2.343  51.468  1.00  0.00    -0.358 N 
HETATM   10  H12 UNL     1      21.822   2.850  51.981  1.00  0.00     0.166 HD
BRANCH   9  11
HETATM   11  C10 UNL     1      22.558   2.695  50.099  1.00  0.00     0.045 C 
HETATM   12  C11 UNL     1      21.971   1.817  49.324  1.00  0.00     0.001 C 
HETATM   13  C12 UNL     1      22.201   1.910  48.044  1.00  0.00     0.014 C 
HETATM   14  C13 UNL     1      22.095   2.969  47.006  1.00  0.00     0.202 C 
HETATM   15  O2  UNL     1      22.500   4.226  47.478  1.00  0.00    -0.359 OA
HETATM   16  C14 UNL     1      23.160   4.633  48.607  1.00  0.00     0.137 C 
HETATM   17  C15 UNL     1      23.195   3.974  49.762  1.00  0.00     0.054 C 
ENDBRANCH   9  11
ENDBRANCH   5   9
BRANCH   1  18
HETATM   18  C4  UNL     1      27.672  -1.078  52.848  1.00  0.00     0.000 C 
HETATM   19  C3  UNL     1      28.611  -0.409  53.446  1.00  0.00    -0.001 C 
BRANCH  19  20
HETATM   20  C2  UNL     1      28.582   0.376  54.679  1.00  0.00     0.194 C 
BRANCH  20  21
HETATM   21  O1  UNL     1      27.952   1.616  54.514  1.00  0.00    -0.392 OA
HETATM   22  C1  UNL     1      28.726   2.404  53.687  1.00  0.00     0.201 C 
ENDBRANCH  20  21
ENDBRANCH  19  20
ENDBRANCH   1  18
TORSDOF 5
ENDMDL
MODEL 3
REMARK VINA RESULT:      -6.6      2.573      3.332
REMARK  5 active torsions:
REMARK  status: ('A' for Active; 'I' for Inactive)
REMARK    1  A    between atoms: O1_2  and  C2_3 
REMARK    2  A    between atoms: C2_3  and  C3_4 
REMARK    3  A    between atoms: C4_5  and  C5_6 
REMARK    4  A    between atoms: C9_10  and  N1_11 
REMARK    5  A    between atoms: N1_11  and  C10_12 
ROOT
HETATM    1  C5  UNL     1      21.022   1.457  52.124  1.00  0.00     0.024 C 
HETATM    2  C6  UNL     1      22.225   1.977  51.933  1.00  0.00     0.008 C 
HETATM    3  C7  UNL     1      22.818   2.240  50.614  1.00  0.00     0.086 C 
HETATM    4  C8  UNL     1      24.313   2.106  50.725  1.00  0.00     0.006 C 
HETATM    5  C9  UNL     1      24.982   2.600  51.775  1.00  0.00     0.024 C 
HETATM    6  C16 UNL     1      24.118   3.281  52.802  1.00  0.00     0.176 C 
HETATM    7  N2  UNL     1      23.034   2.322  53.052  1.00  0.00    -0.387 N 
HETATM    8  H20 UNL     1      22.877   1.923  54.002  1.00  0.00     0.159 HD
ENDROOT
BRANCH   5   9
HETATM    9  N1  UNL     1      26.370   2.574  52.057  1.00  0.00    -0.358 N 
HETATM   10  H12 UNL     1      26.856   3.434  51.723  1.00  0.00     0.166 HD
BRANCH   9  11
HETATM   11  C10 UNL     1      27.292   1.697  52.673  1.00  0.00     0.045 C 
HETATM   12  C11 UNL     1      27.141   0.438  52.342  1.00  0.00     0.001 C 
HETATM   13  C12 UNL     1      27.724  -0.446  53.102  1.00  0.00     0.014 C 
HETATM   14  C13 UNL     1      29.101  -0.694  53.603  1.00  0.00     0.202 C 
HETATM   15  O2  UNL     1      29.765   0.491  53.955  1.00  0.00    -0.359 OA
HETATM   16  C14 UNL     1      29.344   1.782  54.130  1.00  0.00     0.137 C 
HETATM   17  C15 UNL     1      28.264   2.325  53.576  1.00  0.00     0.054 C 
ENDBRANCH   9  11
ENDBRANCH   5   9
BRANCH   1  18
HETATM   18  C4  UNL     1      20.381   1.174  53.380  1.00  0.00     0.000 C 
HETATM   19  C3  UNL     1      20.577   0.094  54.075  1.00  0.00    -0.001 C 
BRANCH  19  20
HETATM   20  C2  UNL     1      21.435  -1.061  53.815  1.00  0.00     0.194 C 
BRANCH  20  21
HETATM   21  O1  UNL     1      21.751  -1.771  54.980  1.00  0.00    -0.392 OA
HETATM   22  C1  UNL     1      23.010  -1.397  55.404  1.00  0.00     0.201 C 
ENDBRANCH  20  21
ENDBRANCH  19  20
ENDBRANCH   1  18
TORSDOF 5
ENDMDL
MODEL 4
REMARK VINA RESULT:      -6.6      3.309      6.825
REMARK  5 active torsions:
REMARK  status: ('A' for Active; 'I' for Inactive)
REMARK    1  A    between atoms: O1_2  and  C2_3 
REMARK    2  A    between atoms: C2_3  and  C3_4 
REMARK    3  A    between atoms: C4_5  and  C5_6 
REMARK    4  A    between atoms: C9_10  and  N1_11 
REMARK    5  A    between atoms: N1_11  and  C10_12 
ROOT
HETATM    1  C5  UNL     1      26.204  -0.849  53.107  1.00  0.00     0.024 C 
HETATM    2  C6  UNL     1      26.016   0.386  52.664  1.00  0.00     0.008 C 
HETATM    3  C7  UNL     1      24.943   1.279  53.121  1.00  0.00     0.086 C 
HETATM    4  C8  UNL     1      24.572   2.201  51.991  1.00  0.00     0.006 C 
HETATM    5  C9  UNL     1      25.505   2.761  51.212  1.00  0.00     0.024 C 
HETATM    6  C16 UNL     1      26.920   2.390  51.566  1.00  0.00     0.176 C 
HETATM    7  N2  UNL     1      26.889   0.925  51.679  1.00  0.00    -0.387 N 
HETATM    8  H20 UNL     1      27.480   0.326  51.063  1.00  0.00     0.159 HD
ENDROOT
BRANCH   5   9
HETATM    9  N1  UNL     1      25.357   3.643  50.113  1.00  0.00    -0.358 N 
HETATM   10  H12 UNL     1      24.655   3.299  49.423  1.00  0.00     0.166 HD
BRANCH   9  11
HETATM   11  C10 UNL     1      25.902   4.875  49.685  1.00  0.00     0.045 C 
HETATM   12  C11 UNL     1      25.282   5.930  50.153  1.00  0.00     0.001 C 
HETATM   13  C12 UNL     1      25.514   7.066  49.556  1.00  0.00     0.014 C 
HETATM   14  C13 UNL     1      26.713   7.869  49.201  1.00  0.00     0.202 C 
HETATM   15  O2  UNL     1      27.782   7.073  48.762  1.00  0.00    -0.359 OA
HETATM   16  C14 UNL     1      27.879   5.757  48.397  1.00  0.00     0.137 C 
HETATM   17  C15 UNL     1      27.064   4.783  48.792  1.00  0.00     0.054 C 
ENDBRANCH   9  11
ENDBRANCH   5   9
BRANCH   1  18
HETATM   18  C4  UNL     1      27.229  -1.775  52.706  1.00  0.00     0.000 C 
HETATM   19  C3  UNL     1      28.455  -1.738  53.131  1.00  0.00    -0.001 C 
BRANCH  19  20
HETATM   20  C2  UNL     1      29.111  -0.824  54.065  1.00  0.00     0.194 C 
BRANCH  20  21
HETATM   21  O1  UNL     1      29.483   0.385  53.464  1.00  0.00    -0.392 OA
HETATM   22  C1  UNL     1      29.228   1.418  54.343  1.00  0.00     0.201 C 
ENDBRANCH  20  21
ENDBRANCH  19  20
ENDBRANCH   1  18
TORSDOF 5
ENDMDL
MODEL 5
REMARK VINA RESULT:      -6.6      3.798      5.680
REMARK  5 active torsions:
REMARK  status: ('A' for Active; 'I' for Inactive)
REMARK    1  A    between atoms: O1_2  and  C2_3 
REMARK    2  A    between atoms: C2_3  and  C3_4 
REMARK    3  A    between atoms: C4_5  and  C5_6 
REMARK    4  A    between atoms: C9_10  and  N1_11 
REMARK    5  A    between atoms: N1_11  and  C10_12 
ROOT
HETATM    1  C5  UNL     1      26.656   6.329  48.444  1.00  0.00     0.024 C 
HETATM    2  C6  UNL     1      26.203   5.267  49.094  1.00  0.00     0.008 C 
HETATM    3  C7  UNL     1      24.795   5.054  49.459  1.00  0.00     0.086 C 
HETATM    4  C8  UNL     1      24.746   4.241  50.724  1.00  0.00     0.006 C 
HETATM    5  C9  UNL     1      25.564   3.198  50.916  1.00  0.00     0.024 C 
HETATM    6  C16 UNL     1      26.509   2.927  49.777  1.00  0.00     0.176 C 
HETATM    7  N2  UNL     1      27.104   4.237  49.484  1.00  0.00    -0.387 N 
HETATM    8  H20 UNL     1      28.132   4.391  49.563  1.00  0.00     0.159 HD
ENDROOT
BRANCH   5   9
HETATM    9  N1  UNL     1      25.668   2.322  52.025  1.00  0.00    -0.358 N 
HETATM   10  H12 UNL     1      24.787   2.282  52.580  1.00  0.00     0.166 HD
BRANCH   9  11
HETATM   11  C10 UNL     1      26.646   1.475  52.595  1.00  0.00     0.045 C 
HETATM   12  C11 UNL     1      27.542   2.100  53.320  1.00  0.00     0.001 C 
HETATM   13  C12 UNL     1      28.636   1.447  53.599  1.00  0.00     0.014 C 
HETATM   14  C13 UNL     1      28.981   0.138  54.213  1.00  0.00     0.202 C 
HETATM   15  O2  UNL     1      28.111  -0.887  53.815  1.00  0.00    -0.359 OA
HETATM   16  C14 UNL     1      27.159  -0.979  52.835  1.00  0.00     0.137 C 
HETATM   17  C15 UNL     1      26.509   0.046  52.291  1.00  0.00     0.054 C 
ENDBRANCH   9  11
ENDBRANCH   5   9
BRANCH   1  18
HETATM   18  C4  UNL     1      28.014   6.603  48.055  1.00  0.00     0.000 C 
HETATM   19  C3  UNL     1      28.671   7.671  48.395  1.00  0.00    -0.001 C 
BRANCH  19  20
HETATM   20  C2  UNL     1      28.266   8.819  49.204  1.00  0.00     0.194 C 
BRANCH  20  21
HETATM   21  O1  UNL     1      29.353   9.600  49.613  1.00  0.00    -0.392 OA
HETATM   22  C1  UNL     1      30.522   8.981  49.220  1.00  0.00     0.201 C 
ENDBRANCH  20  21
ENDBRANCH  19  20
ENDBRANCH   1  18
TORSDOF 5
ENDMDL
MODEL 6
REMARK VINA RESULT:      -6.5      2.608      6.820
REMARK  5 active torsions:
REMARK  status: ('A' for Active; 'I' for Inactive)
REMARK    1  A    between atoms: O1_2  and  C2_3 
REMARK    2  A    between atoms: C2_3  and  C3_4 
REMARK    3  A    between atoms: C4_5  and  C5_6 
REMARK    4  A    between atoms: C9_10  and  N1_11 
REMARK    5  A    between atoms: N1_11  and  C10_12 
ROOT
HETATM    1  C5  UNL     1      25.871  -0.926  53.081  1.00  0.00     0.024 C 
HETATM    2  C6  UNL     1      25.104   0.152  53.013  1.00  0.00     0.008 C 
HETATM    3  C7  UNL     1      23.689   0.192  53.409  1.00  0.00     0.086 C 
HETATM    4  C8  UNL     1      22.984   1.221  52.568  1.00  0.00     0.006 C 
HETATM    5  C9  UNL     1      23.548   2.405  52.295  1.00  0.00     0.024 C 
HETATM    6  C16 UNL     1      24.915   2.599  52.894  1.00  0.00     0.176 C 
HETATM    7  N2  UNL     1      25.643   1.377  52.530  1.00  0.00    -0.387 N 
HETATM    8  H20 UNL     1      26.507   1.418  51.947  1.00  0.00     0.159 HD
ENDROOT
BRANCH   5   9
HETATM    9  N1  UNL     1      23.051   3.490  51.531  1.00  0.00    -0.358 N 
HETATM   10  H12 UNL     1      22.009   3.517  51.517  1.00  0.00     0.166 HD
BRANCH   9  11
HETATM   11  C10 UNL     1      23.580   4.561  50.774  1.00  0.00     0.045 C 
HETATM   12  C11 UNL     1      24.052   4.210  49.603  1.00  0.00     0.001 C 
HETATM   13  C12 UNL     1      24.834   5.062  49.002  1.00  0.00     0.014 C 
HETATM   14  C13 UNL     1      24.761   6.491  48.598  1.00  0.00     0.202 C 
HETATM   15  O2  UNL     1      24.129   7.289  49.563  1.00  0.00    -0.359 OA
HETATM   16  C14 UNL     1      23.764   7.071  50.865  1.00  0.00     0.137 C 
HETATM   17  C15 UNL     1      23.520   5.883  51.410  1.00  0.00     0.054 C 
ENDBRANCH   9  11
ENDBRANCH   5   9
BRANCH   1  18
HETATM   18  C4  UNL     1      27.257  -1.038  52.712  1.00  0.00     0.000 C 
HETATM   19  C3  UNL     1      28.244  -0.604  53.437  1.00  0.00    -0.001 C 
BRANCH  19  20
HETATM   20  C2  UNL     1      28.247   0.071  54.734  1.00  0.00     0.194 C 
BRANCH  20  21
HETATM   21  O1  UNL     1      27.925   1.430  54.635  1.00  0.00    -0.392 OA
HETATM   22  C1  UNL     1      28.886   2.063  53.873  1.00  0.00     0.201 C 
ENDBRANCH  20  21
ENDBRANCH  19  20
ENDBRANCH   1  18
TORSDOF 5
ENDMDL
MODEL 7
REMARK VINA RESULT:      -6.4      4.013      6.247
REMARK  5 active torsions:
REMARK  status: ('A' for Active; 'I' for Inactive)
REMARK    1  A    between atoms: O1_2  and  C2_3 
REMARK    2  A    between atoms: C2_3  and  C3_4 
REMARK    3  A    between atoms: C4_5  and  C5_6 
REMARK    4  A    between atoms: C9_10  and  N1_11 
REMARK    5  A    between atoms: N1_11  and  C10_12 
ROOT
HETATM    1  C5  UNL     1      27.804   5.939  48.281  1.00  0.00     0.024 C 
HETATM    2  C6  UNL     1      26.850   5.302  48.944  1.00  0.00     0.008 C 
HETATM    3  C7  UNL     1      25.439   5.715  48.974  1.00  0.00     0.086 C 
HETATM    4  C8  UNL     1      24.845   5.297  50.291  1.00  0.00     0.006 C 
HETATM    5  C9  UNL     1      25.115   4.101  50.831  1.00  0.00     0.024 C 
HETATM    6  C16 UNL     1      26.044   3.243  50.015  1.00  0.00     0.176 C 
HETATM    7  N2  UNL     1      27.166   4.134  49.693  1.00  0.00    -0.387 N 
HETATM    8  H20 UNL     1      28.136   3.911  50.002  1.00  0.00     0.159 HD
ENDROOT
BRANCH   5   9
HETATM    9  N1  UNL     1      24.658   3.532  52.046  1.00  0.00    -0.358 N 
HETATM   10  H12 UNL     1      24.100   4.207  52.611  1.00  0.00     0.166 HD
BRANCH   9  11
HETATM   11  C10 UNL     1      24.751   2.290  52.714  1.00  0.00     0.045 C 
HETATM   12  C11 UNL     1      23.785   1.452  52.427  1.00  0.00     0.001 C 
HETATM   13  C12 UNL     1      23.623   0.438  53.232  1.00  0.00     0.014 C 
HETATM   14  C13 UNL     1      24.475  -0.653  53.772  1.00  0.00     0.202 C 
HETATM   15  O2  UNL     1      25.768  -0.215  54.094  1.00  0.00    -0.359 OA
HETATM   16  C14 UNL     1      26.333   1.027  54.211  1.00  0.00     0.137 C 
HETATM   17  C15 UNL     1      25.900   2.133  53.614  1.00  0.00     0.054 C 
ENDBRANCH   9  11
ENDBRANCH   5   9
BRANCH   1  18
HETATM   18  C4  UNL     1      29.198   5.593  48.207  1.00  0.00     0.000 C 
HETATM   19  C3  UNL     1      30.162   6.458  48.115  1.00  0.00    -0.001 C 
BRANCH  19  20
HETATM   20  C2  UNL     1      30.127   7.919  48.063  1.00  0.00     0.194 C 
BRANCH  20  21
HETATM   21  O1  UNL     1      30.016   8.502  49.331  1.00  0.00    -0.392 OA
HETATM   22  C1  UNL     1      29.163   9.584  49.253  1.00  0.00     0.201 C 
ENDBRANCH  20  21
ENDBRANCH  19  20
ENDBRANCH   1  18
TORSDOF 5
ENDMDL
MODEL 8
REMARK VINA RESULT:      -6.3      2.867      5.260
REMARK  5 active torsions:
REMARK  status: ('A' for Active; 'I' for Inactive)
REMARK    1  A    between atoms: O1_2  and  C2_3 
REMARK    2  A    between atoms: C2_3  and  C3_4 
REMARK    3  A    between atoms: C4_5  and  C5_6 
REMARK    4  A    between atoms: C9_10  and  N1_11 
REMARK    5  A    between atoms: N1_11  and  C10_12 
ROOT
HETATM    1  C5  UNL     1      26.443   3.536  50.019  1.00  0.00     0.024 C 
HETATM    2  C6  UNL     1      26.170   2.754  51.053  1.00  0.00     0.008 C 
HETATM    3  C7  UNL     1      26.820   1.462  51.314  1.00  0.00     0.086 C 
HETATM    4  C8  UNL     1      25.845   0.572  52.035  1.00  0.00     0.006 C 
HETATM    5  C9  UNL     1      25.064   1.041  53.016  1.00  0.00     0.024 C 
HETATM    6  C16 UNL     1      25.251   2.503  53.318  1.00  0.00     0.176 C 
HETATM    7  N2  UNL     1      25.188   3.153  52.003  1.00  0.00    -0.387 N 
HETATM    8  H20 UNL     1      24.457   3.865  51.789  1.00  0.00     0.159 HD
ENDROOT
BRANCH   5   9
HETATM    9  N1  UNL     1      24.096   0.369  53.803  1.00  0.00    -0.358 N 
HETATM   10  H12 UNL     1      24.501  -0.015  54.683  1.00  0.00     0.166 HD
BRANCH   9  11
HETATM   11  C10 UNL     1      22.716   0.070  53.727  1.00  0.00     0.045 C 
HETATM   12  C11 UNL     1      22.026   0.901  52.984  1.00  0.00     0.001 C 
HETATM   13  C12 UNL     1      20.730   0.885  53.128  1.00  0.00     0.014 C 
HETATM   14  C13 UNL     1      19.653  -0.138  53.070  1.00  0.00     0.202 C 
HETATM   15  O2  UNL     1      20.037  -1.355  53.654  1.00  0.00    -0.359 OA
HETATM   16  C14 UNL     1      21.097  -1.722  54.439  1.00  0.00     0.137 C 
HETATM   17  C15 UNL     1      22.276  -1.109  54.482  1.00  0.00     0.054 C 
ENDBRANCH   9  11
ENDBRANCH   5   9
BRANCH   1  18
HETATM   18  C4  UNL     1      25.849   4.807  49.702  1.00  0.00     0.000 C 
HETATM   19  C3  UNL     1      24.672   4.953  49.173  1.00  0.00    -0.001 C 
BRANCH  19  20
HETATM   20  C2  UNL     1      23.679   3.956  48.773  1.00  0.00     0.194 C 
BRANCH  20  21
HETATM   21  O1  UNL     1      22.956   3.450  49.860  1.00  0.00    -0.392 OA
HETATM   22  C1  UNL     1      22.543   2.167  49.563  1.00  0.00     0.201 C 
ENDBRANCH  20  21
ENDBRANCH  19  20
ENDBRANCH   1  18
TORSDOF 5
ENDMDL
MODEL 9
REMARK VINA RESULT:      -6.2      2.567      4.091
REMARK  5 active torsions:
REMARK  status: ('A' for Active; 'I' for Inactive)
REMARK    1  A    between atoms: O1_2  and  C2_3 
REMARK    2  A    between atoms: C2_3  and  C3_4 
REMARK    3  A    between atoms: C4_5  and  C5_6 
REMARK    4  A    between atoms: C9_10  and  N1_11 
REMARK    5  A    between atoms: N1_11  and  C10_12 
ROOT
HETATM    1  C5  UNL     1      23.324   5.830  51.380  1.00  0.00     0.024 C 
HETATM    2  C6  UNL     1      23.481   4.522  51.518  1.00  0.00     0.008 C 
HETATM    3  C7  UNL     1      22.377   3.556  51.605  1.00  0.00     0.086 C 
HETATM    4  C8  UNL     1      22.822   2.393  52.449  1.00  0.00     0.006 C 
HETATM    5  C9  UNL     1      24.048   1.868  52.324  1.00  0.00     0.024 C 
HETATM    6  C16 UNL     1      24.911   2.537  51.288  1.00  0.00     0.176 C 
HETATM    7  N2  UNL     1      24.790   3.969  51.590  1.00  0.00    -0.387 N 
HETATM    8  H20 UNL     1      25.626   4.538  51.843  1.00  0.00     0.159 HD
ENDROOT
BRANCH   5   9
HETATM    9  N1  UNL     1      24.646   0.787  53.019  1.00  0.00    -0.358 N 
HETATM   10  H12 UNL     1      23.937   0.157  53.451  1.00  0.00     0.166 HD
BRANCH   9  11
HETATM   11  C10 UNL     1      25.951   0.319  53.293  1.00  0.00     0.045 C 
HETATM   12  C11 UNL     1      26.623   1.063  54.137  1.00  0.00     0.001 C 
HETATM   13  C12 UNL     1      27.914   0.884  54.184  1.00  0.00     0.014 C 
HETATM   14  C13 UNL     1      28.835  -0.264  54.388  1.00  0.00     0.202 C 
HETATM   15  O2  UNL     1      28.393  -1.428  53.741  1.00  0.00    -0.359 OA
HETATM   16  C14 UNL     1      27.421  -1.667  52.806  1.00  0.00     0.137 C 
HETATM   17  C15 UNL     1      26.347  -0.911  52.597  1.00  0.00     0.054 C 
ENDBRANCH   9  11
ENDBRANCH   5   9
BRANCH   1  18
HETATM   18  C4  UNL     1      24.354   6.830  51.289  1.00  0.00     0.000 C 
HETATM   19  C3  UNL     1      25.033   7.084  50.211  1.00  0.00    -0.001 C 
BRANCH  19  20
HETATM   20  C2  UNL     1      24.963   6.484  48.880  1.00  0.00     0.194 C 
BRANCH  20  21
HETATM   21  O1  UNL     1      25.599   5.238  48.816  1.00  0.00    -0.392 OA
HETATM   22  C1  UNL     1      26.965   5.434  48.798  1.00  0.00     0.201 C 
ENDBRANCH  20  21
ENDBRANCH  19  20
ENDBRANCH   1  18
TORSDOF 5
ENDMDL
