MODEL 1
REMARK VINA RESULT:      -8.3      0.000      0.000
REMARK  7 active torsions:
REMARK  status: ('A' for Active; 'I' for Inactive)
REMARK    1  A    between atoms: C2_2  and  C3_3 
REMARK    2  A    between atoms: C3_3  and  N1_4 
REMARK    3  A    between atoms: C3_3  and  C13_17 
REMARK    4  A    between atoms: N1_4  and  C4_5 
REMARK    5  A    between atoms: C5_6  and  C6_7 
REMARK       I    between atoms: C6_7  and  N2_9 
REMARK    6  A    between atoms: N2_9  and  C7_10 
REMARK    7  A    between atoms: C7_10  and  C8_11 
ROOT
HETATM    1  C3  UNL     1      26.445   0.020  52.577  1.00  0.00     0.098 C 
ENDROOT
BRANCH   1   2
HETATM    2  C2  UNL     1      27.175  -1.293  52.749  1.00  0.00     0.022 C 
HETATM    3  C1  UNL     1      26.418  -2.339  51.957  1.00  0.00     0.007 C 
ENDBRANCH   1   2
BRANCH   1   4
HETATM    4  N1  UNL     1      27.456   1.026  52.340  1.00  0.00    -0.393 N 
HETATM    5  H7  UNL     1      28.497   1.036  52.558  1.00  0.00     0.159 HD
BRANCH   4   6
HETATM    6  C4  UNL     1      27.130   2.247  51.719  1.00  0.00     0.088 C 
HETATM    7  C5  UNL     1      26.417   2.594  50.674  1.00  0.00     0.090 C 
BRANCH   7   8
HETATM    8  C6  UNL     1      26.144   3.908  50.115  1.00  0.00     0.242 C 
HETATM    9  O1  UNL     1      25.088   4.468  50.512  1.00  0.00    -0.269 OA
HETATM   10  N2  UNL     1      27.049   4.478  49.182  1.00  0.00    -0.353 N 
HETATM   11  H10 UNL     1      27.917   4.010  48.860  1.00  0.00     0.163 HD
BRANCH  10  12
HETATM   12  C7  UNL     1      26.859   5.765  48.582  1.00  0.00     0.161 C 
BRANCH  12  13
HETATM   13  C8  UNL     1      28.107   6.467  48.251  1.00  0.00    -0.038 A 
HETATM   14  C9  UNL     1      29.281   5.710  48.207  1.00  0.00     0.028 A 
HETATM   15  C10 UNL     1      30.526   6.181  47.921  1.00  0.00     0.116 A 
HETATM   16  N3  UNL     1      30.636   7.513  47.652  1.00  0.00    -0.273 NA
HETATM   17  C11 UNL     1      29.548   8.295  47.676  1.00  0.00     0.116 A 
HETATM   18  C12 UNL     1      28.289   7.814  47.967  1.00  0.00     0.028 A 
ENDBRANCH  12  13
ENDBRANCH  10  12
ENDBRANCH   7   8
ENDBRANCH   4   6
ENDBRANCH   1   4
BRANCH   1  19
HETATM   19  C13 UNL     1      25.678   0.414  53.808  1.00  0.00     0.136 A 
HETATM   20  C14 UNL     1      26.259  -0.143  55.047  1.00  0.00     0.232 A 
HETATM   21  O2  UNL     1      27.455   0.128  55.336  1.00  0.00    -0.272 OA
HETATM   22  N4  UNL     1      25.294  -0.947  55.749  1.00  0.00    -0.326 N 
HETATM   23  C15 UNL     1      24.100  -0.918  54.975  1.00  0.00     0.042 A 
HETATM   24  H18 UNL     1      25.527  -1.414  56.642  1.00  0.00     0.169 HD
HETATM   25  C16 UNL     1      22.877  -1.519  55.192  1.00  0.00     0.033 A 
HETATM   26  C20 UNL     1      24.301  -0.142  53.851  1.00  0.00    -0.013 A 
HETATM   27  C17 UNL     1      21.889  -1.300  54.235  1.00  0.00     0.044 A 
HETATM   28  C18 UNL     1      22.073  -0.528  53.108  1.00  0.00     0.117 A 
HETATM   29  F1  UNL     1      21.031  -0.390  52.247  1.00  0.00    -0.206 F 
HETATM   30  C19 UNL     1      23.316   0.079  52.894  1.00  0.00     0.052 A 
ENDBRANCH   1  19
TORSDOF 7
ENDMDL
MODEL 2
REMARK VINA RESULT:      -8.2      4.262      9.066
REMARK  7 active torsions:
REMARK  status: ('A' for Active; 'I' for Inactive)
REMARK    1  A    between atoms: C2_2  and  C3_3 
REMARK    2  A    between atoms: C3_3  and  N1_4 
REMARK    3  A    between atoms: C3_3  and  C13_17 
REMARK    4  A    between atoms: N1_4  and  C4_5 
REMARK    5  A    between atoms: C5_6  and  C6_7 
REMARK       I    between atoms: C6_7  and  N2_9 
REMARK    6  A    between atoms: N2_9  and  C7_10 
REMARK    7  A    between atoms: C7_10  and  C8_11 
ROOT
HETATM    1  C3  UNL     1      25.211   0.934  51.916  1.00  0.00     0.098 C 
ENDROOT
BRANCH   1   2
HETATM    2  C2  UNL     1      26.035   1.747  50.943  1.00  0.00     0.022 C 
HETATM    3  C1  UNL     1      25.132   2.817  50.367  1.00  0.00     0.007 C 
ENDBRANCH   1   2
BRANCH   1   4
HETATM    4  N1  UNL     1      23.902   1.547  51.960  1.00  0.00    -0.393 N 
HETATM    5  H7  UNL     1      23.573   2.515  51.667  1.00  0.00     0.159 HD
BRANCH   4   6
HETATM    6  C4  UNL     1      22.789   0.841  52.456  1.00  0.00     0.088 C 
HETATM    7  C5  UNL     1      22.580   0.030  53.466  1.00  0.00     0.090 C 
BRANCH   7   8
HETATM    8  C6  UNL     1      21.369  -0.652  53.890  1.00  0.00     0.242 C 
HETATM    9  O1  UNL     1      21.478  -1.392  54.904  1.00  0.00    -0.269 OA
HETATM   10  N2  UNL     1      20.162  -0.459  53.168  1.00  0.00    -0.353 N 
HETATM   11  H10 UNL     1      20.081   0.153  52.334  1.00  0.00     0.163 HD
BRANCH  10  12
HETATM   12  C7  UNL     1      18.924  -1.090  53.514  1.00  0.00     0.161 C 
BRANCH  12  13
HETATM   13  C8  UNL     1      17.876  -0.968  52.490  1.00  0.00    -0.038 A 
HETATM   14  C9  UNL     1      16.687  -1.672  52.698  1.00  0.00     0.028 A 
HETATM   15  C10 UNL     1      15.609  -1.684  51.867  1.00  0.00     0.116 A 
HETATM   16  N3  UNL     1      15.700  -0.940  50.728  1.00  0.00    -0.273 NA
HETATM   17  C11 UNL     1      16.814  -0.242  50.468  1.00  0.00     0.116 A 
HETATM   18  C12 UNL     1      17.903  -0.232  51.313  1.00  0.00     0.028 A 
ENDBRANCH  12  13
ENDBRANCH  10  12
ENDBRANCH   7   8
ENDBRANCH   4   6
ENDBRANCH   1   4
BRANCH   1  19
HETATM   19  C13 UNL     1      25.781   0.955  53.306  1.00  0.00     0.136 A 
HETATM   20  C14 UNL     1      26.054   2.323  53.792  1.00  0.00     0.232 A 
HETATM   21  O2  UNL     1      25.110   3.155  53.841  1.00  0.00    -0.272 OA
HETATM   22  N4  UNL     1      27.441   2.472  54.148  1.00  0.00    -0.326 N 
HETATM   23  C15 UNL     1      28.063   1.219  53.893  1.00  0.00     0.042 A 
HETATM   24  H18 UNL     1      27.812   3.367  54.513  1.00  0.00     0.169 HD
HETATM   25  C16 UNL     1      29.375   0.819  54.058  1.00  0.00     0.033 A 
HETATM   26  C20 UNL     1      27.126   0.331  53.405  1.00  0.00    -0.013 A 
HETATM   27  C17 UNL     1      29.681  -0.495  53.712  1.00  0.00     0.044 A 
HETATM   28  C18 UNL     1      28.757  -1.393  53.224  1.00  0.00     0.117 A 
HETATM   29  F1  UNL     1      29.179  -2.648  52.921  1.00  0.00    -0.206 F 
HETATM   30  C19 UNL     1      27.429  -0.981  53.059  1.00  0.00     0.052 A 
ENDBRANCH   1  19
TORSDOF 7
ENDMDL
MODEL 3
REMARK VINA RESULT:      -8.0      2.622      3.987
REMARK  7 active torsions:
REMARK  status: ('A' for Active; 'I' for Inactive)
REMARK    1  A    between atoms: C2_2  and  C3_3 
REMARK    2  A    between atoms: C3_3  and  N1_4 
REMARK    3  A    between atoms: C3_3  and  C13_17 
REMARK    4  A    between atoms: N1_4  and  C4_5 
REMARK    5  A    between atoms: C5_6  and  C6_7 
REMARK       I    between atoms: C6_7  and  N2_9 
REMARK    6  A    between atoms: N2_9  and  C7_10 
REMARK    7  A    between atoms: C7_10  and  C8_11 
ROOT
HETATM    1  C3  UNL     1      26.476   0.078  52.642  1.00  0.00     0.098 C 
ENDROOT
BRANCH   1   2
HETATM    2  C2  UNL     1      27.296  -1.181  52.815  1.00  0.00     0.022 C 
HETATM    3  C1  UNL     1      26.609  -2.281  52.034  1.00  0.00     0.007 C 
ENDBRANCH   1   2
BRANCH   1   4
HETATM    4  N1  UNL     1      27.411   1.143  52.358  1.00  0.00    -0.393 N 
HETATM    5  H7  UNL     1      28.463   1.207  52.500  1.00  0.00     0.159 HD
BRANCH   4   6
HETATM    6  C4  UNL     1      26.974   2.358  51.794  1.00  0.00     0.088 C 
HETATM    7  C5  UNL     1      26.478   2.715  50.633  1.00  0.00     0.090 C 
BRANCH   7   8
HETATM    8  C6  UNL     1      26.054   4.019  50.152  1.00  0.00     0.242 C 
HETATM    9  O1  UNL     1      26.548   4.390  49.054  1.00  0.00    -0.269 OA
HETATM   10  N2  UNL     1      25.136   4.787  50.915  1.00  0.00    -0.353 N 
HETATM   11  H10 UNL     1      24.733   4.473  51.818  1.00  0.00     0.163 HD
BRANCH  10  12
HETATM   12  C7  UNL     1      24.665   6.080  50.518  1.00  0.00     0.161 C 
BRANCH  12  13
HETATM   13  C8  UNL     1      23.204   6.178  50.387  1.00  0.00    -0.038 A 
HETATM   14  C9  UNL     1      22.461   5.006  50.560  1.00  0.00     0.028 A 
HETATM   15  C10 UNL     1      21.106   4.898  50.477  1.00  0.00     0.116 A 
HETATM   16  N3  UNL     1      20.413   6.039  50.201  1.00  0.00    -0.273 NA
HETATM   17  C11 UNL     1      21.065   7.196  50.024  1.00  0.00     0.116 A 
HETATM   18  C12 UNL     1      22.437   7.301  50.109  1.00  0.00     0.028 A 
ENDBRANCH  12  13
ENDBRANCH  10  12
ENDBRANCH   7   8
ENDBRANCH   4   6
ENDBRANCH   1   4
BRANCH   1  19
HETATM   19  C13 UNL     1      25.719   0.443  53.887  1.00  0.00     0.136 A 
HETATM   20  C14 UNL     1      26.333  -0.108  55.113  1.00  0.00     0.232 A 
HETATM   21  O2  UNL     1      27.526   0.190  55.386  1.00  0.00    -0.272 OA
HETATM   22  N4  UNL     1      25.399  -0.941  55.824  1.00  0.00    -0.326 N 
HETATM   23  C15 UNL     1      24.193  -0.936  55.068  1.00  0.00     0.042 A 
HETATM   24  H18 UNL     1      25.658  -1.408  56.710  1.00  0.00     0.169 HD
HETATM   25  C16 UNL     1      22.988  -1.569  55.300  1.00  0.00     0.033 A 
HETATM   26  C20 UNL     1      24.357  -0.147  53.948  1.00  0.00    -0.013 A 
HETATM   27  C17 UNL     1      21.980  -1.368  54.360  1.00  0.00     0.044 A 
HETATM   28  C18 UNL     1      22.127  -0.584  53.236  1.00  0.00     0.117 A 
HETATM   29  F1  UNL     1      21.069  -0.466  52.393  1.00  0.00    -0.206 F 
HETATM   30  C19 UNL     1      23.352   0.055  53.008  1.00  0.00     0.052 A 
ENDBRANCH   1  19
TORSDOF 7
ENDMDL
MODEL 4
REMARK VINA RESULT:      -7.9      3.563      8.255
REMARK  7 active torsions:
REMARK  status: ('A' for Active; 'I' for Inactive)
REMARK    1  A    between atoms: C2_2  and  C3_3 
REMARK    2  A    between atoms: C3_3  and  N1_4 
REMARK    3  A    between atoms: C3_3  and  C13_17 
REMARK    4  A    between atoms: N1_4  and  C4_5 
REMARK    5  A    between atoms: C5_6  and  C6_7 
REMARK       I    between atoms: C6_7  and  N2_9 
REMARK    6  A    between atoms: N2_9  and  C7_10 
REMARK    7  A    between atoms: C7_10  and  C8_11 
ROOT
HETATM    1  C3  UNL     1      23.495   4.494  49.379  1.00  0.00     0.098 C 
ENDROOT
BRANCH   1   2
HETATM    2  C2  UNL     1      22.571   5.578  48.871  1.00  0.00     0.022 C 
HETATM    3  C1  UNL     1      22.737   5.646  47.368  1.00  0.00     0.007 C 
ENDBRANCH   1   2
BRANCH   1   4
HETATM    4  N1  UNL     1      22.656   3.490  49.994  1.00  0.00    -0.393 N 
HETATM    5  H7  UNL     1      21.598   3.389  50.026  1.00  0.00     0.159 HD
BRANCH   4   6
HETATM    6  C4  UNL     1      23.218   2.409  50.700  1.00  0.00     0.088 C 
HETATM    7  C5  UNL     1      22.992   1.843  51.862  1.00  0.00     0.090 C 
BRANCH   7   8
HETATM    8  C6  UNL     1      23.645   0.713  52.501  1.00  0.00     0.242 C 
HETATM    9  O1  UNL     1      22.890  -0.087  53.114  1.00  0.00    -0.269 OA
HETATM   10  N2  UNL     1      25.054   0.568  52.406  1.00  0.00    -0.353 N 
HETATM   11  H10 UNL     1      25.669   1.232  51.899  1.00  0.00     0.163 HD
BRANCH  10  12
HETATM   12  C7  UNL     1      25.779  -0.512  53.004  1.00  0.00     0.161 C 
BRANCH  12  13
HETATM   13  C8  UNL     1      27.202  -0.227  53.243  1.00  0.00    -0.038 A 
HETATM   14  C9  UNL     1      28.100  -1.292  53.138  1.00  0.00     0.028 A 
HETATM   15  C10 UNL     1      29.447  -1.224  53.324  1.00  0.00     0.116 A 
HETATM   16  N3  UNL     1      29.965  -0.004  53.641  1.00  0.00    -0.273 NA
HETATM   17  C11 UNL     1      29.158   1.060  53.756  1.00  0.00     0.116 A 
HETATM   18  C12 UNL     1      27.794   0.986  53.567  1.00  0.00     0.028 A 
ENDBRANCH  12  13
ENDBRANCH  10  12
ENDBRANCH   7   8
ENDBRANCH   4   6
ENDBRANCH   1   4
BRANCH   1  19
HETATM   19  C13 UNL     1      24.453   5.000  50.420  1.00  0.00     0.136 A 
HETATM   20  C14 UNL     1      23.801   5.863  51.426  1.00  0.00     0.232 A 
HETATM   21  O2  UNL     1      22.841   5.402  52.097  1.00  0.00    -0.272 OA
HETATM   22  N4  UNL     1      24.419   7.163  51.463  1.00  0.00    -0.326 N 
HETATM   23  C15 UNL     1      25.458   7.147  50.491  1.00  0.00     0.042 A 
HETATM   24  H18 UNL     1      24.092   7.898  52.114  1.00  0.00     0.169 HD
HETATM   25  C16 UNL     1      26.353   8.130  50.120  1.00  0.00     0.033 A 
HETATM   26  C20 UNL     1      25.493   5.912  49.877  1.00  0.00    -0.013 A 
HETATM   27  C17 UNL     1      27.265   7.806  49.119  1.00  0.00     0.044 A 
HETATM   28  C18 UNL     1      27.313   6.578  48.495  1.00  0.00     0.117 A 
HETATM   29  F1  UNL     1      28.250   6.384  47.531  1.00  0.00    -0.206 F 
HETATM   30  C19 UNL     1      26.402   5.586  48.877  1.00  0.00     0.052 A 
ENDBRANCH   1  19
TORSDOF 7
ENDMDL
MODEL 5
REMARK VINA RESULT:      -7.7      3.991     10.059
REMARK  7 active torsions:
REMARK  status: ('A' for Active; 'I' for Inactive)
REMARK    1  A    between atoms: C2_2  and  C3_3 
REMARK    2  A    between atoms: C3_3  and  N1_4 
REMARK    3  A    between atoms: C3_3  and  C13_17 
REMARK    4  A    between atoms: N1_4  and  C4_5 
REMARK    5  A    between atoms: C5_6  and  C6_7 
REMARK       I    between atoms: C6_7  and  N2_9 
REMARK    6  A    between atoms: N2_9  and  C7_10 
REMARK    7  A    between atoms: C7_10  and  C8_11 
ROOT
HETATM    1  C3  UNL     1      29.035   6.859  47.445  1.00  0.00     0.098 C 
ENDROOT
BRANCH   1   2
HETATM    2  C2  UNL     1      29.309   7.852  46.337  1.00  0.00     0.022 C 
HETATM    3  C1  UNL     1      27.978   8.435  45.911  1.00  0.00     0.007 C 
ENDBRANCH   1   2
BRANCH   1   4
HETATM    4  N1  UNL     1      27.676   7.093  47.881  1.00  0.00    -0.393 N 
HETATM    5  H7  UNL     1      27.041   7.938  47.766  1.00  0.00     0.159 HD
BRANCH   4   6
HETATM    6  C4  UNL     1      26.964   6.106  48.589  1.00  0.00     0.088 C 
HETATM    7  C5  UNL     1      27.203   4.865  48.943  1.00  0.00     0.090 C 
BRANCH   7   8
HETATM    8  C6  UNL     1      26.381   3.924  49.687  1.00  0.00     0.242 C 
HETATM    9  O1  UNL     1      25.219   3.733  49.241  1.00  0.00    -0.269 OA
HETATM   10  N2  UNL     1      26.909   3.287  50.840  1.00  0.00    -0.353 N 
HETATM   11  H10 UNL     1      27.868   3.450  51.201  1.00  0.00     0.163 HD
BRANCH  10  12
HETATM   12  C7  UNL     1      26.172   2.348  51.631  1.00  0.00     0.161 C 
BRANCH  12  13
HETATM   13  C8  UNL     1      27.008   1.374  52.348  1.00  0.00    -0.038 A 
HETATM   14  C9  UNL     1      28.070   1.871  53.108  1.00  0.00     0.028 A 
HETATM   15  C10 UNL     1      28.949   1.128  53.836  1.00  0.00     0.116 A 
HETATM   16  N3  UNL     1      28.775  -0.224  53.821  1.00  0.00    -0.273 NA
HETATM   17  C11 UNL     1      27.775  -0.764  53.112  1.00  0.00     0.116 A 
HETATM   18  C12 UNL     1      26.887  -0.009  52.376  1.00  0.00     0.028 A 
ENDBRANCH  12  13
ENDBRANCH  10  12
ENDBRANCH   7   8
ENDBRANCH   4   6
ENDBRANCH   1   4
BRANCH   1  19
HETATM   19  C13 UNL     1      29.942   7.055  48.626  1.00  0.00     0.136 A 
HETATM   20  C14 UNL     1      30.151   8.479  48.957  1.00  0.00     0.232 A 
HETATM   21  O2  UNL     1      29.152   9.199  49.221  1.00  0.00    -0.272 OA
HETATM   22  N4  UNL     1      31.551   8.815  48.917  1.00  0.00    -0.326 N 
HETATM   23  C15 UNL     1      32.243   7.624  48.560  1.00  0.00     0.042 A 
HETATM   24  H18 UNL     1      31.883   9.772  49.127  1.00  0.00     0.169 HD
HETATM   25  C16 UNL     1      33.593   7.392  48.382  1.00  0.00     0.033 A 
HETATM   26  C20 UNL     1      31.336   6.600  48.385  1.00  0.00    -0.013 A 
HETATM   27  C17 UNL     1      33.968   6.099  48.027  1.00  0.00     0.044 A 
HETATM   28  C18 UNL     1      33.074   5.065  47.848  1.00  0.00     0.117 A 
HETATM   29  F1  UNL     1      33.564   3.847  47.500  1.00  0.00    -0.206 F 
HETATM   30  C19 UNL     1      31.707   5.308  48.030  1.00  0.00     0.052 A 
ENDBRANCH   1  19
TORSDOF 7
ENDMDL
MODEL 6
REMARK VINA RESULT:      -7.6      2.905      4.247
REMARK  7 active torsions:
REMARK  status: ('A' for Active; 'I' for Inactive)
REMARK    1  A    between atoms: C2_2  and  C3_3 
REMARK    2  A    between atoms: C3_3  and  N1_4 
REMARK    3  A    between atoms: C3_3  and  C13_17 
REMARK    4  A    between atoms: N1_4  and  C4_5 
REMARK    5  A    between atoms: C5_6  and  C6_7 
REMARK       I    between atoms: C6_7  and  N2_9 
REMARK    6  A    between atoms: N2_9  and  C7_10 
REMARK    7  A    between atoms: C7_10  and  C8_11 
ROOT
HETATM    1  C3  UNL     1      24.627   3.315  51.679  1.00  0.00     0.098 C 
ENDROOT
BRANCH   1   2
HETATM    2  C2  UNL     1      23.664   3.824  52.728  1.00  0.00     0.022 C 
HETATM    3  C1  UNL     1      22.915   4.994  52.125  1.00  0.00     0.007 C 
ENDBRANCH   1   2
BRANCH   1   4
HETATM    4  N1  UNL     1      24.305   4.008  50.452  1.00  0.00    -0.393 N 
HETATM    5  H7  UNL     1      23.421   4.009  49.861  1.00  0.00     0.159 HD
BRANCH   4   6
HETATM    6  C4  UNL     1      25.242   4.859  49.834  1.00  0.00     0.088 C 
HETATM    7  C5  UNL     1      26.420   4.694  49.281  1.00  0.00     0.090 C 
BRANCH   7   8
HETATM    8  C6  UNL     1      27.313   5.660  48.663  1.00  0.00     0.242 C 
HETATM    9  O1  UNL     1      26.759   6.623  48.069  1.00  0.00    -0.269 OA
HETATM   10  N2  UNL     1      28.718   5.479  48.754  1.00  0.00    -0.353 N 
HETATM   11  H10 UNL     1      29.166   4.682  49.246  1.00  0.00     0.163 HD
BRANCH  10  12
HETATM   12  C7  UNL     1      29.670   6.379  48.177  1.00  0.00     0.161 C 
BRANCH  12  13
HETATM   13  C8  UNL     1      31.056   5.890  48.201  1.00  0.00    -0.038 A 
HETATM   14  C9  UNL     1      31.325   4.682  47.551  1.00  0.00     0.028 A 
HETATM   15  C10 UNL     1      32.539   4.073  47.466  1.00  0.00     0.116 A 
HETATM   16  N3  UNL     1      33.588   4.700  48.070  1.00  0.00    -0.273 NA
HETATM   17  C11 UNL     1      33.398   5.862  48.710  1.00  0.00     0.116 A 
HETATM   18  C12 UNL     1      32.166   6.476  48.794  1.00  0.00     0.028 A 
ENDBRANCH  12  13
ENDBRANCH  10  12
ENDBRANCH   7   8
ENDBRANCH   4   6
ENDBRANCH   1   4
BRANCH   1  19
HETATM   19  C13 UNL     1      24.478   1.840  51.433  1.00  0.00     0.136 A 
HETATM   20  C14 UNL     1      23.072   1.433  51.232  1.00  0.00     0.232 A 
HETATM   21  O2  UNL     1      22.409   1.963  50.302  1.00  0.00    -0.272 OA
HETATM   22  N4  UNL     1      22.684   0.437  52.196  1.00  0.00    -0.326 N 
HETATM   23  C15 UNL     1      23.822   0.203  53.018  1.00  0.00     0.042 A 
HETATM   24  H18 UNL     1      21.732   0.034  52.202  1.00  0.00     0.169 HD
HETATM   25  C16 UNL     1      23.992  -0.651  54.090  1.00  0.00     0.033 A 
HETATM   26  C20 UNL     1      24.865   1.002  52.597  1.00  0.00    -0.013 A 
HETATM   27  C17 UNL     1      25.244  -0.653  54.700  1.00  0.00     0.044 A 
HETATM   28  C18 UNL     1      26.296   0.139  54.292  1.00  0.00     0.117 A 
HETATM   29  F1  UNL     1      27.470   0.046  54.969  1.00  0.00    -0.206 F 
HETATM   30  C19 UNL     1      26.116   1.002  53.204  1.00  0.00     0.052 A 
ENDBRANCH   1  19
TORSDOF 7
ENDMDL
MODEL 7
REMARK VINA RESULT:      -7.6      4.449      7.026
REMARK  7 active torsions:
REMARK  status: ('A' for Active; 'I' for Inactive)
REMARK    1  A    between atoms: C2_2  and  C3_3 
REMARK    2  A    between atoms: C3_3  and  N1_4 
REMARK    3  A    between atoms: C3_3  and  C13_17 
REMARK    4  A    between atoms: N1_4  and  C4_5 
REMARK    5  A    between atoms: C5_6  and  C6_7 
REMARK       I    between atoms: C6_7  and  N2_9 
REMARK    6  A    between atoms: N2_9  and  C7_10 
REMARK    7  A    between atoms: C7_10  and  C8_11 
ROOT
HETATM    1  C3  UNL     1      27.321  -0.429  53.351  1.00  0.00     0.098 C 
ENDROOT
BRANCH   1   2
HETATM    2  C2  UNL     1      26.721  -1.352  52.314  1.00  0.00     0.022 C 
HETATM    3  C1  UNL     1      27.392  -2.701  52.466  1.00  0.00     0.007 C 
ENDBRANCH   1   2
BRANCH   1   4
HETATM    4  N1  UNL     1      26.474  -0.516  54.519  1.00  0.00    -0.393 N 
HETATM    5  H7  UNL     1      26.713  -0.538  55.556  1.00  0.00     0.159 HD
BRANCH   4   6
HETATM    6  C4  UNL     1      25.073  -0.590  54.394  1.00  0.00     0.088 C 
HETATM    7  C5  UNL     1      24.109  -1.147  55.087  1.00  0.00     0.090 C 
BRANCH   7   8
HETATM    8  C6  UNL     1      22.673  -1.158  54.861  1.00  0.00     0.242 C 
HETATM    9  O1  UNL     1      22.053  -2.165  55.296  1.00  0.00    -0.269 OA
HETATM   10  N2  UNL     1      22.058  -0.072  54.186  1.00  0.00    -0.353 N 
HETATM   11  H10 UNL     1      22.576   0.754  53.831  1.00  0.00     0.163 HD
BRANCH  10  12
HETATM   12  C7  UNL     1      20.653   0.000  53.920  1.00  0.00     0.161 C 
BRANCH  12  13
HETATM   13  C8  UNL     1      20.305   0.749  52.703  1.00  0.00    -0.038 A 
HETATM   14  C9  UNL     1      20.246   2.142  52.798  1.00  0.00     0.028 A 
HETATM   15  C10 UNL     1      19.942   3.000  51.786  1.00  0.00     0.116 A 
HETATM   16  N3  UNL     1      19.670   2.448  50.569  1.00  0.00    -0.273 NA
HETATM   17  C11 UNL     1      19.710   1.117  50.411  1.00  0.00     0.116 A 
HETATM   18  C12 UNL     1      20.019   0.252  51.439  1.00  0.00     0.028 A 
ENDBRANCH  12  13
ENDBRANCH  10  12
ENDBRANCH   7   8
ENDBRANCH   4   6
ENDBRANCH   1   4
BRANCH   1  19
HETATM   19  C13 UNL     1      27.344   1.002  52.898  1.00  0.00     0.136 A 
HETATM   20  C14 UNL     1      27.768   1.933  53.963  1.00  0.00     0.232 A 
HETATM   21  O2  UNL     1      28.894   1.770  54.506  1.00  0.00    -0.272 OA
HETATM   22  N4  UNL     1      26.756   2.927  54.209  1.00  0.00    -0.326 N 
HETATM   23  C15 UNL     1      25.684   2.644  53.318  1.00  0.00     0.042 A 
HETATM   24  H18 UNL     1      26.886   3.665  54.923  1.00  0.00     0.169 HD
HETATM   25  C16 UNL     1      24.474   3.284  53.141  1.00  0.00     0.033 A 
HETATM   26  C20 UNL     1      26.001   1.538  52.556  1.00  0.00    -0.013 A 
HETATM   27  C17 UNL     1      23.619   2.759  52.174  1.00  0.00     0.044 A 
HETATM   28  C18 UNL     1      23.920   1.656  51.405  1.00  0.00     0.117 A 
HETATM   29  F1  UNL     1      23.003   1.239  50.494  1.00  0.00    -0.206 F 
HETATM   30  C19 UNL     1      25.150   1.012  51.590  1.00  0.00     0.052 A 
ENDBRANCH   1  19
TORSDOF 7
ENDMDL
MODEL 8
REMARK VINA RESULT:      -7.4      4.266     10.694
REMARK  7 active torsions:
REMARK  status: ('A' for Active; 'I' for Inactive)
REMARK    1  A    between atoms: C2_2  and  C3_3 
REMARK    2  A    between atoms: C3_3  and  N1_4 
REMARK    3  A    between atoms: C3_3  and  C13_17 
REMARK    4  A    between atoms: N1_4  and  C4_5 
REMARK    5  A    between atoms: C5_6  and  C6_7 
REMARK       I    between atoms: C6_7  and  N2_9 
REMARK    6  A    between atoms: N2_9  and  C7_10 
REMARK    7  A    between atoms: C7_10  and  C8_11 
ROOT
HETATM    1  C3  UNL     1      27.872   8.300  48.088  1.00  0.00     0.098 C 
ENDROOT
BRANCH   1   2
HETATM    2  C2  UNL     1      27.455   8.434  49.536  1.00  0.00     0.022 C 
HETATM    3  C1  UNL     1      26.306   9.420  49.587  1.00  0.00     0.007 C 
ENDBRANCH   1   2
BRANCH   1   4
HETATM    4  N1  UNL     1      27.816   6.891  47.772  1.00  0.00    -0.393 N 
HETATM    5  H7  UNL     1      28.266   6.333  46.986  1.00  0.00     0.159 HD
BRANCH   4   6
HETATM    6  C4  UNL     1      27.070   6.000  48.567  1.00  0.00     0.088 C 
HETATM    7  C5  UNL     1      27.189   4.737  48.904  1.00  0.00     0.090 C 
BRANCH   7   8
HETATM    8  C6  UNL     1      26.345   3.905  49.746  1.00  0.00     0.242 C 
HETATM    9  O1  UNL     1      25.147   3.783  49.378  1.00  0.00    -0.269 OA
HETATM   10  N2  UNL     1      26.893   3.291  50.903  1.00  0.00    -0.353 N 
HETATM   11  H10 UNL     1      27.881   3.397  51.199  1.00  0.00     0.163 HD
BRANCH  10  12
HETATM   12  C7  UNL     1      26.137   2.457  51.788  1.00  0.00     0.161 C 
BRANCH  12  13
HETATM   13  C8  UNL     1      26.925   1.854  52.872  1.00  0.00    -0.038 A 
HETATM   14  C9  UNL     1      26.270   0.963  53.728  1.00  0.00     0.028 A 
HETATM   15  C10 UNL     1      26.830   0.310  54.783  1.00  0.00     0.116 A 
HETATM   16  N3  UNL     1      28.150   0.548  55.026  1.00  0.00    -0.273 NA
HETATM   17  C11 UNL     1      28.836   1.391  54.243  1.00  0.00     0.116 A 
HETATM   18  C12 UNL     1      28.266   2.050  53.175  1.00  0.00     0.028 A 
ENDBRANCH  12  13
ENDBRANCH  10  12
ENDBRANCH   7   8
ENDBRANCH   4   6
ENDBRANCH   1   4
BRANCH   1  19
HETATM   19  C13 UNL     1      29.277   8.775  47.852  1.00  0.00     0.136 A 
HETATM   20  C14 UNL     1      30.238   8.232  48.833  1.00  0.00     0.232 A 
HETATM   21  O2  UNL     1      30.356   6.983  48.946  1.00  0.00    -0.272 OA
HETATM   22  N4  UNL     1      30.914   9.294  49.531  1.00  0.00    -0.326 N 
HETATM   23  C15 UNL     1      30.396  10.514  49.013  1.00  0.00     0.042 A 
HETATM   24  H18 UNL     1      31.626   9.096  50.255  1.00  0.00     0.169 HD
HETATM   25  C16 UNL     1      30.698  11.823  49.334  1.00  0.00     0.033 A 
HETATM   26  C20 UNL     1      29.450  10.238  48.047  1.00  0.00    -0.013 A 
HETATM   27  C17 UNL     1      30.008  12.815  48.642  1.00  0.00     0.044 A 
HETATM   28  C18 UNL     1      29.061  12.557  47.674  1.00  0.00     0.117 A 
HETATM   29  F1  UNL     1      28.457  13.612  47.070  1.00  0.00    -0.206 F 
HETATM   30  C19 UNL     1      28.761  11.227  47.355  1.00  0.00     0.052 A 
ENDBRANCH   1  19
TORSDOF 7
ENDMDL
MODEL 9
REMARK VINA RESULT:      -7.4      3.942      7.629
REMARK  7 active torsions:
REMARK  status: ('A' for Active; 'I' for Inactive)
REMARK    1  A    between atoms: C2_2  and  C3_3 
REMARK    2  A    between atoms: C3_3  and  N1_4 
REMARK    3  A    between atoms: C3_3  and  C13_17 
REMARK    4  A    between atoms: N1_4  and  C4_5 
REMARK    5  A    between atoms: C5_6  and  C6_7 
REMARK       I    between atoms: C6_7  and  N2_9 
REMARK    6  A    between atoms: N2_9  and  C7_10 
REMARK    7  A    between atoms: C7_10  and  C8_11 
ROOT
HETATM    1  C3  UNL     1      21.031   1.442  50.833  1.00  0.00     0.098 C 
ENDROOT
BRANCH   1   2
HETATM    2  C2  UNL     1      19.630   1.665  50.308  1.00  0.00     0.022 C 
HETATM    3  C1  UNL     1      18.801   0.461  50.702  1.00  0.00     0.007 C 
ENDBRANCH   1   2
BRANCH   1   4
HETATM    4  N1  UNL     1      20.948   0.349  51.775  1.00  0.00    -0.393 N 
HETATM    5  H7  UNL     1      20.183  -0.370  51.947  1.00  0.00     0.159 HD
BRANCH   4   6
HETATM    6  C4  UNL     1      22.000   0.088  52.675  1.00  0.00     0.088 C 
HETATM    7  C5  UNL     1      22.157  -0.697  53.714  1.00  0.00     0.090 C 
BRANCH   7   8
HETATM    8  C6  UNL     1      23.306  -0.889  54.584  1.00  0.00     0.242 C 
HETATM    9  O1  UNL     1      23.091  -1.522  55.651  1.00  0.00    -0.269 OA
HETATM   10  N2  UNL     1      24.572  -0.372  54.202  1.00  0.00    -0.353 N 
HETATM   11  H10 UNL     1      24.740   0.148  53.320  1.00  0.00     0.163 HD
BRANCH  10  12
HETATM   12  C7  UNL     1      25.755  -0.514  54.995  1.00  0.00     0.161 C 
BRANCH  12  13
HETATM   13  C8  UNL     1      26.920   0.221  54.481  1.00  0.00    -0.038 A 
HETATM   14  C9  UNL     1      26.674   1.369  53.722  1.00  0.00     0.028 A 
HETATM   15  C10 UNL     1      27.618   2.176  53.163  1.00  0.00     0.116 A 
HETATM   16  N3  UNL     1      28.921   1.831  53.365  1.00  0.00    -0.273 NA
HETATM   17  C11 UNL     1      29.225   0.742  54.084  1.00  0.00     0.116 A 
HETATM   18  C12 UNL     1      28.266  -0.072  54.648  1.00  0.00     0.028 A 
ENDBRANCH  12  13
ENDBRANCH  10  12
ENDBRANCH   7   8
ENDBRANCH   4   6
ENDBRANCH   1   4
BRANCH   1  19
HETATM   19  C13 UNL     1      21.568   2.642  51.558  1.00  0.00     0.136 A 
HETATM   20  C14 UNL     1      20.531   3.656  51.835  1.00  0.00     0.232 A 
HETATM   21  O2  UNL     1      19.517   3.326  52.506  1.00  0.00    -0.272 OA
HETATM   22  N4  UNL     1      20.884   4.924  51.252  1.00  0.00    -0.326 N 
HETATM   23  C15 UNL     1      22.135   4.736  50.600  1.00  0.00     0.042 A 
HETATM   24  H18 UNL     1      20.272   5.752  51.349  1.00  0.00     0.169 HD
HETATM   25  C16 UNL     1      22.916   5.624  49.888  1.00  0.00     0.033 A 
HETATM   26  C20 UNL     1      22.546   3.429  50.762  1.00  0.00    -0.013 A 
HETATM   27  C17 UNL     1      24.107   5.132  49.360  1.00  0.00     0.044 A 
HETATM   28  C18 UNL     1      24.532   3.830  49.513  1.00  0.00     0.117 A 
HETATM   29  F1  UNL     1      25.714   3.470  48.949  1.00  0.00    -0.206 F 
HETATM   30  C19 UNL     1      23.734   2.935  50.236  1.00  0.00     0.052 A 
ENDBRANCH   1  19
TORSDOF 7
ENDMDL
