MODEL 1
REMARK VINA RESULT:      -9.2      0.000      0.000
REMARK  5 active torsions:
REMARK  status: ('A' for Active; 'I' for Inactive)
REMARK    1  A    between atoms: N1_1  and  C1_2 
REMARK    2  A    between atoms: C13_15  and  N3_16 
REMARK    3  A    between atoms: N3_16  and  C14_17 
REMARK    4  A    between atoms: C18_22  and  C19_23 
REMARK    5  A    between atoms: C19_23  and  C20_24 
ROOT
HETATM    1  C1  UNL     1      22.221  -0.747  53.028  1.00  0.00     0.368 C 
HETATM    2  N2  UNL     1      21.050  -0.086  52.527  1.00  0.00    -0.355 N 
HETATM    3  C2  UNL     1      19.872   0.229  51.825  1.00  0.00     0.036 A 
HETATM    4  C3  UNL     1      18.608   0.120  52.323  1.00  0.00     0.030 A 
HETATM    5  C4  UNL     1      17.543   0.461  51.514  1.00  0.00     0.002 A 
HETATM    6  C5  UNL     1      17.882   0.887  50.260  1.00  0.00     0.001 A 
HETATM    7  C6  UNL     1      19.173   0.983  49.792  1.00  0.00     0.009 A 
HETATM    8  C7  UNL     1      20.282   0.646  50.582  1.00  0.00    -0.031 A 
HETATM    9  C8  UNL     1      21.542   0.815  49.849  1.00  0.00     0.047 C 
HETATM   10  C9  UNL     1      22.234   2.117  49.927  1.00  0.00     0.061 C 
HETATM   11  C10 UNL     1      22.760   2.538  51.220  1.00  0.00     0.006 C 
HETATM   12  C11 UNL     1      22.288   2.497  52.451  1.00  0.00     0.035 C 
HETATM   13  C12 UNL     1      23.253   1.529  52.968  1.00  0.00    -0.012 C 
HETATM   14  C13 UNL     1      23.314   0.233  53.230  1.00  0.00     0.070 C 
HETATM   15  C22 UNL     1      24.174   2.669  53.026  1.00  0.00     0.160 C 
HETATM   16  N4  UNL     1      24.012   3.162  51.634  1.00  0.00    -0.389 N 
HETATM   17  H4  UNL     1      20.975   0.768  53.116  1.00  0.00     0.162 HD
HETATM   18  H24 UNL     1      24.627   3.802  51.040  1.00  0.00     0.159 HD
ENDROOT
BRANCH  14  19
HETATM   19  N3  UNL     1      24.499  -0.330  53.722  1.00  0.00    -0.356 N 
HETATM   20  H14 UNL     1      24.179  -0.625  54.682  1.00  0.00     0.166 HD
BRANCH  19  21
HETATM   21  C14 UNL     1      25.844  -0.661  53.528  1.00  0.00     0.033 A 
HETATM   22  C15 UNL     1      26.394  -1.661  52.760  1.00  0.00     0.032 A 
HETATM   23  C16 UNL     1      27.761  -1.816  52.708  1.00  0.00     0.045 A 
HETATM   24  C17 UNL     1      28.535  -0.948  53.438  1.00  0.00     0.122 A 
HETATM   25  F1  UNL     1      29.877  -1.126  53.367  1.00  0.00    -0.206 F 
HETATM   26  C18 UNL     1      28.063   0.076  54.228  1.00  0.00    -0.015 A 
HETATM   27  C21 UNL     1      26.669   0.204  54.257  1.00  0.00     0.039 A 
BRANCH  26  28
HETATM   28  C19 UNL     1      29.007   0.932  54.957  1.00  0.00     0.073 C 
BRANCH  28  29
HETATM   29  C20 UNL     1      29.437   2.133  54.121  1.00  0.00     0.227 C 
HETATM   30  F2  UNL     1      28.301   2.858  53.833  1.00  0.00    -0.255 F 
ENDBRANCH  28  29
ENDBRANCH  26  28
ENDBRANCH  19  21
ENDBRANCH  14  19
BRANCH   1  31
HETATM   31  N1  UNL     1      21.961  -1.643  54.104  1.00  0.00     0.107 N 
HETATM   32  H1  UNL     1      22.801  -2.130  54.495  1.00  0.00     0.316 HD
HETATM   33  H2  UNL     1      21.276  -2.387  53.847  1.00  0.00     0.316 HD
ENDBRANCH   1  31
TORSDOF 5
ENDMDL
MODEL 2
REMARK VINA RESULT:      -9.1      3.266      7.860
REMARK  5 active torsions:
REMARK  status: ('A' for Active; 'I' for Inactive)
REMARK    1  A    between atoms: N1_1  and  C1_2 
REMARK    2  A    between atoms: C13_15  and  N3_16 
REMARK    3  A    between atoms: N3_16  and  C14_17 
REMARK    4  A    between atoms: C18_22  and  C19_23 
REMARK    5  A    between atoms: C19_23  and  C20_24 
ROOT
HETATM    1  C1  UNL     1      24.468   0.035  53.388  1.00  0.00     0.368 C 
HETATM    2  N2  UNL     1      25.762  -0.489  53.056  1.00  0.00    -0.355 N 
HETATM    3  C2  UNL     1      27.042  -1.070  53.119  1.00  0.00     0.036 A 
HETATM    4  C3  UNL     1      27.333  -2.365  52.807  1.00  0.00     0.030 A 
HETATM    5  C4  UNL     1      28.638  -2.799  52.922  1.00  0.00     0.002 A 
HETATM    6  C5  UNL     1      29.527  -1.853  53.349  1.00  0.00     0.001 A 
HETATM    7  C6  UNL     1      29.195  -0.552  53.656  1.00  0.00     0.009 A 
HETATM    8  C7  UNL     1      27.881  -0.073  53.553  1.00  0.00    -0.031 A 
HETATM    9  C8  UNL     1      27.784   1.335  53.955  1.00  0.00     0.047 C 
HETATM   10  C9  UNL     1      27.949   2.377  52.921  1.00  0.00     0.061 C 
HETATM   11  C10 UNL     1      26.948   2.458  51.864  1.00  0.00     0.006 C 
HETATM   12  C11 UNL     1      26.324   1.557  51.131  1.00  0.00     0.035 C 
HETATM   13  C12 UNL     1      24.991   1.786  51.683  1.00  0.00    -0.012 C 
HETATM   14  C13 UNL     1      24.179   1.238  52.574  1.00  0.00     0.070 C 
HETATM   15  C22 UNL     1      24.971   2.965  50.810  1.00  0.00     0.160 C 
HETATM   16  N4  UNL     1      26.261   3.574  51.223  1.00  0.00    -0.389 N 
HETATM   17  H4  UNL     1      25.782  -0.462  52.016  1.00  0.00     0.162 HD
HETATM   18  H24 UNL     1      26.635   4.569  51.111  1.00  0.00     0.159 HD
ENDROOT
BRANCH  14  19
HETATM   19  N3  UNL     1      22.929   1.815  52.834  1.00  0.00    -0.356 N 
HETATM   20  H14 UNL     1      23.062   2.096  53.841  1.00  0.00     0.166 HD
BRANCH  19  21
HETATM   21  C14 UNL     1      21.652   2.169  52.388  1.00  0.00     0.033 A 
HETATM   22  C15 UNL     1      21.101   3.419  52.221  1.00  0.00     0.032 A 
HETATM   23  C16 UNL     1      19.809   3.547  51.765  1.00  0.00     0.045 A 
HETATM   24  C17 UNL     1      19.108   2.398  51.490  1.00  0.00     0.122 A 
HETATM   25  F1  UNL     1      17.837   2.556  51.043  1.00  0.00    -0.206 F 
HETATM   26  C18 UNL     1      19.586   1.115  51.631  1.00  0.00    -0.015 A 
HETATM   27  C21 UNL     1      20.902   1.023  52.095  1.00  0.00     0.039 A 
BRANCH  26  28
HETATM   28  C19 UNL     1      18.724  -0.027  51.299  1.00  0.00     0.073 C 
BRANCH  28  29
HETATM   29  C20 UNL     1      17.999  -0.560  52.531  1.00  0.00     0.227 C 
HETATM   30  F2  UNL     1      18.891  -1.355  53.217  1.00  0.00    -0.255 F 
ENDBRANCH  28  29
ENDBRANCH  26  28
ENDBRANCH  19  21
ENDBRANCH  14  19
BRANCH   1  31
HETATM   31  N1  UNL     1      23.444  -0.953  53.451  1.00  0.00     0.107 N 
HETATM   32  H1  UNL     1      22.532  -0.682  53.016  1.00  0.00     0.316 HD
HETATM   33  H2  UNL     1      23.234  -1.248  54.429  1.00  0.00     0.316 HD
ENDBRANCH   1  31
TORSDOF 5
ENDMDL
MODEL 3
REMARK VINA RESULT:      -8.8      4.042      8.549
REMARK  5 active torsions:
REMARK  status: ('A' for Active; 'I' for Inactive)
REMARK    1  A    between atoms: N1_1  and  C1_2 
REMARK    2  A    between atoms: C13_15  and  N3_16 
REMARK    3  A    between atoms: N3_16  and  C14_17 
REMARK    4  A    between atoms: C18_22  and  C19_23 
REMARK    5  A    between atoms: C19_23  and  C20_24 
ROOT
HETATM    1  C1  UNL     1      26.304   2.966  50.692  1.00  0.00     0.368 C 
HETATM    2  N2  UNL     1      26.863   2.541  51.944  1.00  0.00    -0.355 N 
HETATM    3  C2  UNL     1      27.653   1.925  52.932  1.00  0.00     0.036 A 
HETATM    4  C3  UNL     1      28.676   2.524  53.606  1.00  0.00     0.030 A 
HETATM    5  C4  UNL     1      29.370   1.792  54.547  1.00  0.00     0.002 A 
HETATM    6  C5  UNL     1      28.943   0.505  54.710  1.00  0.00     0.001 A 
HETATM    7  C6  UNL     1      27.904  -0.066  54.009  1.00  0.00     0.009 A 
HETATM    8  C7  UNL     1      27.174   0.643  53.044  1.00  0.00    -0.031 A 
HETATM    9  C8  UNL     1      26.137  -0.192  52.427  1.00  0.00     0.047 C 
HETATM   10  C9  UNL     1      24.790  -0.204  53.032  1.00  0.00     0.061 C 
HETATM   11  C10 UNL     1      24.016   1.032  53.009  1.00  0.00     0.006 C 
HETATM   12  C11 UNL     1      24.315   2.297  53.233  1.00  0.00     0.035 C 
HETATM   13  C12 UNL     1      24.106   2.762  51.864  1.00  0.00    -0.012 C 
HETATM   14  C13 UNL     1      24.829   3.054  50.794  1.00  0.00     0.070 C 
HETATM   15  C22 UNL     1      22.679   2.716  52.201  1.00  0.00     0.160 C 
HETATM   16  N4  UNL     1      22.616   1.328  52.726  1.00  0.00    -0.389 N 
HETATM   17  H4  UNL     1      26.353   3.110  52.650  1.00  0.00     0.162 HD
HETATM   18  H24 UNL     1      21.787   0.670  52.873  1.00  0.00     0.159 HD
ENDROOT
BRANCH  14  19
HETATM   19  N3  UNL     1      24.201   3.467  49.611  1.00  0.00    -0.356 N 
HETATM   20  H14 UNL     1      24.041   2.532  49.152  1.00  0.00     0.166 HD
BRANCH  19  21
HETATM   21  C14 UNL     1      23.716   4.501  48.805  1.00  0.00     0.033 A 
HETATM   22  C15 UNL     1      24.194   5.782  48.647  1.00  0.00     0.032 A 
HETATM   23  C16 UNL     1      23.559   6.653  47.792  1.00  0.00     0.045 A 
HETATM   24  C17 UNL     1      22.452   6.200  47.117  1.00  0.00     0.122 A 
HETATM   25  F1  UNL     1      21.848   7.082  46.283  1.00  0.00    -0.206 F 
HETATM   26  C18 UNL     1      21.913   4.937  47.219  1.00  0.00    -0.015 A 
HETATM   27  C21 UNL     1      22.584   4.078  48.097  1.00  0.00     0.039 A 
BRANCH  26  28
HETATM   28  C19 UNL     1      20.721   4.586  46.437  1.00  0.00     0.073 C 
BRANCH  28  29
HETATM   29  C20 UNL     1      21.090   4.110  45.035  1.00  0.00     0.227 C 
HETATM   30  F2  UNL     1      22.234   3.351  45.150  1.00  0.00    -0.255 F 
ENDBRANCH  28  29
ENDBRANCH  26  28
ENDBRANCH  19  21
ENDBRANCH  14  19
BRANCH   1  31
HETATM   31  N1  UNL     1      26.972   4.084  50.114  1.00  0.00     0.107 N 
HETATM   32  H1  UNL     1      27.288   4.817  50.790  1.00  0.00     0.316 HD
HETATM   33  H2  UNL     1      26.388   4.570  49.398  1.00  0.00     0.316 HD
ENDBRANCH   1  31
TORSDOF 5
ENDMDL
MODEL 4
REMARK VINA RESULT:      -8.7      3.792      8.146
REMARK  5 active torsions:
REMARK  status: ('A' for Active; 'I' for Inactive)
REMARK    1  A    between atoms: N1_1  and  C1_2 
REMARK    2  A    between atoms: C13_15  and  N3_16 
REMARK    3  A    between atoms: N3_16  and  C14_17 
REMARK    4  A    between atoms: C18_22  and  C19_23 
REMARK    5  A    between atoms: C19_23  and  C20_24 
ROOT
HETATM    1  C1  UNL     1      26.337   2.922  50.601  1.00  0.00     0.368 C 
HETATM    2  N2  UNL     1      26.880   2.522  51.867  1.00  0.00    -0.355 N 
HETATM    3  C2  UNL     1      27.654   1.922  52.878  1.00  0.00     0.036 A 
HETATM    4  C3  UNL     1      28.678   2.524  53.545  1.00  0.00     0.030 A 
HETATM    5  C4  UNL     1      29.355   1.808  54.511  1.00  0.00     0.002 A 
HETATM    6  C5  UNL     1      28.910   0.530  54.702  1.00  0.00     0.001 A 
HETATM    7  C6  UNL     1      27.870  -0.045  54.007  1.00  0.00     0.009 A 
HETATM    8  C7  UNL     1      27.158   0.648  53.017  1.00  0.00    -0.031 A 
HETATM    9  C8  UNL     1      26.116  -0.189  52.412  1.00  0.00     0.047 C 
HETATM   10  C9  UNL     1      24.763  -0.169  53.005  1.00  0.00     0.061 C 
HETATM   11  C10 UNL     1      24.005   1.075  52.944  1.00  0.00     0.006 C 
HETATM   12  C11 UNL     1      24.318   2.342  53.139  1.00  0.00     0.035 C 
HETATM   13  C12 UNL     1      24.127   2.775  51.757  1.00  0.00    -0.012 C 
HETATM   14  C13 UNL     1      24.863   3.032  50.687  1.00  0.00     0.070 C 
HETATM   15  C22 UNL     1      22.696   2.755  52.082  1.00  0.00     0.160 C 
HETATM   16  N4  UNL     1      22.611   1.381  52.641  1.00  0.00    -0.389 N 
HETATM   17  H4  UNL     1      26.371   3.115  52.554  1.00  0.00     0.162 HD
HETATM   18  H24 UNL     1      21.772   0.738  52.797  1.00  0.00     0.159 HD
ENDROOT
BRANCH  14  19
HETATM   19  N3  UNL     1      24.250   3.422  49.488  1.00  0.00    -0.356 N 
HETATM   20  H14 UNL     1      24.519   2.611  48.871  1.00  0.00     0.166 HD
BRANCH  19  21
HETATM   21  C14 UNL     1      23.484   4.350  48.776  1.00  0.00     0.033 A 
HETATM   22  C15 UNL     1      22.492   4.133  47.847  1.00  0.00     0.032 A 
HETATM   23  C16 UNL     1      21.856   5.201  47.257  1.00  0.00     0.045 A 
HETATM   24  C17 UNL     1      22.245   6.466  47.627  1.00  0.00     0.122 A 
HETATM   25  F1  UNL     1      21.601   7.498  47.027  1.00  0.00    -0.206 F 
HETATM   26  C18 UNL     1      23.226   6.766  48.546  1.00  0.00    -0.015 A 
HETATM   27  C21 UNL     1      23.850   5.656  49.126  1.00  0.00     0.039 A 
BRANCH  26  28
HETATM   28  C19 UNL     1      23.541   8.168  48.847  1.00  0.00     0.073 C 
BRANCH  28  29
HETATM   29  C20 UNL     1      24.538   8.285  49.996  1.00  0.00     0.227 C 
HETATM   30  F2  UNL     1      23.814   8.266  51.168  1.00  0.00    -0.255 F 
ENDBRANCH  28  29
ENDBRANCH  26  28
ENDBRANCH  19  21
ENDBRANCH  14  19
BRANCH   1  31
HETATM   31  N1  UNL     1      27.024   4.017  50.000  1.00  0.00     0.107 N 
HETATM   32  H1  UNL     1      28.060   4.030  50.143  1.00  0.00     0.316 HD
HETATM   33  H2  UNL     1      26.665   4.941  50.328  1.00  0.00     0.316 HD
ENDBRANCH   1  31
TORSDOF 5
ENDMDL
MODEL 5
REMARK VINA RESULT:      -8.4      4.030      6.237
REMARK  5 active torsions:
REMARK  status: ('A' for Active; 'I' for Inactive)
REMARK    1  A    between atoms: N1_1  and  C1_2 
REMARK    2  A    between atoms: C13_15  and  N3_16 
REMARK    3  A    between atoms: N3_16  and  C14_17 
REMARK    4  A    between atoms: C18_22  and  C19_23 
REMARK    5  A    between atoms: C19_23  and  C20_24 
ROOT
HETATM    1  C1  UNL     1      23.310   3.443  48.905  1.00  0.00     0.368 C 
HETATM    2  N2  UNL     1      23.178   4.769  48.371  1.00  0.00    -0.355 N 
HETATM    3  C2  UNL     1      23.331   5.939  47.605  1.00  0.00     0.036 A 
HETATM    4  C3  UNL     1      22.513   6.321  46.584  1.00  0.00     0.030 A 
HETATM    5  C4  UNL     1      22.789   7.496  45.915  1.00  0.00     0.002 A 
HETATM    6  C5  UNL     1      23.889   8.172  46.363  1.00  0.00     0.001 A 
HETATM    7  C6  UNL     1      24.693   7.753  47.399  1.00  0.00     0.009 A 
HETATM    8  C7  UNL     1      24.446   6.566  48.104  1.00  0.00    -0.031 A 
HETATM    9  C8  UNL     1      25.455   6.333  49.143  1.00  0.00     0.047 C 
HETATM   10  C9  UNL     1      25.205   6.861  50.500  1.00  0.00     0.061 C 
HETATM   11  C10 UNL     1      24.086   6.310  51.255  1.00  0.00     0.006 C 
HETATM   12  C11 UNL     1      22.845   5.992  50.941  1.00  0.00     0.035 C 
HETATM   13  C12 UNL     1      22.992   4.549  51.123  1.00  0.00    -0.012 C 
HETATM   14  C13 UNL     1      23.177   3.470  50.380  1.00  0.00     0.070 C 
HETATM   15  C22 UNL     1      22.884   4.848  52.556  1.00  0.00     0.160 C 
HETATM   16  N4  UNL     1      23.926   5.902  52.647  1.00  0.00    -0.389 N 
HETATM   17  H4  UNL     1      22.363   5.163  48.884  1.00  0.00     0.162 HD
HETATM   18  H24 UNL     1      24.457   6.293  53.487  1.00  0.00     0.159 HD
ENDROOT
BRANCH  14  19
HETATM   19  N3  UNL     1      23.292   2.211  50.985  1.00  0.00    -0.356 N 
HETATM   20  H14 UNL     1      22.455   1.728  50.564  1.00  0.00     0.166 HD
BRANCH  19  21
HETATM   21  C14 UNL     1      23.976   1.349  51.848  1.00  0.00     0.033 A 
HETATM   22  C15 UNL     1      25.323   1.083  51.927  1.00  0.00     0.032 A 
HETATM   23  C16 UNL     1      25.795   0.190  52.862  1.00  0.00     0.045 A 
HETATM   24  C17 UNL     1      24.883  -0.411  53.695  1.00  0.00     0.122 A 
HETATM   25  F1  UNL     1      25.377  -1.287  54.604  1.00  0.00    -0.206 F 
HETATM   26  C18 UNL     1      23.522  -0.198  53.679  1.00  0.00    -0.015 A 
HETATM   27  C21 UNL     1      23.079   0.716  52.717  1.00  0.00     0.039 A 
BRANCH  26  28
HETATM   28  C19 UNL     1      22.660  -0.911  54.631  1.00  0.00     0.073 C 
BRANCH  28  29
HETATM   29  C20 UNL     1      21.183  -0.666  54.342  1.00  0.00     0.227 C 
HETATM   30  F2  UNL     1      20.790   0.410  55.106  1.00  0.00    -0.255 F 
ENDBRANCH  28  29
ENDBRANCH  26  28
ENDBRANCH  19  21
ENDBRANCH  14  19
BRANCH   1  31
HETATM   31  N1  UNL     1      22.540   2.465  48.213  1.00  0.00     0.107 N 
HETATM   32  H1  UNL     1      23.084   1.663  47.818  1.00  0.00     0.316 HD
HETATM   33  H2  UNL     1      21.992   2.873  47.425  1.00  0.00     0.316 HD
ENDBRANCH   1  31
TORSDOF 5
ENDMDL
MODEL 6
REMARK VINA RESULT:      -8.4      2.259      4.318
REMARK  5 active torsions:
REMARK  status: ('A' for Active; 'I' for Inactive)
REMARK    1  A    between atoms: N1_1  and  C1_2 
REMARK    2  A    between atoms: C13_15  and  N3_16 
REMARK    3  A    between atoms: N3_16  and  C14_17 
REMARK    4  A    between atoms: C18_22  and  C19_23 
REMARK    5  A    between atoms: C19_23  and  C20_24 
ROOT
HETATM    1  C1  UNL     1      24.995   3.786  51.143  1.00  0.00     0.368 C 
HETATM    2  N2  UNL     1      23.860   3.857  50.267  1.00  0.00    -0.355 N 
HETATM    3  C2  UNL     1      22.785   4.311  49.481  1.00  0.00     0.036 A 
HETATM    4  C3  UNL     1      22.818   4.483  48.129  1.00  0.00     0.030 A 
HETATM    5  C4  UNL     1      21.685   4.943  47.490  1.00  0.00     0.002 A 
HETATM    6  C5  UNL     1      20.617   5.183  48.308  1.00  0.00     0.001 A 
HETATM    7  C6  UNL     1      20.622   4.998  49.672  1.00  0.00     0.009 A 
HETATM    8  C7  UNL     1      21.752   4.533  50.359  1.00  0.00    -0.031 A 
HETATM    9  C8  UNL     1      21.510   4.441  51.803  1.00  0.00     0.047 C 
HETATM   10  C9  UNL     1      20.998   3.169  52.353  1.00  0.00     0.061 C 
HETATM   11  C10 UNL     1      21.856   1.993  52.273  1.00  0.00     0.006 C 
HETATM   12  C11 UNL     1      22.634   1.496  51.331  1.00  0.00     0.035 C 
HETATM   13  C12 UNL     1      23.900   1.720  52.024  1.00  0.00    -0.012 C 
HETATM   14  C13 UNL     1      24.895   2.593  52.015  1.00  0.00     0.070 C 
HETATM   15  C22 UNL     1      23.543   0.524  52.796  1.00  0.00     0.160 C 
HETATM   16  N4  UNL     1      22.176   0.925  53.215  1.00  0.00    -0.389 N 
HETATM   17  H4  UNL     1      23.752   2.881  49.922  1.00  0.00     0.162 HD
HETATM   18  H24 UNL     1      21.547   0.563  53.999  1.00  0.00     0.159 HD
ENDROOT
BRANCH  14  19
HETATM   19  N3  UNL     1      25.968   2.447  52.905  1.00  0.00    -0.356 N 
HETATM   20  H14 UNL     1      25.662   3.101  53.672  1.00  0.00     0.166 HD
BRANCH  19  21
HETATM   21  C14 UNL     1      27.196   1.858  53.220  1.00  0.00     0.033 A 
HETATM   22  C15 UNL     1      28.344   2.441  53.705  1.00  0.00     0.032 A 
HETATM   23  C16 UNL     1      29.458   1.670  53.950  1.00  0.00     0.045 A 
HETATM   24  C17 UNL     1      29.375   0.323  53.698  1.00  0.00     0.122 A 
HETATM   25  F1  UNL     1      30.488  -0.410  53.948  1.00  0.00    -0.206 F 
HETATM   26  C18 UNL     1      28.266  -0.335  53.214  1.00  0.00    -0.015 A 
HETATM   27  C21 UNL     1      27.154   0.480  52.976  1.00  0.00     0.039 A 
BRANCH  26  28
HETATM   28  C19 UNL     1      28.317  -1.785  52.989  1.00  0.00     0.073 C 
BRANCH  28  29
HETATM   29  C20 UNL     1      26.934  -2.357  52.693  1.00  0.00     0.227 C 
HETATM   30  F2  UNL     1      26.693  -2.169  51.350  1.00  0.00    -0.255 F 
ENDBRANCH  28  29
ENDBRANCH  26  28
ENDBRANCH  19  21
ENDBRANCH  14  19
BRANCH   1  31
HETATM   31  N1  UNL     1      26.243   3.994  50.488  1.00  0.00     0.107 N 
HETATM   32  H1  UNL     1      26.900   4.649  50.972  1.00  0.00     0.316 HD
HETATM   33  H2  UNL     1      26.127   4.351  49.514  1.00  0.00     0.316 HD
ENDBRANCH   1  31
TORSDOF 5
ENDMDL
MODEL 7
REMARK VINA RESULT:      -8.2      3.870      6.045
REMARK  5 active torsions:
REMARK  status: ('A' for Active; 'I' for Inactive)
REMARK    1  A    between atoms: N1_1  and  C1_2 
REMARK    2  A    between atoms: C13_15  and  N3_16 
REMARK    3  A    between atoms: N3_16  and  C14_17 
REMARK    4  A    between atoms: C18_22  and  C19_23 
REMARK    5  A    between atoms: C19_23  and  C20_24 
ROOT
HETATM    1  C1  UNL     1      23.345   3.418  48.794  1.00  0.00     0.368 C 
HETATM    2  N2  UNL     1      23.147   4.757  48.318  1.00  0.00    -0.355 N 
HETATM    3  C2  UNL     1      23.232   5.962  47.595  1.00  0.00     0.036 A 
HETATM    4  C3  UNL     1      22.370   6.351  46.613  1.00  0.00     0.030 A 
HETATM    5  C4  UNL     1      22.582   7.561  45.985  1.00  0.00     0.002 A 
HETATM    6  C5  UNL     1      23.667   8.262  46.430  1.00  0.00     0.001 A 
HETATM    7  C6  UNL     1      24.516   7.835  47.426  1.00  0.00     0.009 A 
HETATM    8  C7  UNL     1      24.336   6.613  48.089  1.00  0.00    -0.031 A 
HETATM    9  C8  UNL     1      25.383   6.379  49.090  1.00  0.00     0.047 C 
HETATM   10  C9  UNL     1      25.151   6.843  50.473  1.00  0.00     0.061 C 
HETATM   11  C10 UNL     1      24.077   6.219  51.236  1.00  0.00     0.006 C 
HETATM   12  C11 UNL     1      22.841   5.864  50.943  1.00  0.00     0.035 C 
HETATM   13  C12 UNL     1      23.048   4.423  51.063  1.00  0.00    -0.012 C 
HETATM   14  C13 UNL     1      23.254   3.381  50.272  1.00  0.00     0.070 C 
HETATM   15  C22 UNL     1      22.970   4.660  52.508  1.00  0.00     0.160 C 
HETATM   16  N4  UNL     1      23.973   5.750  52.613  1.00  0.00    -0.389 N 
HETATM   17  H4  UNL     1      22.332   5.098  48.868  1.00  0.00     0.162 HD
HETATM   18  H24 UNL     1      24.513   6.129  53.454  1.00  0.00     0.159 HD
ENDROOT
BRANCH  14  19
HETATM   19  N3  UNL     1      23.434   2.105  50.822  1.00  0.00    -0.356 N 
HETATM   20  H14 UNL     1      23.956   1.637  50.034  1.00  0.00     0.166 HD
BRANCH  19  21
HETATM   21  C14 UNL     1      23.246   1.216  51.885  1.00  0.00     0.033 A 
HETATM   22  C15 UNL     1      22.074   0.728  52.416  1.00  0.00     0.032 A 
HETATM   23  C16 UNL     1      22.112  -0.149  53.476  1.00  0.00     0.045 A 
HETATM   24  C17 UNL     1      23.342  -0.508  53.970  1.00  0.00     0.122 A 
HETATM   25  F1  UNL     1      23.347  -1.372  55.015  1.00  0.00    -0.206 F 
HETATM   26  C18 UNL     1      24.556  -0.065  53.495  1.00  0.00    -0.015 A 
HETATM   27  C21 UNL     1      24.480   0.824  52.418  1.00  0.00     0.039 A 
BRANCH  26  28
HETATM   28  C19 UNL     1      25.800  -0.532  54.121  1.00  0.00     0.073 C 
BRANCH  28  29
HETATM   29  C20 UNL     1      26.863  -0.863  53.078  1.00  0.00     0.227 C 
HETATM   30  F2  UNL     1      26.397  -1.933  52.345  1.00  0.00    -0.255 F 
ENDBRANCH  28  29
ENDBRANCH  26  28
ENDBRANCH  19  21
ENDBRANCH  14  19
BRANCH   1  31
HETATM   31  N1  UNL     1      22.594   2.437  48.084  1.00  0.00     0.107 N 
HETATM   32  H1  UNL     1      21.652   2.217  48.485  1.00  0.00     0.316 HD
HETATM   33  H2  UNL     1      23.102   1.530  47.999  1.00  0.00     0.316 HD
ENDBRANCH   1  31
TORSDOF 5
ENDMDL
MODEL 8
REMARK VINA RESULT:      -8.2      4.786      6.740
REMARK  5 active torsions:
REMARK  status: ('A' for Active; 'I' for Inactive)
REMARK    1  A    between atoms: N1_1  and  C1_2 
REMARK    2  A    between atoms: C13_15  and  N3_16 
REMARK    3  A    between atoms: N3_16  and  C14_17 
REMARK    4  A    between atoms: C18_22  and  C19_23 
REMARK    5  A    between atoms: C19_23  and  C20_24 
ROOT
HETATM    1  C1  UNL     1      25.483   3.147  50.939  1.00  0.00     0.368 C 
HETATM    2  N2  UNL     1      24.488   2.387  51.641  1.00  0.00    -0.355 N 
HETATM    3  C2  UNL     1      23.631   1.361  52.079  1.00  0.00     0.036 A 
HETATM    4  C3  UNL     1      23.835   0.583  53.180  1.00  0.00     0.030 A 
HETATM    5  C4  UNL     1      22.909  -0.392  53.486  1.00  0.00     0.002 A 
HETATM    6  C5  UNL     1      21.852  -0.477  52.624  1.00  0.00     0.001 A 
HETATM    7  C6  UNL     1      21.680   0.327  51.520  1.00  0.00     0.009 A 
HETATM    8  C7  UNL     1      22.598   1.329  51.175  1.00  0.00    -0.031 A 
HETATM    9  C8  UNL     1      22.200   2.030  49.948  1.00  0.00     0.047 C 
HETATM   10  C9  UNL     1      21.355   3.235  50.068  1.00  0.00     0.061 C 
HETATM   11  C10 UNL     1      21.918   4.406  50.729  1.00  0.00     0.006 C 
HETATM   12  C11 UNL     1      22.646   4.575  51.816  1.00  0.00     0.035 C 
HETATM   13  C12 UNL     1      23.856   5.033  51.136  1.00  0.00    -0.012 C 
HETATM   14  C13 UNL     1      25.023   4.542  50.749  1.00  0.00     0.070 C 
HETATM   15  C22 UNL     1      23.156   6.318  51.028  1.00  0.00     0.160 C 
HETATM   16  N4  UNL     1      21.886   5.834  50.430  1.00  0.00    -0.389 N 
HETATM   17  H4  UNL     1      24.190   3.020  52.411  1.00  0.00     0.162 HD
HETATM   18  H24 UNL     1      21.116   6.353  49.901  1.00  0.00     0.159 HD
ENDROOT
BRANCH  14  19
HETATM   19  N3  UNL     1      25.939   5.357  50.072  1.00  0.00    -0.356 N 
HETATM   20  H14 UNL     1      26.797   5.202  50.664  1.00  0.00     0.166 HD
BRANCH  19  21
HETATM   21  C14 UNL     1      26.219   6.237  49.022  1.00  0.00     0.033 A 
HETATM   22  C15 UNL     1      25.369   7.077  48.339  1.00  0.00     0.032 A 
HETATM   23  C16 UNL     1      25.854   7.871  47.325  1.00  0.00     0.045 A 
HETATM   24  C17 UNL     1      27.193   7.791  47.030  1.00  0.00     0.122 A 
HETATM   25  F1  UNL     1      27.642   8.584  46.026  1.00  0.00    -0.206 F 
HETATM   26  C18 UNL     1      28.106   6.978  47.665  1.00  0.00    -0.015 A 
HETATM   27  C21 UNL     1      27.578   6.186  48.690  1.00  0.00     0.039 A 
BRANCH  26  28
HETATM   28  C19 UNL     1      29.514   6.993  47.245  1.00  0.00     0.073 C 
BRANCH  28  29
HETATM   29  C20 UNL     1      30.376   6.113  48.145  1.00  0.00     0.227 C 
HETATM   30  F2  UNL     1      30.436   4.867  47.562  1.00  0.00    -0.255 F 
ENDBRANCH  28  29
ENDBRANCH  26  28
ENDBRANCH  19  21
ENDBRANCH  14  19
BRANCH   1  31
HETATM   31  N1  UNL     1      26.804   2.975  51.447  1.00  0.00     0.107 N 
HETATM   32  H1  UNL     1      27.456   2.440  50.828  1.00  0.00     0.316 HD
HETATM   33  H2  UNL     1      26.815   2.499  52.376  1.00  0.00     0.316 HD
ENDBRANCH   1  31
TORSDOF 5
ENDMDL
MODEL 9
REMARK VINA RESULT:      -8.2      3.920      8.110
REMARK  5 active torsions:
REMARK  status: ('A' for Active; 'I' for Inactive)
REMARK    1  A    between atoms: N1_1  and  C1_2 
REMARK    2  A    between atoms: C13_15  and  N3_16 
REMARK    3  A    between atoms: N3_16  and  C14_17 
REMARK    4  A    between atoms: C18_22  and  C19_23 
REMARK    5  A    between atoms: C19_23  and  C20_24 
ROOT
HETATM    1  C1  UNL     1      22.371  -0.043  53.292  1.00  0.00     0.368 C 
HETATM    2  N2  UNL     1      23.759   0.113  52.965  1.00  0.00    -0.355 N 
HETATM    3  C2  UNL     1      25.152   0.296  53.036  1.00  0.00     0.036 A 
HETATM    4  C3  UNL     1      26.081  -0.698  52.958  1.00  0.00     0.030 A 
HETATM    5  C4  UNL     1      27.418  -0.369  53.050  1.00  0.00     0.002 A 
HETATM    6  C5  UNL     1      27.675   0.964  53.212  1.00  0.00     0.001 A 
HETATM    7  C6  UNL     1      26.709   1.941  53.287  1.00  0.00     0.009 A 
HETATM    8  C7  UNL     1      25.340   1.648  53.199  1.00  0.00    -0.031 A 
HETATM    9  C8  UNL     1      24.517   2.855  53.327  1.00  0.00     0.047 C 
HETATM   10  C9  UNL     1      24.152   3.593  52.100  1.00  0.00     0.061 C 
HETATM   11  C10 UNL     1      23.288   2.929  51.132  1.00  0.00     0.006 C 
HETATM   12  C11 UNL     1      23.244   1.706  50.640  1.00  0.00     0.035 C 
HETATM   13  C12 UNL     1      21.967   1.330  51.243  1.00  0.00    -0.012 C 
HETATM   14  C13 UNL     1      21.528   0.643  52.286  1.00  0.00     0.070 C 
HETATM   15  C22 UNL     1      21.368   2.121  50.163  1.00  0.00     0.160 C 
HETATM   16  N4  UNL     1      22.143   3.375  50.345  1.00  0.00    -0.389 N 
HETATM   17  H4  UNL     1      23.795  -0.070  51.941  1.00  0.00     0.162 HD
HETATM   18  H24 UNL     1      21.953   4.373  50.012  1.00  0.00     0.159 HD
ENDROOT
BRANCH  14  19
HETATM   19  N3  UNL     1      20.152   0.538  52.529  1.00  0.00    -0.356 N 
HETATM   20  H14 UNL     1      20.119   0.845  53.537  1.00  0.00     0.166 HD
BRANCH  19  21
HETATM   21  C14 UNL     1      18.869   0.227  52.067  1.00  0.00     0.033 A 
HETATM   22  C15 UNL     1      18.106   0.864  51.115  1.00  0.00     0.032 A 
HETATM   23  C16 UNL     1      16.853   0.388  50.805  1.00  0.00     0.045 A 
HETATM   24  C17 UNL     1      16.406  -0.727  51.471  1.00  0.00     0.122 A 
HETATM   25  F1  UNL     1      15.167  -1.171  51.145  1.00  0.00    -0.206 F 
HETATM   26  C18 UNL     1      17.106  -1.420  52.433  1.00  0.00    -0.015 A 
HETATM   27  C21 UNL     1      18.376  -0.908  52.722  1.00  0.00     0.039 A 
BRANCH  26  28
HETATM   28  C19 UNL     1      16.504  -2.600  53.067  1.00  0.00     0.073 C 
BRANCH  28  29
HETATM   29  C20 UNL     1      17.561  -3.491  53.712  1.00  0.00     0.227 C 
HETATM   30  F2  UNL     1      17.531  -4.702  53.057  1.00  0.00    -0.255 F 
ENDBRANCH  28  29
ENDBRANCH  26  28
ENDBRANCH  19  21
ENDBRANCH  14  19
BRANCH   1  31
HETATM   31  N1  UNL     1      22.004  -1.379  53.627  1.00  0.00     0.107 N 
HETATM   32  H1  UNL     1      22.209  -1.666  54.612  1.00  0.00     0.316 HD
HETATM   33  H2  UNL     1      22.459  -2.085  53.008  1.00  0.00     0.316 HD
ENDBRANCH   1  31
TORSDOF 5
ENDMDL
