MODEL 1
REMARK VINA RESULT:      -8.5      0.000      0.000
REMARK  5 active torsions:
REMARK  status: ('A' for Active; 'I' for Inactive)
REMARK    1  A    between atoms: O1_2  and  C2_3 
REMARK    2  A    between atoms: C5_6  and  C6_7 
REMARK    3  A    between atoms: C6_7  and  O2_8 
REMARK    4  A    between atoms: O2_8  and  C7_9 
REMARK    5  A    between atoms: C16_22  and  O3_23 
ROOT
HETATM    1  C2  UNL     1      24.339   0.286  53.295  1.00  0.00     0.104 C 
HETATM    2  C3  UNL     1      24.734   0.956  52.178  1.00  0.00     0.060 C 
HETATM    3  C4  UNL     1      26.181   1.004  51.941  1.00  0.00     0.035 C 
HETATM    4  C5  UNL     1      26.762   2.164  51.787  1.00  0.00     0.077 C 
HETATM    5  N1  UNL     1      28.055   2.468  52.400  1.00  0.00    -0.243 NA
HETATM    6  C13 UNL     1      28.532   2.228  53.631  1.00  0.00     0.232 C 
HETATM    7  N2  UNL     1      28.557   1.089  54.559  1.00  0.00    -0.253 NA
HETATM    8  C14 UNL     1      27.585   0.305  55.007  1.00  0.00     0.139 C 
HETATM    9  C15 UNL     1      26.585  -0.259  54.112  1.00  0.00     0.059 C 
HETATM   10  C16 UNL     1      25.247  -0.345  54.310  1.00  0.00     0.117 C 
HETATM   11  S1  UNL     1      26.847  -0.754  52.248  1.00  0.00    -0.084 SA
ENDROOT
BRANCH   4  12
HETATM   12  C6  UNL     1      25.775   2.858  50.961  1.00  0.00     0.236 C 
BRANCH  12  13
HETATM   13  O2  UNL     1      26.640   3.006  49.758  1.00  0.00    -0.345 OA
BRANCH  13  14
HETATM   14  C7  UNL     1      26.710   4.286  49.234  1.00  0.00     0.072 A 
HETATM   15  C8  UNL     1      25.580   5.081  49.290  1.00  0.00     0.038 A 
HETATM   16  C9  UNL     1      25.562   6.376  48.789  1.00  0.00     0.025 A 
HETATM   17  C10 UNL     1      26.729   6.862  48.220  1.00  0.00     0.049 A 
HETATM   18 BR1  UNL     1      26.733   8.641  47.523  1.00  0.00    -0.048 Br
HETATM   19  C11 UNL     1      27.885   6.100  48.143  1.00  0.00     0.136 A 
HETATM   20  F1  UNL     1      29.037   6.557  47.590  1.00  0.00    -0.205 F 
HETATM   21  C12 UNL     1      27.851   4.812  48.658  1.00  0.00     0.080 A 
ENDBRANCH  13  14
ENDBRANCH  12  13
ENDBRANCH   4  12
BRANCH   1  22
HETATM   22  O1  UNL     1      23.020   0.180  53.517  1.00  0.00    -0.353 OA
HETATM   23  C1  UNL     1      22.371  -1.076  53.458  1.00  0.00     0.210 C 
ENDBRANCH   1  22
BRANCH  10  24
HETATM   24  O3  UNL     1      25.360  -1.026  55.457  1.00  0.00    -0.357 OA
HETATM   25  H12 UNL     1      25.172  -1.975  55.676  1.00  0.00     0.218 HD
ENDBRANCH  10  24
TORSDOF 5
ENDMDL
MODEL 2
REMARK VINA RESULT:      -7.4      4.928      8.334
REMARK  5 active torsions:
REMARK  status: ('A' for Active; 'I' for Inactive)
REMARK    1  A    between atoms: O1_2  and  C2_3 
REMARK    2  A    between atoms: C5_6  and  C6_7 
REMARK    3  A    between atoms: C6_7  and  O2_8 
REMARK    4  A    between atoms: O2_8  and  C7_9 
REMARK    5  A    between atoms: C16_22  and  O3_23 
ROOT
HETATM    1  C2  UNL     1      30.117   5.977  48.483  1.00  0.00     0.104 C 
HETATM    2  C3  UNL     1      28.879   5.441  48.306  1.00  0.00     0.060 C 
HETATM    3  C4  UNL     1      27.780   6.404  48.178  1.00  0.00     0.035 C 
HETATM    4  C5  UNL     1      26.754   6.309  48.981  1.00  0.00     0.077 C 
HETATM    5  N1  UNL     1      26.134   7.489  49.586  1.00  0.00    -0.243 NA
HETATM    6  C13 UNL     1      26.669   8.576  50.160  1.00  0.00     0.232 C 
HETATM    7  N2  UNL     1      27.750   9.521  49.849  1.00  0.00    -0.253 NA
HETATM    8  C14 UNL     1      29.022   9.320  49.527  1.00  0.00     0.139 C 
HETATM    9  C15 UNL     1      29.411   8.323  48.540  1.00  0.00     0.059 C 
HETATM   10  C16 UNL     1      30.435   7.438  48.613  1.00  0.00     0.117 C 
HETATM   11  S1  UNL     1      28.378   7.767  46.987  1.00  0.00    -0.084 SA
ENDROOT
BRANCH   4  12
HETATM   12  C6  UNL     1      26.570   4.860  49.020  1.00  0.00     0.236 C 
BRANCH  12  13
HETATM   13  O2  UNL     1      25.538   4.852  50.095  1.00  0.00    -0.345 OA
BRANCH  13  14
HETATM   14  C7  UNL     1      25.472   3.688  50.842  1.00  0.00     0.072 A 
HETATM   15  C8  UNL     1      26.508   2.779  50.735  1.00  0.00     0.038 A 
HETATM   16  C9  UNL     1      26.521   1.587  51.448  1.00  0.00     0.025 A 
HETATM   17  C10 UNL     1      25.449   1.327  52.287  1.00  0.00     0.049 A 
HETATM   18 BR1  UNL     1      25.442  -0.305  53.280  1.00  0.00    -0.048 Br
HETATM   19  C11 UNL     1      24.389   2.211  52.426  1.00  0.00     0.136 A 
HETATM   20  F1  UNL     1      23.331   1.975  53.242  1.00  0.00    -0.205 F 
HETATM   21  C12 UNL     1      24.424   3.388  51.691  1.00  0.00     0.080 A 
ENDBRANCH  13  14
ENDBRANCH  12  13
ENDBRANCH   4  12
BRANCH   1  22
HETATM   22  O1  UNL     1      31.153   5.126  48.555  1.00  0.00    -0.353 OA
HETATM   23  C1  UNL     1      31.859   4.739  47.391  1.00  0.00     0.210 C 
ENDBRANCH   1  22
BRANCH  10  24
HETATM   24  O3  UNL     1      31.368   8.381  48.795  1.00  0.00    -0.357 OA
HETATM   25  H12 UNL     1      32.261   8.343  49.224  1.00  0.00     0.218 HD
ENDBRANCH  10  24
TORSDOF 5
ENDMDL
MODEL 3
REMARK VINA RESULT:      -7.4      1.796      2.160
REMARK  5 active torsions:
REMARK  status: ('A' for Active; 'I' for Inactive)
REMARK    1  A    between atoms: O1_2  and  C2_3 
REMARK    2  A    between atoms: C5_6  and  C6_7 
REMARK    3  A    between atoms: C6_7  and  O2_8 
REMARK    4  A    between atoms: O2_8  and  C7_9 
REMARK    5  A    between atoms: C16_22  and  O3_23 
ROOT
HETATM    1  C2  UNL     1      24.240   0.124  53.462  1.00  0.00     0.104 C 
HETATM    2  C3  UNL     1      24.574   0.757  52.305  1.00  0.00     0.060 C 
HETATM    3  C4  UNL     1      26.009   0.831  52.009  1.00  0.00     0.035 C 
HETATM    4  C5  UNL     1      26.554   1.997  51.787  1.00  0.00     0.077 C 
HETATM    5  N1  UNL     1      27.862   2.357  52.336  1.00  0.00    -0.243 NA
HETATM    6  C13 UNL     1      28.391   2.180  53.556  1.00  0.00     0.232 C 
HETATM    7  N2  UNL     1      28.481   1.080  54.527  1.00  0.00    -0.253 NA
HETATM    8  C14 UNL     1      27.547   0.291  55.043  1.00  0.00     0.139 C 
HETATM    9  C15 UNL     1      26.529  -0.332  54.212  1.00  0.00     0.059 C 
HETATM   10  C16 UNL     1      25.202  -0.443  54.465  1.00  0.00     0.117 C 
HETATM   11  S1  UNL     1      26.732  -0.897  52.360  1.00  0.00    -0.084 SA
ENDROOT
BRANCH   4  12
HETATM   12  C6  UNL     1      25.519   2.632  50.974  1.00  0.00     0.236 C 
BRANCH  12  13
HETATM   13  O2  UNL     1      26.278   3.881  50.684  1.00  0.00    -0.345 OA
BRANCH  13  14
HETATM   14  C7  UNL     1      25.567   4.863  50.015  1.00  0.00     0.072 A 
HETATM   15  C8  UNL     1      26.192   5.542  48.986  1.00  0.00     0.038 A 
HETATM   16  C9  UNL     1      25.553   6.540  48.263  1.00  0.00     0.025 A 
HETATM   17  C10 UNL     1      24.245   6.846  48.606  1.00  0.00     0.049 A 
HETATM   18 BR1  UNL     1      23.340   8.215  47.628  1.00  0.00    -0.048 Br
HETATM   19  C11 UNL     1      23.578   6.191  49.631  1.00  0.00     0.136 A 
HETATM   20  F1  UNL     1      22.299   6.475  49.981  1.00  0.00    -0.205 F 
HETATM   21  C12 UNL     1      24.262   5.201  50.322  1.00  0.00     0.080 A 
ENDBRANCH  13  14
ENDBRANCH  12  13
ENDBRANCH   4  12
BRANCH   1  22
HETATM   22  O1  UNL     1      22.933  -0.005  53.740  1.00  0.00    -0.353 OA
HETATM   23  C1  UNL     1      22.066  -0.693  52.858  1.00  0.00     0.210 C 
ENDBRANCH   1  22
BRANCH  10  24
HETATM   24  O3  UNL     1      25.376  -1.074  55.634  1.00  0.00    -0.357 OA
HETATM   25  H12 UNL     1      26.200  -1.326  56.124  1.00  0.00     0.218 HD
ENDBRANCH  10  24
TORSDOF 5
ENDMDL
MODEL 4
REMARK VINA RESULT:      -7.3      4.968      6.641
REMARK  5 active torsions:
REMARK  status: ('A' for Active; 'I' for Inactive)
REMARK    1  A    between atoms: O1_2  and  C2_3 
REMARK    2  A    between atoms: C5_6  and  C6_7 
REMARK    3  A    between atoms: C6_7  and  O2_8 
REMARK    4  A    between atoms: O2_8  and  C7_9 
REMARK    5  A    between atoms: C16_22  and  O3_23 
ROOT
HETATM    1  C2  UNL     1      20.489   0.170  53.006  1.00  0.00     0.104 C 
HETATM    2  C3  UNL     1      21.532   0.993  53.301  1.00  0.00     0.060 C 
HETATM    3  C4  UNL     1      21.737   2.118  52.381  1.00  0.00     0.035 C 
HETATM    4  C5  UNL     1      22.905   2.272  51.816  1.00  0.00     0.077 C 
HETATM    5  N1  UNL     1      23.039   2.643  50.407  1.00  0.00    -0.243 NA
HETATM    6  C13 UNL     1      22.403   2.205  49.311  1.00  0.00     0.232 C 
HETATM    7  N2  UNL     1      21.012   1.931  48.925  1.00  0.00    -0.253 NA
HETATM    8  C14 UNL     1      20.069   1.203  49.510  1.00  0.00     0.139 C 
HETATM    9  C15 UNL     1      19.809   1.297  50.939  1.00  0.00     0.059 C 
HETATM   10  C16 UNL     1      19.588   0.284  51.812  1.00  0.00     0.117 C 
HETATM   11  S1  UNL     1      20.022   2.879  52.052  1.00  0.00    -0.084 SA
ENDROOT
BRANCH   4  12
HETATM   12  C6  UNL     1      23.794   1.958  52.933  1.00  0.00     0.236 C 
BRANCH  12  13
HETATM   13  O2  UNL     1      25.061   2.344  52.251  1.00  0.00    -0.345 OA
BRANCH  13  14
HETATM   14  C7  UNL     1      26.172   1.595  52.602  1.00  0.00     0.072 A 
HETATM   15  C8  UNL     1      26.188   0.251  52.277  1.00  0.00     0.038 A 
HETATM   16  C9  UNL     1      27.261  -0.571  52.591  1.00  0.00     0.025 A 
HETATM   17  C10 UNL     1      28.338  -0.001  53.251  1.00  0.00     0.049 A 
HETATM   18 BR1  UNL     1      29.829  -1.110  53.695  1.00  0.00    -0.048 Br
HETATM   19  C11 UNL     1      28.365   1.342  53.596  1.00  0.00     0.136 A 
HETATM   20  F1  UNL     1      29.409   1.919  54.242  1.00  0.00    -0.205 F 
HETATM   21  C12 UNL     1      27.267   2.121  53.260  1.00  0.00     0.080 A 
ENDBRANCH  13  14
ENDBRANCH  12  13
ENDBRANCH   4  12
BRANCH   1  22
HETATM   22  O1  UNL     1      20.242  -0.841  53.854  1.00  0.00    -0.353 OA
HETATM   23  C1  UNL     1      21.301  -1.596  54.413  1.00  0.00     0.210 C 
ENDBRANCH   1  22
BRANCH  10  24
HETATM   24  O3  UNL     1      18.550  -0.213  51.126  1.00  0.00    -0.357 OA
HETATM   25  H12 UNL     1      17.670  -0.555  51.429  1.00  0.00     0.218 HD
ENDBRANCH  10  24
TORSDOF 5
ENDMDL
MODEL 5
REMARK VINA RESULT:      -7.2      2.286      3.413
REMARK  5 active torsions:
REMARK  status: ('A' for Active; 'I' for Inactive)
REMARK    1  A    between atoms: O1_2  and  C2_3 
REMARK    2  A    between atoms: C5_6  and  C6_7 
REMARK    3  A    between atoms: C6_7  and  O2_8 
REMARK    4  A    between atoms: O2_8  and  C7_9 
REMARK    5  A    between atoms: C16_22  and  O3_23 
ROOT
HETATM    1  C2  UNL     1      27.172   0.276  52.749  1.00  0.00     0.104 C 
HETATM    2  C3  UNL     1      27.145   1.422  52.017  1.00  0.00     0.060 C 
HETATM    3  C4  UNL     1      25.894   2.187  52.074  1.00  0.00     0.035 C 
HETATM    4  C5  UNL     1      25.282   2.489  50.961  1.00  0.00     0.077 C 
HETATM    5  N1  UNL     1      23.827   2.396  50.828  1.00  0.00    -0.243 NA
HETATM    6  C13 UNL     1      22.960   1.452  51.220  1.00  0.00     0.232 C 
HETATM    7  N2  UNL     1      22.724   0.663  52.437  1.00  0.00    -0.253 NA
HETATM    8  C14 UNL     1      23.544  -0.079  53.171  1.00  0.00     0.139 C 
HETATM    9  C15 UNL     1      24.862   0.399  53.561  1.00  0.00     0.059 C 
HETATM   10  C16 UNL     1      26.031  -0.286  53.547  1.00  0.00     0.117 C 
HETATM   11  S1  UNL     1      25.369   2.246  53.905  1.00  0.00    -0.084 SA
ENDROOT
BRANCH   4  12
HETATM   12  C6  UNL     1      26.417   2.843  50.110  1.00  0.00     0.236 C 
BRANCH  12  13
HETATM   13  O2  UNL     1      25.718   3.903  49.332  1.00  0.00    -0.345 OA
BRANCH  13  14
HETATM   14  C7  UNL     1      26.502   4.985  48.971  1.00  0.00     0.072 A 
HETATM   15  C8  UNL     1      27.809   4.750  48.584  1.00  0.00     0.038 A 
HETATM   16  C9  UNL     1      28.663   5.778  48.207  1.00  0.00     0.025 A 
HETATM   17  C10 UNL     1      28.164   7.071  48.229  1.00  0.00     0.049 A 
HETATM   18 BR1  UNL     1      29.319   8.504  47.715  1.00  0.00    -0.048 Br
HETATM   19  C11 UNL     1      26.861   7.353  48.610  1.00  0.00     0.136 A 
HETATM   20  F1  UNL     1      26.354   8.611  48.638  1.00  0.00    -0.205 F 
HETATM   21  C12 UNL     1      26.047   6.291  48.978  1.00  0.00     0.080 A 
ENDBRANCH  13  14
ENDBRANCH  12  13
ENDBRANCH   4  12
BRANCH   1  22
HETATM   22  O1  UNL     1      28.317  -0.424  52.759  1.00  0.00    -0.353 OA
HETATM   23  C1  UNL     1      29.108  -0.508  53.929  1.00  0.00     0.210 C 
ENDBRANCH   1  22
BRANCH  10  24
HETATM   24  O3  UNL     1      25.580  -1.269  54.338  1.00  0.00    -0.357 OA
HETATM   25  H12 UNL     1      24.973  -2.030  54.153  1.00  0.00     0.218 HD
ENDBRANCH  10  24
TORSDOF 5
ENDMDL
MODEL 6
REMARK VINA RESULT:      -7.1      4.084      7.184
REMARK  5 active torsions:
REMARK  status: ('A' for Active; 'I' for Inactive)
REMARK    1  A    between atoms: O1_2  and  C2_3 
REMARK    2  A    between atoms: C5_6  and  C6_7 
REMARK    3  A    between atoms: C6_7  and  O2_8 
REMARK    4  A    between atoms: O2_8  and  C7_9 
REMARK    5  A    between atoms: C16_22  and  O3_23 
ROOT
HETATM    1  C2  UNL     1      26.533   4.725  49.258  1.00  0.00     0.104 C 
HETATM    2  C3  UNL     1      25.697   3.657  49.372  1.00  0.00     0.060 C 
HETATM    3  C4  UNL     1      24.286   3.974  49.620  1.00  0.00     0.035 C 
HETATM    4  C5  UNL     1      23.689   3.449  50.657  1.00  0.00     0.077 C 
HETATM    5  N1  UNL     1      22.778   4.225  51.500  1.00  0.00    -0.243 NA
HETATM    6  C13 UNL     1      22.872   5.466  51.999  1.00  0.00     0.232 C 
HETATM    7  N2  UNL     1      23.251   6.792  51.491  1.00  0.00    -0.253 NA
HETATM    8  C14 UNL     1      24.325   7.200  50.827  1.00  0.00     0.139 C 
HETATM    9  C15 UNL     1      24.852   6.454  49.695  1.00  0.00     0.059 C 
HETATM   10  C16 UNL     1      26.147   6.166  49.419  1.00  0.00     0.117 C 
HETATM   11  S1  UNL     1      23.824   5.389  48.431  1.00  0.00    -0.084 SA
ENDROOT
BRANCH   4  12
HETATM   12  C6  UNL     1      24.227   2.090  50.624  1.00  0.00     0.236 C 
BRANCH  12  13
HETATM   13  O2  UNL     1      24.440   1.960  52.092  1.00  0.00    -0.345 OA
BRANCH  13  14
HETATM   14  C7  UNL     1      25.683   1.477  52.468  1.00  0.00     0.072 A 
HETATM   15  C8  UNL     1      25.896   0.111  52.428  1.00  0.00     0.038 A 
HETATM   16  C9  UNL     1      27.110  -0.457  52.788  1.00  0.00     0.025 A 
HETATM   17  C10 UNL     1      28.124   0.396  53.196  1.00  0.00     0.049 A 
HETATM   18 BR1  UNL     1      29.807  -0.360  53.696  1.00  0.00    -0.048 Br
HETATM   19  C11 UNL     1      27.955   1.771  53.250  1.00  0.00     0.136 A 
HETATM   20  F1  UNL     1      28.935   2.621  53.646  1.00  0.00    -0.205 F 
HETATM   21  C12 UNL     1      26.722   2.289  52.880  1.00  0.00     0.080 A 
ENDBRANCH  13  14
ENDBRANCH  12  13
ENDBRANCH   4  12
BRANCH   1  22
HETATM   22  O1  UNL     1      27.822   4.472  48.982  1.00  0.00    -0.353 OA
HETATM   23  C1  UNL     1      28.608   5.404  48.263  1.00  0.00     0.210 C 
ENDBRANCH   1  22
BRANCH  10  24
HETATM   24  O3  UNL     1      26.537   7.447  49.424  1.00  0.00    -0.357 OA
HETATM   25  H12 UNL     1      26.293   8.207  48.836  1.00  0.00     0.218 HD
ENDBRANCH  10  24
TORSDOF 5
ENDMDL
MODEL 7
REMARK VINA RESULT:      -7.0      5.023      7.202
REMARK  5 active torsions:
REMARK  status: ('A' for Active; 'I' for Inactive)
REMARK    1  A    between atoms: O1_2  and  C2_3 
REMARK    2  A    between atoms: C5_6  and  C6_7 
REMARK    3  A    between atoms: C6_7  and  O2_8 
REMARK    4  A    between atoms: O2_8  and  C7_9 
REMARK    5  A    between atoms: C16_22  and  O3_23 
ROOT
HETATM    1  C2  UNL     1      20.360   3.593  51.860  1.00  0.00     0.104 C 
HETATM    2  C3  UNL     1      21.390   2.876  52.387  1.00  0.00     0.060 C 
HETATM    3  C4  UNL     1      22.735   3.290  51.969  1.00  0.00     0.035 C 
HETATM    4  C5  UNL     1      23.535   2.406  51.436  1.00  0.00     0.077 C 
HETATM    5  N1  UNL     1      24.374   2.720  50.279  1.00  0.00    -0.243 NA
HETATM    6  C13 UNL     1      24.105   3.378  49.141  1.00  0.00     0.232 C 
HETATM    7  N2  UNL     1      23.426   4.627  48.769  1.00  0.00    -0.253 NA
HETATM    8  C14 UNL     1      22.225   5.097  49.081  1.00  0.00     0.139 C 
HETATM    9  C15 UNL     1      21.723   5.060  50.446  1.00  0.00     0.059 C 
HETATM   10  C16 UNL     1      20.482   4.710  50.866  1.00  0.00     0.117 C 
HETATM   11  S1  UNL     1      22.782   5.192  52.074  1.00  0.00    -0.084 SA
ENDROOT
BRANCH   4  12
HETATM   12  C6  UNL     1      23.264   1.245  52.282  1.00  0.00     0.236 C 
BRANCH  12  13
HETATM   13  O2  UNL     1      24.227   1.599  53.363  1.00  0.00    -0.345 OA
BRANCH  13  14
HETATM   14  C7  UNL     1      25.416   0.889  53.349  1.00  0.00     0.072 A 
HETATM   15  C8  UNL     1      26.534   1.470  53.919  1.00  0.00     0.038 A 
HETATM   16  C9  UNL     1      27.765   0.828  53.949  1.00  0.00     0.025 A 
HETATM   17  C10 UNL     1      27.847  -0.434  53.382  1.00  0.00     0.049 A 
HETATM   18 BR1  UNL     1      29.530  -1.340  53.409  1.00  0.00    -0.048 Br
HETATM   19  C11 UNL     1      26.753  -1.054  52.800  1.00  0.00     0.136 A 
HETATM   20  F1  UNL     1      26.813  -2.288  52.240  1.00  0.00    -0.205 F 
HETATM   21  C12 UNL     1      25.545  -0.371  52.796  1.00  0.00     0.080 A 
ENDBRANCH  13  14
ENDBRANCH  12  13
ENDBRANCH   4  12
BRANCH   1  22
HETATM   22  O1  UNL     1      19.119   3.272  52.259  1.00  0.00    -0.353 OA
HETATM   23  C1  UNL     1      18.154   2.811  51.333  1.00  0.00     0.210 C 
ENDBRANCH   1  22
BRANCH  10  24
HETATM   24  O3  UNL     1      19.860   5.622  50.108  1.00  0.00    -0.357 OA
HETATM   25  H12 UNL     1      19.012   6.117  50.244  1.00  0.00     0.218 HD
ENDBRANCH  10  24
TORSDOF 5
ENDMDL
MODEL 8
REMARK VINA RESULT:      -7.0      4.800      6.654
REMARK  5 active torsions:
REMARK  status: ('A' for Active; 'I' for Inactive)
REMARK    1  A    between atoms: O1_2  and  C2_3 
REMARK    2  A    between atoms: C5_6  and  C6_7 
REMARK    3  A    between atoms: C6_7  and  O2_8 
REMARK    4  A    between atoms: O2_8  and  C7_9 
REMARK    5  A    between atoms: C16_22  and  O3_23 
ROOT
HETATM    1  C2  UNL     1      20.352   2.968  51.783  1.00  0.00     0.104 C 
HETATM    2  C3  UNL     1      21.706   2.839  51.837  1.00  0.00     0.060 C 
HETATM    3  C4  UNL     1      22.211   1.468  51.976  1.00  0.00     0.035 C 
HETATM    4  C5  UNL     1      23.014   1.183  52.966  1.00  0.00     0.077 C 
HETATM    5  N1  UNL     1      22.887  -0.056  53.733  1.00  0.00    -0.243 NA
HETATM    6  C13 UNL     1      21.812  -0.683  54.232  1.00  0.00     0.232 C 
HETATM    7  N2  UNL     1      20.474  -1.051  53.748  1.00  0.00    -0.253 NA
HETATM    8  C14 UNL     1      19.525  -0.328  53.167  1.00  0.00     0.139 C 
HETATM    9  C15 UNL     1      19.824   0.593  52.081  1.00  0.00     0.059 C 
HETATM   10  C16 UNL     1      19.356   1.853  51.907  1.00  0.00     0.117 C 
HETATM   11  S1  UNL     1      21.228   0.394  50.748  1.00  0.00    -0.084 SA
ENDROOT
BRANCH   4  12
HETATM   12  C6  UNL     1      23.864   2.372  52.980  1.00  0.00     0.236 C 
BRANCH  12  13
HETATM   13  O2  UNL     1      24.800   1.921  51.912  1.00  0.00    -0.345 OA
BRANCH  13  14
HETATM   14  C7  UNL     1      25.990   1.374  52.362  1.00  0.00     0.072 A 
HETATM   15  C8  UNL     1      26.187   0.014  52.209  1.00  0.00     0.038 A 
HETATM   16  C9  UNL     1      27.351  -0.615  52.632  1.00  0.00     0.025 A 
HETATM   17  C10 UNL     1      28.329   0.169  53.223  1.00  0.00     0.049 A 
HETATM   18 BR1  UNL     1      29.940  -0.671  53.813  1.00  0.00    -0.048 Br
HETATM   19  C11 UNL     1      28.174   1.536  53.396  1.00  0.00     0.136 A 
HETATM   20  F1  UNL     1      29.119   2.321  53.971  1.00  0.00    -0.205 F 
HETATM   21  C12 UNL     1      26.993   2.117  52.956  1.00  0.00     0.080 A 
ENDBRANCH  13  14
ENDBRANCH  12  13
ENDBRANCH   4  12
BRANCH   1  22
HETATM   22  O1  UNL     1      19.857   4.204  51.608  1.00  0.00    -0.353 OA
HETATM   23  C1  UNL     1      19.208   4.563  50.403  1.00  0.00     0.210 C 
ENDBRANCH   1  22
BRANCH  10  24
HETATM   24  O3  UNL     1      18.068   1.485  51.936  1.00  0.00    -0.357 OA
HETATM   25  H12 UNL     1      17.574   0.881  52.547  1.00  0.00     0.218 HD
ENDBRANCH  10  24
TORSDOF 5
ENDMDL
MODEL 9
REMARK VINA RESULT:      -7.0      4.716      7.644
REMARK  5 active torsions:
REMARK  status: ('A' for Active; 'I' for Inactive)
REMARK    1  A    between atoms: O1_2  and  C2_3 
REMARK    2  A    between atoms: C5_6  and  C6_7 
REMARK    3  A    between atoms: C6_7  and  O2_8 
REMARK    4  A    between atoms: O2_8  and  C7_9 
REMARK    5  A    between atoms: C16_22  and  O3_23 
ROOT
HETATM    1  C2  UNL     1      24.591   5.254  50.020  1.00  0.00     0.104 C 
HETATM    2  C3  UNL     1      24.711   4.229  50.906  1.00  0.00     0.060 C 
HETATM    3  C4  UNL     1      23.565   3.317  50.986  1.00  0.00     0.035 C 
HETATM    4  C5  UNL     1      23.001   3.104  52.145  1.00  0.00     0.077 C 
HETATM    5  N1  UNL     1      21.547   3.036  52.297  1.00  0.00    -0.243 NA
HETATM    6  C13 UNL     1      20.567   3.802  51.797  1.00  0.00     0.232 C 
HETATM    7  N2  UNL     1      20.228   4.376  50.487  1.00  0.00    -0.253 NA
HETATM    8  C14 UNL     1      20.945   5.100  49.637  1.00  0.00     0.139 C 
HETATM    9  C15 UNL     1      22.310   4.736  49.288  1.00  0.00     0.059 C 
HETATM   10  C16 UNL     1      23.385   5.554  49.178  1.00  0.00     0.117 C 
HETATM   11  S1  UNL     1      23.040   2.935  49.194  1.00  0.00    -0.084 SA
ENDROOT
BRANCH   4  12
HETATM   12  C6  UNL     1      24.177   3.016  53.010  1.00  0.00     0.236 C 
BRANCH  12  13
HETATM   13  O2  UNL     1      24.121   1.541  53.216  1.00  0.00    -0.345 OA
BRANCH  13  14
HETATM   14  C7  UNL     1      25.350   0.906  53.268  1.00  0.00     0.072 A 
HETATM   15  C8  UNL     1      26.403   1.561  53.880  1.00  0.00     0.038 A 
HETATM   16  C9  UNL     1      27.668   0.996  53.976  1.00  0.00     0.025 A 
HETATM   17  C10 UNL     1      27.852  -0.266  53.433  1.00  0.00     0.049 A 
HETATM   18 BR1  UNL     1      29.583  -1.068  53.552  1.00  0.00    -0.048 Br
HETATM   19  C11 UNL     1      26.825  -0.960  52.811  1.00  0.00     0.136 A 
HETATM   20  F1  UNL     1      26.985  -2.195  52.274  1.00  0.00    -0.205 F 
HETATM   21  C12 UNL     1      25.580  -0.351  52.741  1.00  0.00     0.080 A 
ENDBRANCH  13  14
ENDBRANCH  12  13
ENDBRANCH   4  12
BRANCH   1  22
HETATM   22  O1  UNL     1      25.641   6.080  49.886  1.00  0.00    -0.353 OA
HETATM   23  C1  UNL     1      25.560   7.432  50.297  1.00  0.00     0.210 C 
ENDBRANCH   1  22
BRANCH  10  24
HETATM   24  O3  UNL     1      22.811   6.352  48.268  1.00  0.00    -0.357 OA
HETATM   25  H12 UNL     1      22.035   6.965  48.333  1.00  0.00     0.218 HD
ENDBRANCH  10  24
TORSDOF 5
ENDMDL
