MODEL 1
REMARK VINA RESULT:      -6.0      0.000      0.000
REMARK  8 active torsions:
REMARK  status: ('A' for Active; 'I' for Inactive)
REMARK    1  A    between atoms: C2_2  and  C3_3 
REMARK    2  A    between atoms: C3_3  and  C4_4 
REMARK    3  A    between atoms: C4_4  and  N1_5 
REMARK    4  A    between atoms: N1_5  and  C5_6 
REMARK    5  A    between atoms: N1_5  and  C9_12 
REMARK    6  A    between atoms: C5_6  and  N2_8 
REMARK    7  A    between atoms: N2_8  and  C6_9 
REMARK    8  A    between atoms: C14_19  and  O1_20 
ROOT
HETATM    1  N1  UNL     1      24.749   3.061  50.870  1.00  0.00    -0.322 N 
ENDROOT
BRANCH   1   2
HETATM    2  C4  UNL     1      24.988   3.513  49.544  1.00  0.00     0.131 C 
BRANCH   2   3
HETATM    3  C3  UNL     1      25.750   4.821  49.464  1.00  0.00     0.020 C 
BRANCH   3   4
HETATM    4  C2  UNL     1      27.135   4.407  48.941  1.00  0.00    -0.003 C 
HETATM    5  C1  UNL     1      27.892   5.605  48.425  1.00  0.00     0.005 C 
ENDBRANCH   3   4
ENDBRANCH   2   3
ENDBRANCH   1   2
BRANCH   1   6
HETATM    6  C5  UNL     1      23.624   3.834  51.335  1.00  0.00     0.175 C 
HETATM    7  S1  UNL     1      23.601   4.928  52.510  1.00  0.00    -0.041 SA
BRANCH   6   8
HETATM    8  N2  UNL     1      22.279   3.828  50.886  1.00  0.00    -0.356 N 
HETATM    9  H10 UNL     1      21.980   4.649  50.305  1.00  0.00     0.162 HD
BRANCH   8  10
HETATM   10  C6  UNL     1      21.084   3.025  50.955  1.00  0.00     0.129 A 
HETATM   11  C7  UNL     1      20.669   2.590  52.306  1.00  0.00     0.000 A 
HETATM   12  C8  UNL     1      19.923   3.563  51.734  1.00  0.00     0.000 A 
ENDBRANCH   8  10
ENDBRANCH   6   8
ENDBRANCH   1   6
BRANCH   1  13
HETATM   13  C9  UNL     1      25.199   2.166  51.846  1.00  0.00     0.072 A 
HETATM   14  C10 UNL     1      24.188   1.324  52.325  1.00  0.00     0.052 A 
HETATM   15  C11 UNL     1      24.408   0.355  53.303  1.00  0.00     0.014 A 
HETATM   16 BR1  UNL     1      23.026  -0.774  53.937  1.00  0.00    -0.051 Br
HETATM   17  C12 UNL     1      25.715   0.295  53.764  1.00  0.00     0.041 A 
HETATM   18  C13 UNL     1      26.752   1.084  53.341  1.00  0.00     0.047 A 
HETATM   19 BR2  UNL     1      28.515   0.930  54.029  1.00  0.00    -0.048 Br
HETATM   20  C14 UNL     1      26.455   2.012  52.378  1.00  0.00     0.110 A 
BRANCH  20  21
HETATM   21  O1  UNL     1      27.411   2.853  51.882  1.00  0.00    -0.357 OA
HETATM   22  H16 UNL     1      28.386   2.602  51.888  1.00  0.00     0.217 HD
ENDBRANCH  20  21
ENDBRANCH   1  13
TORSDOF 8
ENDMDL
MODEL 2
REMARK VINA RESULT:      -6.0      1.512      3.992
REMARK  8 active torsions:
REMARK  status: ('A' for Active; 'I' for Inactive)
REMARK    1  A    between atoms: C2_2  and  C3_3 
REMARK    2  A    between atoms: C3_3  and  C4_4 
REMARK    3  A    between atoms: C4_4  and  N1_5 
REMARK    4  A    between atoms: N1_5  and  C5_6 
REMARK    5  A    between atoms: N1_5  and  C9_12 
REMARK    6  A    between atoms: C5_6  and  N2_8 
REMARK    7  A    between atoms: N2_8  and  C6_9 
REMARK    8  A    between atoms: C14_19  and  O1_20 
ROOT
HETATM    1  N1  UNL     1      24.453   3.167  50.342  1.00  0.00    -0.322 N 
ENDROOT
BRANCH   1   2
HETATM    2  C4  UNL     1      23.816   3.110  49.074  1.00  0.00     0.131 C 
BRANCH   2   3
HETATM    3  C3  UNL     1      22.304   3.020  49.145  1.00  0.00     0.020 C 
BRANCH   3   4
HETATM    4  C2  UNL     1      21.997   1.606  48.627  1.00  0.00    -0.003 C 
HETATM    5  C1  UNL     1      21.206   0.824  49.647  1.00  0.00     0.005 C 
ENDBRANCH   3   4
ENDBRANCH   2   3
ENDBRANCH   1   2
BRANCH   1   6
HETATM    6  C5  UNL     1      24.545   4.571  50.657  1.00  0.00     0.175 C 
HETATM    7  S1  UNL     1      23.659   5.403  51.707  1.00  0.00    -0.041 SA
BRANCH   6   8
HETATM    8  N2  UNL     1      25.419   5.557  50.133  1.00  0.00    -0.356 N 
HETATM    9  H10 UNL     1      25.894   6.177  50.835  1.00  0.00     0.162 HD
BRANCH   8  10
HETATM   10  C6  UNL     1      25.924   6.046  48.874  1.00  0.00     0.129 A 
HETATM   11  C7  UNL     1      27.038   7.015  48.953  1.00  0.00     0.000 A 
HETATM   12  C8  UNL     1      27.358   5.766  48.540  1.00  0.00     0.000 A 
ENDBRANCH   8  10
ENDBRANCH   6   8
ENDBRANCH   1   6
BRANCH   1  13
HETATM   13  C9  UNL     1      25.000   2.375  51.357  1.00  0.00     0.072 A 
HETATM   14  C10 UNL     1      24.064   1.519  51.950  1.00  0.00     0.052 A 
HETATM   15  C11 UNL     1      24.387   0.642  52.985  1.00  0.00     0.014 A 
HETATM   16 BR1  UNL     1      23.104  -0.507  53.773  1.00  0.00    -0.051 Br
HETATM   17  C12 UNL     1      25.716   0.688  53.380  1.00  0.00     0.041 A 
HETATM   18  C13 UNL     1      26.683   1.498  52.846  1.00  0.00     0.047 A 
HETATM   19 BR2  UNL     1      28.483   1.493  53.449  1.00  0.00    -0.048 Br
HETATM   20  C14 UNL     1      26.288   2.331  51.833  1.00  0.00     0.110 A 
BRANCH  20  21
HETATM   21  O1  UNL     1      27.168   3.181  51.226  1.00  0.00    -0.357 OA
HETATM   22  H16 UNL     1      28.143   3.196  51.478  1.00  0.00     0.217 HD
ENDBRANCH  20  21
ENDBRANCH   1  13
TORSDOF 8
ENDMDL
MODEL 3
REMARK VINA RESULT:      -5.9      2.539      4.854
REMARK  8 active torsions:
REMARK  status: ('A' for Active; 'I' for Inactive)
REMARK    1  A    between atoms: C2_2  and  C3_3 
REMARK    2  A    between atoms: C3_3  and  C4_4 
REMARK    3  A    between atoms: C4_4  and  N1_5 
REMARK    4  A    between atoms: N1_5  and  C5_6 
REMARK    5  A    between atoms: N1_5  and  C9_12 
REMARK    6  A    between atoms: C5_6  and  N2_8 
REMARK    7  A    between atoms: N2_8  and  C6_9 
REMARK    8  A    between atoms: C14_19  and  O1_20 
ROOT
HETATM    1  N1  UNL     1      24.990   1.855  51.836  1.00  0.00    -0.322 N 
ENDROOT
BRANCH   1   2
HETATM    2  C4  UNL     1      26.394   1.641  51.814  1.00  0.00     0.131 C 
BRANCH   2   3
HETATM    3  C3  UNL     1      27.081   1.910  53.139  1.00  0.00     0.020 C 
BRANCH   3   4
HETATM    4  C2  UNL     1      28.124   0.786  53.246  1.00  0.00    -0.003 C 
HETATM    5  C1  UNL     1      27.511  -0.547  52.892  1.00  0.00     0.005 C 
ENDBRANCH   3   4
ENDBRANCH   2   3
ENDBRANCH   1   2
BRANCH   1   6
HETATM    6  C5  UNL     1      24.824   3.283  51.724  1.00  0.00     0.175 C 
HETATM    7  S1  UNL     1      23.864   4.231  52.594  1.00  0.00    -0.041 SA
BRANCH   6   8
HETATM    8  N2  UNL     1      25.449   4.197  50.838  1.00  0.00    -0.356 N 
HETATM    9  H10 UNL     1      25.903   5.034  51.280  1.00  0.00     0.162 HD
BRANCH   8  10
HETATM   10  C6  UNL     1      25.698   4.394  49.432  1.00  0.00     0.129 A 
HETATM   11  C7  UNL     1      26.382   5.653  49.064  1.00  0.00     0.000 A 
HETATM   12  C8  UNL     1      27.123   4.523  48.987  1.00  0.00     0.000 A 
ENDBRANCH   8  10
ENDBRANCH   6   8
ENDBRANCH   1   6
BRANCH   1  13
HETATM   13  C9  UNL     1      23.759   1.197  51.921  1.00  0.00     0.072 A 
HETATM   14  C10 UNL     1      22.902   1.496  50.854  1.00  0.00     0.052 A 
HETATM   15  C11 UNL     1      21.622   0.956  50.734  1.00  0.00     0.014 A 
HETATM   16 BR1  UNL     1      20.480   1.375  49.282  1.00  0.00    -0.051 Br
HETATM   17  C12 UNL     1      21.267   0.096  51.762  1.00  0.00     0.041 A 
HETATM   18  C13 UNL     1      22.051  -0.242  52.833  1.00  0.00     0.047 A 
HETATM   19 BR2  UNL     1      21.481  -1.433  54.197  1.00  0.00    -0.048 Br
HETATM   20  C14 UNL     1      23.296   0.330  52.879  1.00  0.00     0.110 A 
BRANCH  20  21
HETATM   21  O1  UNL     1      24.162   0.065  53.902  1.00  0.00    -0.357 OA
HETATM   22  H16 UNL     1      24.799  -0.713  53.862  1.00  0.00     0.217 HD
ENDBRANCH  20  21
ENDBRANCH   1  13
TORSDOF 8
ENDMDL
MODEL 4
REMARK VINA RESULT:      -5.9      2.309      4.436
REMARK  8 active torsions:
REMARK  status: ('A' for Active; 'I' for Inactive)
REMARK    1  A    between atoms: C2_2  and  C3_3 
REMARK    2  A    between atoms: C3_3  and  C4_4 
REMARK    3  A    between atoms: C4_4  and  N1_5 
REMARK    4  A    between atoms: N1_5  and  C5_6 
REMARK    5  A    between atoms: N1_5  and  C9_12 
REMARK    6  A    between atoms: C5_6  and  N2_8 
REMARK    7  A    between atoms: N2_8  and  C6_9 
REMARK    8  A    between atoms: C14_19  and  O1_20 
ROOT
HETATM    1  N1  UNL     1      22.525   2.428  50.860  1.00  0.00    -0.322 N 
ENDROOT
BRANCH   1   2
HETATM    2  C4  UNL     1      21.619   2.613  49.783  1.00  0.00     0.131 C 
BRANCH   2   3
HETATM    3  C3  UNL     1      21.648   1.501  48.752  1.00  0.00     0.020 C 
BRANCH   3   4
HETATM    4  C2  UNL     1      22.543   2.060  47.635  1.00  0.00    -0.003 C 
HETATM    5  C1  UNL     1      22.094   3.444  47.233  1.00  0.00     0.005 C 
ENDBRANCH   3   4
ENDBRANCH   2   3
ENDBRANCH   1   2
BRANCH   1   6
HETATM    6  C5  UNL     1      23.170   3.706  51.036  1.00  0.00     0.175 C 
HETATM    7  S1  UNL     1      22.902   4.791  52.188  1.00  0.00    -0.041 SA
BRANCH   6   8
HETATM    8  N2  UNL     1      24.183   4.319  50.256  1.00  0.00    -0.356 N 
HETATM    9  H10 UNL     1      23.879   4.723  49.336  1.00  0.00     0.162 HD
BRANCH   8  10
HETATM   10  C6  UNL     1      25.596   4.603  50.287  1.00  0.00     0.129 A 
HETATM   11  C7  UNL     1      26.468   3.642  49.578  1.00  0.00     0.000 A 
HETATM   12  C8  UNL     1      26.289   4.843  48.980  1.00  0.00     0.000 A 
ENDBRANCH   8  10
ENDBRANCH   6   8
ENDBRANCH   1   6
BRANCH   1  13
HETATM   13  C9  UNL     1      22.994   1.483  51.779  1.00  0.00     0.072 A 
HETATM   14  C10 UNL     1      24.386   1.341  51.757  1.00  0.00     0.052 A 
HETATM   15  C11 UNL     1      25.072   0.454  52.586  1.00  0.00     0.014 A 
HETATM   16 BR1  UNL     1      26.957   0.278  52.539  1.00  0.00    -0.051 Br
HETATM   17  C12 UNL     1      24.258  -0.278  53.438  1.00  0.00     0.041 A 
HETATM   18  C13 UNL     1      22.893  -0.190  53.514  1.00  0.00     0.047 A 
HETATM   19 BR2  UNL     1      21.855  -1.233  54.714  1.00  0.00    -0.048 Br
HETATM   20  C14 UNL     1      22.293   0.704  52.667  1.00  0.00     0.110 A 
BRANCH  20  21
HETATM   21  O1  UNL     1      20.937   0.875  52.656  1.00  0.00    -0.357 OA
HETATM   22  H16 UNL     1      20.321   0.157  52.315  1.00  0.00     0.217 HD
ENDBRANCH  20  21
ENDBRANCH   1  13
TORSDOF 8
ENDMDL
MODEL 5
REMARK VINA RESULT:      -5.8      1.666      3.598
REMARK  8 active torsions:
REMARK  status: ('A' for Active; 'I' for Inactive)
REMARK    1  A    between atoms: C2_2  and  C3_3 
REMARK    2  A    between atoms: C3_3  and  C4_4 
REMARK    3  A    between atoms: C4_4  and  N1_5 
REMARK    4  A    between atoms: N1_5  and  C5_6 
REMARK    5  A    between atoms: N1_5  and  C9_12 
REMARK    6  A    between atoms: C5_6  and  N2_8 
REMARK    7  A    between atoms: N2_8  and  C6_9 
REMARK    8  A    between atoms: C14_19  and  O1_20 
ROOT
HETATM    1  N1  UNL     1      23.291   2.570  51.051  1.00  0.00    -0.322 N 
ENDROOT
BRANCH   1   2
HETATM    2  C4  UNL     1      22.363   2.821  50.005  1.00  0.00     0.131 C 
BRANCH   2   3
HETATM    3  C3  UNL     1      22.756   2.216  48.671  1.00  0.00     0.020 C 
BRANCH   3   4
HETATM    4  C2  UNL     1      22.208   3.215  47.640  1.00  0.00    -0.003 C 
HETATM    5  C1  UNL     1      21.892   4.538  48.294  1.00  0.00     0.005 C 
ENDBRANCH   3   4
ENDBRANCH   2   3
ENDBRANCH   1   2
BRANCH   1   6
HETATM    6  C5  UNL     1      23.900   3.847  51.330  1.00  0.00     0.175 C 
HETATM    7  S1  UNL     1      23.545   4.866  52.519  1.00  0.00    -0.041 SA
BRANCH   6   8
HETATM    8  N2  UNL     1      24.945   4.516  50.645  1.00  0.00    -0.356 N 
HETATM    9  H10 UNL     1      25.598   5.086  51.237  1.00  0.00     0.162 HD
BRANCH   8  10
HETATM   10  C6  UNL     1      25.466   4.702  49.314  1.00  0.00     0.129 A 
HETATM   11  C7  UNL     1      26.478   5.770  49.156  1.00  0.00     0.000 A 
HETATM   12  C8  UNL     1      26.936   4.497  49.103  1.00  0.00     0.000 A 
ENDBRANCH   8  10
ENDBRANCH   6   8
ENDBRANCH   1   6
BRANCH   1  13
HETATM   13  C9  UNL     1      23.802   1.563  51.876  1.00  0.00     0.072 A 
HETATM   14  C10 UNL     1      22.825   0.964  52.681  1.00  0.00     0.052 A 
HETATM   15  C11 UNL     1      23.108  -0.061  53.583  1.00  0.00     0.014 A 
HETATM   16 BR1  UNL     1      21.770  -0.857  54.662  1.00  0.00    -0.051 Br
HETATM   17  C12 UNL     1      24.442  -0.438  53.618  1.00  0.00     0.041 A 
HETATM   18  C13 UNL     1      25.449   0.101  52.861  1.00  0.00     0.047 A 
HETATM   19 BR2  UNL     1      27.252  -0.481  52.974  1.00  0.00    -0.048 Br
HETATM   20  C14 UNL     1      25.090   1.104  51.998  1.00  0.00     0.110 A 
BRANCH  20  21
HETATM   21  O1  UNL     1      26.011   1.715  51.196  1.00  0.00    -0.357 OA
HETATM   22  H16 UNL     1      26.962   1.851  51.496  1.00  0.00     0.217 HD
ENDBRANCH  20  21
ENDBRANCH   1  13
TORSDOF 8
ENDMDL
MODEL 6
REMARK VINA RESULT:      -5.6      2.107      3.131
REMARK  8 active torsions:
REMARK  status: ('A' for Active; 'I' for Inactive)
REMARK    1  A    between atoms: C2_2  and  C3_3 
REMARK    2  A    between atoms: C3_3  and  C4_4 
REMARK    3  A    between atoms: C4_4  and  N1_5 
REMARK    4  A    between atoms: N1_5  and  C5_6 
REMARK    5  A    between atoms: N1_5  and  C9_12 
REMARK    6  A    between atoms: C5_6  and  N2_8 
REMARK    7  A    between atoms: N2_8  and  C6_9 
REMARK    8  A    between atoms: C14_19  and  O1_20 
ROOT
HETATM    1  N1  UNL     1      24.048   3.549  52.100  1.00  0.00    -0.322 N 
ENDROOT
BRANCH   1   2
HETATM    2  C4  UNL     1      23.474   4.822  52.357  1.00  0.00     0.131 C 
BRANCH   2   3
HETATM    3  C3  UNL     1      22.022   4.943  51.936  1.00  0.00     0.020 C 
BRANCH   3   4
HETATM    4  C2  UNL     1      21.954   6.313  51.243  1.00  0.00    -0.003 C 
HETATM    5  C1  UNL     1      21.543   6.162  49.799  1.00  0.00     0.005 C 
ENDBRANCH   3   4
ENDBRANCH   2   3
ENDBRANCH   1   2
BRANCH   1   6
HETATM    6  C5  UNL     1      24.395   3.566  50.700  1.00  0.00     0.175 C 
HETATM    7  S1  UNL     1      25.601   4.359  49.997  1.00  0.00    -0.041 SA
BRANCH   6   8
HETATM    8  N2  UNL     1      23.778   2.903  49.610  1.00  0.00    -0.356 N 
HETATM    9  H10 UNL     1      24.421   2.409  48.942  1.00  0.00     0.162 HD
BRANCH   8  10
HETATM   10  C6  UNL     1      22.473   2.649  49.052  1.00  0.00     0.129 A 
HETATM   11  C7  UNL     1      22.229   3.189  47.697  1.00  0.00     0.000 A 
HETATM   12  C8  UNL     1      22.397   1.849  47.787  1.00  0.00     0.000 A 
ENDBRANCH   8  10
ENDBRANCH   6   8
ENDBRANCH   1   6
BRANCH   1  13
HETATM   13  C9  UNL     1      24.385   2.331  52.699  1.00  0.00     0.072 A 
HETATM   14  C10 UNL     1      23.305   1.444  52.786  1.00  0.00     0.052 A 
HETATM   15  C11 UNL     1      23.411   0.173  53.350  1.00  0.00     0.014 A 
HETATM   16 BR1  UNL     1      21.936  -1.011  53.457  1.00  0.00    -0.051 Br
HETATM   17  C12 UNL     1      24.678  -0.141  53.818  1.00  0.00     0.041 A 
HETATM   18  C13 UNL     1      25.777   0.675  53.766  1.00  0.00     0.047 A 
HETATM   19 BR2  UNL     1      27.478   0.160  54.433  1.00  0.00    -0.048 Br
HETATM   20  C14 UNL     1      25.592   1.908  53.198  1.00  0.00     0.110 A 
BRANCH  20  21
HETATM   21  O1  UNL     1      26.619   2.803  53.092  1.00  0.00    -0.357 OA
HETATM   22  H16 UNL     1      26.743   3.365  52.267  1.00  0.00     0.217 HD
ENDBRANCH  20  21
ENDBRANCH   1  13
TORSDOF 8
ENDMDL
MODEL 7
REMARK VINA RESULT:      -5.6      2.781      5.048
REMARK  8 active torsions:
REMARK  status: ('A' for Active; 'I' for Inactive)
REMARK    1  A    between atoms: C2_2  and  C3_3 
REMARK    2  A    between atoms: C3_3  and  C4_4 
REMARK    3  A    between atoms: C4_4  and  N1_5 
REMARK    4  A    between atoms: N1_5  and  C5_6 
REMARK    5  A    between atoms: N1_5  and  C9_12 
REMARK    6  A    between atoms: C5_6  and  N2_8 
REMARK    7  A    between atoms: N2_8  and  C6_9 
REMARK    8  A    between atoms: C14_19  and  O1_20 
ROOT
HETATM    1  N1  UNL     1      23.514   0.211  52.697  1.00  0.00    -0.322 N 
ENDROOT
BRANCH   1   2
HETATM    2  C4  UNL     1      22.739  -0.902  53.118  1.00  0.00     0.131 C 
BRANCH   2   3
HETATM    3  C3  UNL     1      22.014  -0.689  54.433  1.00  0.00     0.020 C 
BRANCH   3   4
HETATM    4  C2  UNL     1      20.734  -1.526  54.284  1.00  0.00    -0.003 C 
HETATM    5  C1  UNL     1      19.673  -0.753  53.540  1.00  0.00     0.005 C 
ENDBRANCH   3   4
ENDBRANCH   2   3
ENDBRANCH   1   2
BRANCH   1   6
HETATM    6  C5  UNL     1      22.569   1.132  52.115  1.00  0.00     0.175 C 
HETATM    7  S1  UNL     1      21.670   0.918  50.802  1.00  0.00    -0.041 SA
BRANCH   6   8
HETATM    8  N2  UNL     1      22.197   2.432  52.541  1.00  0.00    -0.356 N 
HETATM    9  H10 UNL     1      22.101   2.571  53.578  1.00  0.00     0.162 HD
BRANCH   8  10
HETATM   10  C6  UNL     1      21.879   3.733  52.008  1.00  0.00     0.129 A 
HETATM   11  C7  UNL     1      22.708   4.856  52.497  1.00  0.00     0.000 A 
HETATM   12  C8  UNL     1      22.941   4.447  51.228  1.00  0.00     0.000 A 
ENDBRANCH   8  10
ENDBRANCH   6   8
ENDBRANCH   1   6
BRANCH   1  13
HETATM   13  C9  UNL     1      24.818   0.715  52.651  1.00  0.00     0.072 A 
HETATM   14  C10 UNL     1      25.026   1.603  51.589  1.00  0.00     0.052 A 
HETATM   15  C11 UNL     1      26.251   2.224  51.348  1.00  0.00     0.014 A 
HETATM   16 BR1  UNL     1      26.511   3.422  49.905  1.00  0.00    -0.051 Br
HETATM   17  C12 UNL     1      27.250   1.887  52.250  1.00  0.00     0.041 A 
HETATM   18  C13 UNL     1      27.117   1.029  53.310  1.00  0.00     0.047 A 
HETATM   19 BR2  UNL     1      28.542   0.627  54.498  1.00  0.00    -0.048 Br
HETATM   20  C14 UNL     1      25.883   0.460  53.480  1.00  0.00     0.110 A 
BRANCH  20  21
HETATM   21  O1  UNL     1      25.637  -0.412  54.503  1.00  0.00    -0.357 OA
HETATM   22  H16 UNL     1      25.496  -0.089  55.445  1.00  0.00     0.217 HD
ENDBRANCH  20  21
ENDBRANCH   1  13
TORSDOF 8
ENDMDL
MODEL 8
REMARK VINA RESULT:      -5.6      3.466      5.648
REMARK  8 active torsions:
REMARK  status: ('A' for Active; 'I' for Inactive)
REMARK    1  A    between atoms: C2_2  and  C3_3 
REMARK    2  A    between atoms: C3_3  and  C4_4 
REMARK    3  A    between atoms: C4_4  and  N1_5 
REMARK    4  A    between atoms: N1_5  and  C5_6 
REMARK    5  A    between atoms: N1_5  and  C9_12 
REMARK    6  A    between atoms: C5_6  and  N2_8 
REMARK    7  A    between atoms: N2_8  and  C6_9 
REMARK    8  A    between atoms: C14_19  and  O1_20 
ROOT
HETATM    1  N1  UNL     1      21.109   0.984  52.305  1.00  0.00    -0.322 N 
ENDROOT
BRANCH   1   2
HETATM    2  C4  UNL     1      20.307   0.273  53.238  1.00  0.00     0.131 C 
BRANCH   2   3
HETATM    3  C3  UNL     1      20.931   0.138  54.613  1.00  0.00     0.020 C 
BRANCH   3   4
HETATM    4  C2  UNL     1      21.549  -1.269  54.598  1.00  0.00    -0.003 C 
HETATM    5  C1  UNL     1      22.926  -1.255  55.215  1.00  0.00     0.005 C 
ENDBRANCH   3   4
ENDBRANCH   2   3
ENDBRANCH   1   2
BRANCH   1   6
HETATM    6  C5  UNL     1      20.439   0.832  51.038  1.00  0.00     0.175 C 
HETATM    7  S1  UNL     1      18.886   0.521  50.778  1.00  0.00    -0.041 SA
BRANCH   6   8
HETATM    8  N2  UNL     1      20.966   0.918  49.724  1.00  0.00    -0.356 N 
HETATM    9  H10 UNL     1      21.470   0.068  49.369  1.00  0.00     0.162 HD
BRANCH   8  10
HETATM   10  C6  UNL     1      21.058   1.836  48.617  1.00  0.00     0.129 A 
HETATM   11  C7  UNL     1      22.229   2.741  48.619  1.00  0.00     0.000 A 
HETATM   12  C8  UNL     1      22.253   1.730  47.719  1.00  0.00     0.000 A 
ENDBRANCH   8  10
ENDBRANCH   6   8
ENDBRANCH   1   6
BRANCH   1  13
HETATM   13  C9  UNL     1      22.273   1.751  52.185  1.00  0.00     0.072 A 
HETATM   14  C10 UNL     1      23.441   0.980  52.188  1.00  0.00     0.052 A 
HETATM   15  C11 UNL     1      24.716   1.534  52.081  1.00  0.00     0.014 A 
HETATM   16 BR1  UNL     1      26.284   0.472  52.088  1.00  0.00    -0.051 Br
HETATM   17  C12 UNL     1      24.731   2.916  51.971  1.00  0.00     0.041 A 
HETATM   18  C13 UNL     1      23.630   3.732  51.960  1.00  0.00     0.047 A 
HETATM   19 BR2  UNL     1      23.745   5.621  51.804  1.00  0.00    -0.048 Br
HETATM   20  C14 UNL     1      22.413   3.112  52.069  1.00  0.00     0.110 A 
BRANCH  20  21
HETATM   21  O1  UNL     1      21.249   3.826  52.070  1.00  0.00    -0.357 OA
HETATM   22  H16 UNL     1      21.073   4.545  51.387  1.00  0.00     0.217 HD
ENDBRANCH  20  21
ENDBRANCH   1  13
TORSDOF 8
ENDMDL
MODEL 9
REMARK VINA RESULT:      -5.5      1.692      2.603
REMARK  8 active torsions:
REMARK  status: ('A' for Active; 'I' for Inactive)
REMARK    1  A    between atoms: C2_2  and  C3_3 
REMARK    2  A    between atoms: C3_3  and  C4_4 
REMARK    3  A    between atoms: C4_4  and  N1_5 
REMARK    4  A    between atoms: N1_5  and  C5_6 
REMARK    5  A    between atoms: N1_5  and  C9_12 
REMARK    6  A    between atoms: C5_6  and  N2_8 
REMARK    7  A    between atoms: N2_8  and  C6_9 
REMARK    8  A    between atoms: C14_19  and  O1_20 
ROOT
HETATM    1  N1  UNL     1      24.434   3.189  50.368  1.00  0.00    -0.322 N 
ENDROOT
BRANCH   1   2
HETATM    2  C4  UNL     1      24.016   3.186  49.011  1.00  0.00     0.131 C 
BRANCH   2   3
HETATM    3  C3  UNL     1      22.757   2.381  48.753  1.00  0.00     0.020 C 
BRANCH   3   4
HETATM    4  C2  UNL     1      22.049   3.159  47.633  1.00  0.00    -0.003 C 
HETATM    5  C1  UNL     1      20.558   2.933  47.685  1.00  0.00     0.005 C 
ENDBRANCH   3   4
ENDBRANCH   2   3
ENDBRANCH   1   2
BRANCH   1   6
HETATM    6  C5  UNL     1      24.151   4.519  50.847  1.00  0.00     0.175 C 
HETATM    7  S1  UNL     1      24.799   5.902  50.351  1.00  0.00    -0.041 SA
BRANCH   6   8
HETATM    8  N2  UNL     1      23.248   4.941  51.856  1.00  0.00    -0.356 N 
HETATM    9  H10 UNL     1      23.673   5.415  52.691  1.00  0.00     0.162 HD
BRANCH   8  10
HETATM   10  C6  UNL     1      21.839   4.946  52.161  1.00  0.00     0.129 A 
HETATM   11  C7  UNL     1      20.927   4.712  51.020  1.00  0.00     0.000 A 
HETATM   12  C8  UNL     1      21.062   3.692  51.899  1.00  0.00     0.000 A 
ENDBRANCH   8  10
ENDBRANCH   6   8
ENDBRANCH   1   6
BRANCH   1  13
HETATM   13  C9  UNL     1      24.999   2.391  51.368  1.00  0.00     0.072 A 
HETATM   14  C10 UNL     1      24.078   1.517  51.958  1.00  0.00     0.052 A 
HETATM   15  C11 UNL     1      24.420   0.631  52.979  1.00  0.00     0.014 A 
HETATM   16 BR1  UNL     1      23.156  -0.542  53.764  1.00  0.00    -0.051 Br
HETATM   17  C12 UNL     1      25.751   0.686  53.362  1.00  0.00     0.041 A 
HETATM   18  C13 UNL     1      26.705   1.512  52.829  1.00  0.00     0.047 A 
HETATM   19 BR2  UNL     1      28.511   1.519  53.416  1.00  0.00    -0.048 Br
HETATM   20  C14 UNL     1      26.291   2.354  51.830  1.00  0.00     0.110 A 
BRANCH  20  21
HETATM   21  O1  UNL     1      27.157   3.221  51.227  1.00  0.00    -0.357 OA
HETATM   22  H16 UNL     1      27.300   4.152  51.581  1.00  0.00     0.217 HD
ENDBRANCH  20  21
ENDBRANCH   1  13
TORSDOF 8
ENDMDL
