MODEL 1
REMARK VINA RESULT:      -8.3      0.000      0.000
REMARK  4 active torsions:
REMARK  status: ('A' for Active; 'I' for Inactive)
REMARK    1  A    between atoms: O1_2  and  C2_3 
REMARK    2  A    between atoms: C9_11  and  N2_12 
REMARK    3  A    between atoms: N2_12  and  C10_13 
REMARK    4  A    between atoms: C15_18  and  N3_19 
ROOT
HETATM    1  C2  UNL     1      20.425   1.478  50.815  1.00  0.00     0.057 C 
HETATM    2  C3  UNL     1      20.313   0.250  51.264  1.00  0.00     0.049 C 
HETATM    3  C4  UNL     1      20.524   0.662  52.691  1.00  0.00     0.119 A 
HETATM    4  C5  UNL     1      20.679   1.981  52.973  1.00  0.00     0.005 A 
HETATM    5  C6  UNL     1      21.575   1.742  51.828  1.00  0.00     0.109 A 
HETATM    6  C7  UNL     1      22.653   0.804  51.899  1.00  0.00     0.149 C 
HETATM    7  N1  UNL     1      22.986   0.064  53.141  1.00  0.00    -0.319 N 
HETATM    8  C8  UNL     1      24.428  -0.090  53.342  1.00  0.00     0.121 A 
HETATM    9  C9  UNL     1      24.663  -0.763  54.455  1.00  0.00     0.041 A 
HETATM   10  C16 UNL     1      23.810  -1.365  55.493  1.00  0.00     0.211 A 
HETATM   11  N4  UNL     1      22.422  -1.155  55.193  1.00  0.00    -0.245 NA
HETATM   12  C17 UNL     1      22.081  -0.539  54.180  1.00  0.00     0.245 A 
HETATM   13  O2  UNL     1      20.615  -0.293  53.825  1.00  0.00    -0.300 OA
ENDROOT
BRANCH   9  14
HETATM   14  N2  UNL     1      26.100  -0.849  54.541  1.00  0.00    -0.380 N 
HETATM   15  H10 UNL     1      26.540  -1.299  55.402  1.00  0.00     0.160 HD
BRANCH  14  16
HETATM   16  C10 UNL     1      27.084  -0.381  53.585  1.00  0.00     0.134 A 
HETATM   17  C11 UNL     1      27.726   0.924  53.944  1.00  0.00     0.058 A 
HETATM   18  C12 UNL     1      29.199   0.767  53.885  1.00  0.00    -0.024 A 
HETATM   19  C13 UNL     1      30.072  -0.184  53.617  1.00  0.00    -0.002 A 
HETATM   20  C14 UNL     1      29.441  -1.451  53.278  1.00  0.00     0.026 A 
HETATM   21  C15 UNL     1      28.127  -1.382  53.307  1.00  0.00     0.026 A 
BRANCH  21  22
HETATM   22  N3  UNL     1      27.415  -2.597  52.986  1.00  0.00    -0.401 N 
HETATM   23  H17 UNL     1      27.686  -3.356  53.657  1.00  0.00     0.156 HD
HETATM   24  H18 UNL     1      26.708  -2.961  52.287  1.00  0.00     0.156 HD
ENDBRANCH  21  22
ENDBRANCH  14  16
ENDBRANCH   9  14
BRANCH   1  25
HETATM   25  O1  UNL     1      19.677   2.066  49.807  1.00  0.00    -0.360 OA
HETATM   26  C1  UNL     1      20.178   2.403  48.529  1.00  0.00     0.209 C 
ENDBRANCH   1  25
TORSDOF 4
ENDMDL
MODEL 2
REMARK VINA RESULT:      -8.0      4.256      7.464
REMARK  4 active torsions:
REMARK  status: ('A' for Active; 'I' for Inactive)
REMARK    1  A    between atoms: O1_2  and  C2_3 
REMARK    2  A    between atoms: C9_11  and  N2_12 
REMARK    3  A    between atoms: N2_12  and  C10_13 
REMARK    4  A    between atoms: C15_18  and  N3_19 
ROOT
HETATM    1  C2  UNL     1      27.709  -0.058  54.097  1.00  0.00     0.057 C 
HETATM    2  C3  UNL     1      26.634   0.222  54.796  1.00  0.00     0.049 C 
HETATM    3  C4  UNL     1      25.707  -0.198  53.694  1.00  0.00     0.119 A 
HETATM    4  C5  UNL     1      26.238  -0.699  52.549  1.00  0.00     0.005 A 
HETATM    5  C6  UNL     1      27.029   0.514  52.821  1.00  0.00     0.109 A 
HETATM    6  C7  UNL     1      26.422   1.807  52.891  1.00  0.00     0.149 C 
HETATM    7  N1  UNL     1      24.978   2.027  52.628  1.00  0.00    -0.319 N 
HETATM    8  C8  UNL     1      24.716   3.268  51.896  1.00  0.00     0.121 A 
HETATM    9  C9  UNL     1      23.417   3.414  51.700  1.00  0.00     0.041 A 
HETATM   10  C16 UNL     1      22.228   2.620  52.049  1.00  0.00     0.211 A 
HETATM   11  N4  UNL     1      22.603   1.433  52.762  1.00  0.00    -0.245 NA
HETATM   12  C17 UNL     1      23.788   1.189  53.004  1.00  0.00     0.245 A 
HETATM   13  O2  UNL     1      24.229  -0.064  53.759  1.00  0.00    -0.300 OA
ENDROOT
BRANCH   9  14
HETATM   14  N2  UNL     1      23.288   4.657  50.979  1.00  0.00    -0.380 N 
HETATM   15  H10 UNL     1      22.323   5.099  50.882  1.00  0.00     0.160 HD
BRANCH  14  16
HETATM   16  C10 UNL     1      24.329   5.427  50.328  1.00  0.00     0.134 A 
HETATM   17  C11 UNL     1      24.319   5.342  48.832  1.00  0.00     0.058 A 
HETATM   18  C12 UNL     1      24.330   6.715  48.272  1.00  0.00    -0.024 A 
HETATM   19  C13 UNL     1      24.339   7.954  48.722  1.00  0.00    -0.002 A 
HETATM   20  C14 UNL     1      24.339   8.029  50.175  1.00  0.00     0.026 A 
HETATM   21  C15 UNL     1      24.334   6.840  50.740  1.00  0.00     0.026 A 
BRANCH  21  22
HETATM   22  N3  UNL     1      24.330   6.817  52.184  1.00  0.00    -0.401 N 
HETATM   23  H17 UNL     1      23.539   6.221  52.529  1.00  0.00     0.156 HD
HETATM   24  H18 UNL     1      24.874   7.213  53.001  1.00  0.00     0.156 HD
ENDBRANCH  21  22
ENDBRANCH  14  16
ENDBRANCH   9  14
BRANCH   1  25
HETATM   25  O1  UNL     1      28.877  -0.640  54.565  1.00  0.00    -0.360 OA
HETATM   26  C1  UNL     1      29.965  -1.026  53.748  1.00  0.00     0.209 C 
ENDBRANCH   1  25
TORSDOF 4
ENDMDL
MODEL 3
REMARK VINA RESULT:      -7.7      2.218      3.517
REMARK  4 active torsions:
REMARK  status: ('A' for Active; 'I' for Inactive)
REMARK    1  A    between atoms: O1_2  and  C2_3 
REMARK    2  A    between atoms: C9_11  and  N2_12 
REMARK    3  A    between atoms: N2_12  and  C10_13 
REMARK    4  A    between atoms: C15_18  and  N3_19 
ROOT
HETATM    1  C2  UNL     1      19.464   0.278  51.987  1.00  0.00     0.057 C 
HETATM    2  C3  UNL     1      19.850   1.418  52.510  1.00  0.00     0.049 C 
HETATM    3  C4  UNL     1      20.553   1.851  51.258  1.00  0.00     0.119 A 
HETATM    4  C5  UNL     1      20.499   1.045  50.166  1.00  0.00     0.005 A 
HETATM    5  C6  UNL     1      20.840   0.138  51.277  1.00  0.00     0.109 A 
HETATM    6  C7  UNL     1      22.030   0.313  52.051  1.00  0.00     0.149 C 
HETATM    7  N1  UNL     1      23.031   1.367  51.750  1.00  0.00    -0.319 N 
HETATM    8  C8  UNL     1      24.410   0.913  51.946  1.00  0.00     0.121 A 
HETATM    9  C9  UNL     1      25.254   1.894  51.673  1.00  0.00     0.041 A 
HETATM   10  C16 UNL     1      25.101   3.289  51.230  1.00  0.00     0.211 A 
HETATM   11  N4  UNL     1      23.714   3.622  51.073  1.00  0.00    -0.245 NA
HETATM   12  C17 UNL     1      22.834   2.787  51.299  1.00  0.00     0.245 A 
HETATM   13  O2  UNL     1      21.347   3.101  51.144  1.00  0.00    -0.300 OA
ENDROOT
BRANCH   9  14
HETATM   14  N2  UNL     1      26.562   1.332  51.901  1.00  0.00    -0.380 N 
HETATM   15  H10 UNL     1      27.314   1.456  51.155  1.00  0.00     0.160 HD
BRANCH  14  16
HETATM   16  C10 UNL     1      27.025   0.577  53.048  1.00  0.00     0.134 A 
HETATM   17  C11 UNL     1      27.372  -0.850  52.753  1.00  0.00     0.058 A 
HETATM   18  C12 UNL     1      28.733  -1.131  53.267  1.00  0.00    -0.024 A 
HETATM   19  C13 UNL     1      29.697  -0.482  53.890  1.00  0.00    -0.002 A 
HETATM   20  C14 UNL     1      29.357   0.906  54.165  1.00  0.00     0.026 A 
HETATM   21  C15 UNL     1      28.154   1.224  53.737  1.00  0.00     0.026 A 
BRANCH  21  22
HETATM   22  N3  UNL     1      27.732   2.586  53.964  1.00  0.00    -0.401 N 
HETATM   23  H17 UNL     1      26.800   2.751  53.515  1.00  0.00     0.156 HD
HETATM   24  H18 UNL     1      28.070   3.469  54.441  1.00  0.00     0.156 HD
ENDBRANCH  21  22
ENDBRANCH  14  16
ENDBRANCH   9  14
BRANCH   1  25
HETATM   25  O1  UNL     1      18.239  -0.347  52.164  1.00  0.00    -0.360 OA
HETATM   26  C1  UNL     1      17.920  -1.195  53.249  1.00  0.00     0.209 C 
ENDBRANCH   1  25
TORSDOF 4
ENDMDL
MODEL 4
REMARK VINA RESULT:      -7.7      2.782      7.668
REMARK  4 active torsions:
REMARK  status: ('A' for Active; 'I' for Inactive)
REMARK    1  A    between atoms: O1_2  and  C2_3 
REMARK    2  A    between atoms: C9_11  and  N2_12 
REMARK    3  A    between atoms: N2_12  and  C10_13 
REMARK    4  A    between atoms: C15_18  and  N3_19 
ROOT
HETATM    1  C2  UNL     1      27.282   0.663  53.469  1.00  0.00     0.057 C 
HETATM    2  C3  UNL     1      26.644   0.646  54.616  1.00  0.00     0.049 C 
HETATM    3  C4  UNL     1      25.944  -0.644  54.304  1.00  0.00     0.119 A 
HETATM    4  C5  UNL     1      26.225  -1.273  53.134  1.00  0.00     0.005 A 
HETATM    5  C6  UNL     1      26.007   0.134  52.753  1.00  0.00     0.109 A 
HETATM    6  C7  UNL     1      24.762   0.794  52.997  1.00  0.00     0.149 C 
HETATM    7  N1  UNL     1      23.589   0.096  53.581  1.00  0.00    -0.319 N 
HETATM    8  C8  UNL     1      22.321   0.519  52.984  1.00  0.00     0.121 A 
HETATM    9  C9  UNL     1      21.315  -0.127  53.549  1.00  0.00     0.041 A 
HETATM   10  C16 UNL     1      21.210  -1.141  54.610  1.00  0.00     0.211 A 
HETATM   11  N4  UNL     1      22.509  -1.477  55.120  1.00  0.00    -0.245 NA
HETATM   12  C17 UNL     1      23.523  -0.938  54.670  1.00  0.00     0.245 A 
HETATM   13  O2  UNL     1      24.924  -1.267  55.185  1.00  0.00    -0.300 OA
ENDROOT
BRANCH   9  14
HETATM   14  N2  UNL     1      20.135   0.370  52.885  1.00  0.00    -0.380 N 
HETATM   15  H10 UNL     1      19.855   1.389  53.022  1.00  0.00     0.160 HD
BRANCH  14  16
HETATM   16  C10 UNL     1      19.222  -0.353  52.022  1.00  0.00     0.134 A 
HETATM   17  C11 UNL     1      18.029  -0.927  52.723  1.00  0.00     0.058 A 
HETATM   18  C12 UNL     1      16.801  -0.504  52.007  1.00  0.00    -0.024 A 
HETATM   19  C13 UNL     1      16.484   0.225  50.956  1.00  0.00    -0.002 A 
HETATM   20  C14 UNL     1      17.647   0.786  50.285  1.00  0.00     0.026 A 
HETATM   21  C15 UNL     1      18.777   0.446  50.868  1.00  0.00     0.026 A 
BRANCH  21  22
HETATM   22  N3  UNL     1      19.986   0.962  50.272  1.00  0.00    -0.401 N 
HETATM   23  H17 UNL     1      20.042   1.999  50.418  1.00  0.00     0.156 HD
HETATM   24  H18 UNL     1      20.832   0.622  49.733  1.00  0.00     0.156 HD
ENDBRANCH  21  22
ENDBRANCH  14  16
ENDBRANCH   9  14
BRANCH   1  25
HETATM   25  O1  UNL     1      28.594   1.053  53.253  1.00  0.00    -0.360 OA
HETATM   26  C1  UNL     1      29.728   0.293  53.620  1.00  0.00     0.209 C 
ENDBRANCH   1  25
TORSDOF 4
ENDMDL
MODEL 5
REMARK VINA RESULT:      -7.7      2.943      7.773
REMARK  4 active torsions:
REMARK  status: ('A' for Active; 'I' for Inactive)
REMARK    1  A    between atoms: O1_2  and  C2_3 
REMARK    2  A    between atoms: C9_11  and  N2_12 
REMARK    3  A    between atoms: N2_12  and  C10_13 
REMARK    4  A    between atoms: C15_18  and  N3_19 
ROOT
HETATM    1  C2  UNL     1      27.194  -0.848  53.282  1.00  0.00     0.057 C 
HETATM    2  C3  UNL     1      26.926  -0.125  52.220  1.00  0.00     0.049 C 
HETATM    3  C4  UNL     1      26.389   1.018  53.030  1.00  0.00     0.119 A 
HETATM    4  C5  UNL     1      26.420   0.929  54.385  1.00  0.00     0.005 A 
HETATM    5  C6  UNL     1      25.872  -0.366  53.944  1.00  0.00     0.109 A 
HETATM    6  C7  UNL     1      24.659  -0.452  53.190  1.00  0.00     0.149 C 
HETATM    7  N1  UNL     1      23.837   0.740  52.863  1.00  0.00    -0.319 N 
HETATM    8  C8  UNL     1      22.399   0.475  52.935  1.00  0.00     0.121 A 
HETATM    9  C9  UNL     1      21.720   1.567  52.625  1.00  0.00     0.041 A 
HETATM   10  C16 UNL     1      22.094   2.936  52.239  1.00  0.00     0.211 A 
HETATM   11  N4  UNL     1      23.522   3.079  52.199  1.00  0.00    -0.245 NA
HETATM   12  C17 UNL     1      24.260   2.128  52.470  1.00  0.00     0.245 A 
HETATM   13  O2  UNL     1      25.783   2.239  52.440  1.00  0.00    -0.300 OA
ENDROOT
BRANCH   9  14
HETATM   14  N2  UNL     1      20.333   1.184  52.730  1.00  0.00    -0.380 N 
HETATM   15  H10 UNL     1      19.644   1.859  53.182  1.00  0.00     0.160 HD
BRANCH  14  16
HETATM   16  C10 UNL     1      19.710  -0.052  52.299  1.00  0.00     0.134 A 
HETATM   17  C11 UNL     1      19.161  -0.892  53.411  1.00  0.00     0.058 A 
HETATM   18  C12 UNL     1      17.751  -1.233  53.104  1.00  0.00    -0.024 A 
HETATM   19  C13 UNL     1      16.873  -0.999  52.149  1.00  0.00    -0.002 A 
HETATM   20  C14 UNL     1      17.411  -0.175  51.077  1.00  0.00     0.026 A 
HETATM   21  C15 UNL     1      18.666   0.163  51.283  1.00  0.00     0.026 A 
BRANCH  21  22
HETATM   22  N3  UNL     1      19.283   0.985  50.269  1.00  0.00    -0.401 N 
HETATM   23  H17 UNL     1      19.145   1.999  50.500  1.00  0.00     0.156 HD
HETATM   24  H18 UNL     1      19.828   0.886  49.367  1.00  0.00     0.156 HD
ENDBRANCH  21  22
ENDBRANCH  14  16
ENDBRANCH   9  14
BRANCH   1  25
HETATM   25  O1  UNL     1      28.305  -1.652  53.481  1.00  0.00    -0.360 OA
HETATM   26  C1  UNL     1      29.640  -1.187  53.502  1.00  0.00     0.209 C 
ENDBRANCH   1  25
TORSDOF 4
ENDMDL
MODEL 6
REMARK VINA RESULT:      -7.6      3.162      7.488
REMARK  4 active torsions:
REMARK  status: ('A' for Active; 'I' for Inactive)
REMARK    1  A    between atoms: O1_2  and  C2_3 
REMARK    2  A    between atoms: C9_11  and  N2_12 
REMARK    3  A    between atoms: N2_12  and  C10_13 
REMARK    4  A    between atoms: C15_18  and  N3_19 
ROOT
HETATM    1  C2  UNL     1      27.717  -0.076  53.999  1.00  0.00     0.057 C 
HETATM    2  C3  UNL     1      26.628   0.186  54.683  1.00  0.00     0.049 C 
HETATM    3  C4  UNL     1      25.759  -0.630  53.772  1.00  0.00     0.119 A 
HETATM    4  C5  UNL     1      26.339  -1.298  52.741  1.00  0.00     0.005 A 
HETATM    5  C6  UNL     1      26.915   0.057  52.672  1.00  0.00     0.109 A 
HETATM    6  C7  UNL     1      26.097   1.214  52.481  1.00  0.00     0.149 C 
HETATM    7  N1  UNL     1      24.630   1.127  52.270  1.00  0.00    -0.319 N 
HETATM    8  C8  UNL     1      24.140   2.099  51.289  1.00  0.00     0.121 A 
HETATM    9  C9  UNL     1      22.830   1.982  51.150  1.00  0.00     0.041 A 
HETATM   10  C16 UNL     1      21.805   1.113  51.751  1.00  0.00     0.211 A 
HETATM   11  N4  UNL     1      22.398   0.207  52.694  1.00  0.00    -0.245 NA
HETATM   12  C17 UNL     1      23.613   0.223  52.907  1.00  0.00     0.245 A 
HETATM   13  O2  UNL     1      24.282  -0.724  53.901  1.00  0.00    -0.300 OA
ENDROOT
BRANCH   9  14
HETATM   14  N2  UNL     1      22.470   2.978  50.172  1.00  0.00    -0.380 N 
HETATM   15  H10 UNL     1      21.701   3.678  50.406  1.00  0.00     0.160 HD
BRANCH  14  16
HETATM   16  C10 UNL     1      23.023   3.172  48.845  1.00  0.00     0.134 A 
HETATM   17  C11 UNL     1      22.413   2.305  47.787  1.00  0.00     0.058 A 
HETATM   18  C12 UNL     1      21.986   3.159  46.653  1.00  0.00    -0.024 A 
HETATM   19  C13 UNL     1      21.990   4.438  46.336  1.00  0.00    -0.002 A 
HETATM   20  C14 UNL     1      22.575   5.275  47.373  1.00  0.00     0.026 A 
HETATM   21  C15 UNL     1      22.982   4.578  48.412  1.00  0.00     0.026 A 
BRANCH  21  22
HETATM   22  N3  UNL     1      23.575   5.329  49.495  1.00  0.00    -0.401 N 
HETATM   23  H17 UNL     1      23.400   4.839  50.405  1.00  0.00     0.156 HD
HETATM   24  H18 UNL     1      24.128   6.217  49.656  1.00  0.00     0.156 HD
ENDBRANCH  21  22
ENDBRANCH  14  16
ENDBRANCH   9  14
BRANCH   1  25
HETATM   25  O1  UNL     1      28.979  -0.333  54.510  1.00  0.00    -0.360 OA
HETATM   26  C1  UNL     1      30.092  -0.739  53.738  1.00  0.00     0.209 C 
ENDBRANCH   1  25
TORSDOF 4
ENDMDL
MODEL 7
REMARK VINA RESULT:      -7.4      4.772      5.594
REMARK  4 active torsions:
REMARK  status: ('A' for Active; 'I' for Inactive)
REMARK    1  A    between atoms: O1_2  and  C2_3 
REMARK    2  A    between atoms: C9_11  and  N2_12 
REMARK    3  A    between atoms: N2_12  and  C10_13 
REMARK    4  A    between atoms: C15_18  and  N3_19 
ROOT
HETATM    1  C2  UNL     1      24.592   7.245  48.229  1.00  0.00     0.057 C 
HETATM    2  C3  UNL     1      23.641   6.387  48.515  1.00  0.00     0.049 C 
HETATM    3  C4  UNL     1      23.920   6.440  49.988  1.00  0.00     0.119 A 
HETATM    4  C5  UNL     1      24.886   7.281  50.440  1.00  0.00     0.005 A 
HETATM    5  C6  UNL     1      25.508   6.585  49.299  1.00  0.00     0.109 A 
HETATM    6  C7  UNL     1      25.667   5.164  49.280  1.00  0.00     0.149 C 
HETATM    7  N1  UNL     1      25.285   4.303  50.428  1.00  0.00    -0.319 N 
HETATM    8  C8  UNL     1      26.222   3.200  50.647  1.00  0.00     0.121 A 
HETATM    9  C9  UNL     1      25.826   2.464  51.672  1.00  0.00     0.041 A 
HETATM   10  C16 UNL     1      24.686   2.522  52.600  1.00  0.00     0.211 A 
HETATM   11  N4  UNL     1      23.837   3.637  52.290  1.00  0.00    -0.245 NA
HETATM   12  C17 UNL     1      24.105   4.396  51.355  1.00  0.00     0.245 A 
HETATM   13  O2  UNL     1      23.228   5.593  50.993  1.00  0.00    -0.300 OA
ENDROOT
BRANCH   9  14
HETATM   14  N2  UNL     1      26.818   1.423  51.787  1.00  0.00    -0.380 N 
HETATM   15  H10 UNL     1      27.384   1.152  50.925  1.00  0.00     0.160 HD
BRANCH  14  16
HETATM   16  C10 UNL     1      27.169   0.646  52.959  1.00  0.00     0.134 A 
HETATM   17  C11 UNL     1      27.252  -0.831  52.723  1.00  0.00     0.058 A 
HETATM   18  C12 UNL     1      28.555  -1.326  53.226  1.00  0.00    -0.024 A 
HETATM   19  C13 UNL     1      29.633  -0.832  53.802  1.00  0.00    -0.002 A 
HETATM   20  C14 UNL     1      29.549   0.605  54.020  1.00  0.00     0.026 A 
HETATM   21  C15 UNL     1      28.410   1.112  53.599  1.00  0.00     0.026 A 
BRANCH  21  22
HETATM   22  N3  UNL     1      28.240   2.536  53.772  1.00  0.00    -0.401 N 
HETATM   23  H17 UNL     1      28.723   2.848  54.649  1.00  0.00     0.156 HD
HETATM   24  H18 UNL     1      27.781   3.360  53.292  1.00  0.00     0.156 HD
ENDBRANCH  21  22
ENDBRANCH  14  16
ENDBRANCH   9  14
BRANCH   1  25
HETATM   25  O1  UNL     1      24.543   8.257  47.284  1.00  0.00    -0.360 OA
HETATM   26  C1  UNL     1      24.737   9.629  47.565  1.00  0.00     0.209 C 
ENDBRANCH   1  25
TORSDOF 4
ENDMDL
MODEL 8
REMARK VINA RESULT:      -7.1      3.135      3.974
REMARK  4 active torsions:
REMARK  status: ('A' for Active; 'I' for Inactive)
REMARK    1  A    between atoms: O1_2  and  C2_3 
REMARK    2  A    between atoms: C9_11  and  N2_12 
REMARK    3  A    between atoms: N2_12  and  C10_13 
REMARK    4  A    between atoms: C15_18  and  N3_19 
ROOT
HETATM    1  C2  UNL     1      21.880   6.119  49.366  1.00  0.00     0.057 C 
HETATM    2  C3  UNL     1      21.453   4.883  49.256  1.00  0.00     0.049 C 
HETATM    3  C4  UNL     1      21.530   4.634  50.733  1.00  0.00     0.119 A 
HETATM    4  C5  UNL     1      21.909   5.653  51.547  1.00  0.00     0.005 A 
HETATM    5  C6  UNL     1      22.897   5.670  50.454  1.00  0.00     0.109 A 
HETATM    6  C7  UNL     1      23.736   4.544  50.182  1.00  0.00     0.149 C 
HETATM    7  N1  UNL     1      23.722   3.317  51.017  1.00  0.00    -0.319 N 
HETATM    8  C8  UNL     1      25.056   2.745  51.208  1.00  0.00     0.121 A 
HETATM    9  C9  UNL     1      24.980   1.652  51.950  1.00  0.00     0.041 A 
HETATM   10  C16 UNL     1      23.878   0.923  52.597  1.00  0.00     0.211 A 
HETATM   11  N4  UNL     1      22.623   1.572  52.342  1.00  0.00    -0.245 NA
HETATM   12  C17 UNL     1      22.569   2.600  51.662  1.00  0.00     0.245 A 
HETATM   13  O2  UNL     1      21.254   3.320  51.368  1.00  0.00    -0.300 OA
ENDROOT
BRANCH   9  14
HETATM   14  N2  UNL     1      26.340   1.186  52.065  1.00  0.00    -0.380 N 
HETATM   15  H10 UNL     1      27.017   1.365  51.261  1.00  0.00     0.160 HD
BRANCH  14  16
HETATM   16  C10 UNL     1      26.950   0.465  53.165  1.00  0.00     0.134 A 
HETATM   17  C11 UNL     1      27.279  -0.964  52.863  1.00  0.00     0.058 A 
HETATM   18  C12 UNL     1      28.696  -1.217  53.215  1.00  0.00    -0.024 A 
HETATM   19  C13 UNL     1      29.719  -0.540  53.701  1.00  0.00    -0.002 A 
HETATM   20  C14 UNL     1      29.395   0.850  53.982  1.00  0.00     0.026 A 
HETATM   21  C15 UNL     1      28.144   1.143  53.696  1.00  0.00     0.026 A 
BRANCH  21  22
HETATM   22  N3  UNL     1      27.733   2.506  53.941  1.00  0.00    -0.401 N 
HETATM   23  H17 UNL     1      28.243   2.887  54.774  1.00  0.00     0.156 HD
HETATM   24  H18 UNL     1      27.079   3.238  53.545  1.00  0.00     0.156 HD
ENDBRANCH  21  22
ENDBRANCH  14  16
ENDBRANCH   9  14
BRANCH   1  25
HETATM   25  O1  UNL     1      21.427   7.221  48.659  1.00  0.00    -0.360 OA
HETATM   26  C1  UNL     1      21.166   8.489  49.229  1.00  0.00     0.209 C 
ENDBRANCH   1  25
TORSDOF 4
ENDMDL
MODEL 9
REMARK VINA RESULT:      -7.0      3.408      5.935
REMARK  4 active torsions:
REMARK  status: ('A' for Active; 'I' for Inactive)
REMARK    1  A    between atoms: O1_2  and  C2_3 
REMARK    2  A    between atoms: C9_11  and  N2_12 
REMARK    3  A    between atoms: N2_12  and  C10_13 
REMARK    4  A    between atoms: C15_18  and  N3_19 
ROOT
HETATM    1  C2  UNL     1      19.510  -0.488  53.386  1.00  0.00     0.057 C 
HETATM    2  C3  UNL     1      20.398  -0.900  52.513  1.00  0.00     0.049 C 
HETATM    3  C4  UNL     1      21.546  -0.693  53.457  1.00  0.00     0.119 A 
HETATM    4  C5  UNL     1      21.284  -0.265  54.719  1.00  0.00     0.005 A 
HETATM    5  C6  UNL     1      20.488   0.626  53.856  1.00  0.00     0.109 A 
HETATM    6  C7  UNL     1      21.101   1.459  52.867  1.00  0.00     0.149 C 
HETATM    7  N1  UNL     1      22.572   1.538  52.690  1.00  0.00    -0.319 N 
HETATM    8  C8  UNL     1      23.036   2.893  52.387  1.00  0.00     0.121 A 
HETATM    9  C9  UNL     1      24.349   2.900  52.231  1.00  0.00     0.041 A 
HETATM   10  C16 UNL     1      25.398   1.870  52.297  1.00  0.00     0.211 A 
HETATM   11  N4  UNL     1      24.830   0.586  52.597  1.00  0.00    -0.245 NA
HETATM   12  C17 UNL     1      23.614   0.457  52.765  1.00  0.00     0.245 A 
HETATM   13  O2  UNL     1      22.970  -0.891  53.086  1.00  0.00    -0.300 OA
ENDROOT
BRANCH   9  14
HETATM   14  N2  UNL     1      24.682   4.273  51.940  1.00  0.00    -0.380 N 
HETATM   15  H10 UNL     1      24.881   4.938  52.749  1.00  0.00     0.160 HD
BRANCH  14  16
HETATM   16  C10 UNL     1      24.781   4.915  50.644  1.00  0.00     0.134 A 
HETATM   17  C11 UNL     1      24.438   4.030  49.486  1.00  0.00     0.058 A 
HETATM   18  C12 UNL     1      23.428   4.712  48.641  1.00  0.00    -0.024 A 
HETATM   19  C13 UNL     1      22.764   5.851  48.638  1.00  0.00    -0.002 A 
HETATM   20  C14 UNL     1      23.095   6.701  49.771  1.00  0.00     0.026 A 
HETATM   21  C15 UNL     1      23.994   6.157  50.564  1.00  0.00     0.026 A 
BRANCH  21  22
HETATM   22  N3  UNL     1      24.382   6.931  51.720  1.00  0.00    -0.401 N 
HETATM   23  H17 UNL     1      23.539   7.394  52.138  1.00  0.00     0.156 HD
HETATM   24  H18 UNL     1      25.248   7.176  52.276  1.00  0.00     0.156 HD
ENDBRANCH  21  22
ENDBRANCH  14  16
ENDBRANCH   9  14
BRANCH   1  25
HETATM   25  O1  UNL     1      18.248  -1.018  53.603  1.00  0.00    -0.360 OA
HETATM   26  C1  UNL     1      17.951  -2.401  53.627  1.00  0.00     0.209 C 
ENDBRANCH   1  25
TORSDOF 4
ENDMDL
