MODEL 1
REMARK VINA RESULT:      -8.2      0.000      0.000
REMARK  7 active torsions:
REMARK  status: ('A' for Active; 'I' for Inactive)
REMARK    1  A    between atoms: C4_5  and  N1_6 
REMARK    2  A    between atoms: N1_6  and  C5_7 
REMARK    3  A    between atoms: C8_10  and  O1_11 
REMARK    4  A    between atoms: O1_11  and  C9_12 
REMARK    5  A    between atoms: C9_12  and  C10_13 
REMARK    6  A    between atoms: C10_13  and  C11_14 
REMARK    7  A    between atoms: C11_14  and  N2_15 
ROOT
HETATM    1  C5  UNL     1      22.322   3.077  50.843  1.00  0.00     0.129 C 
HETATM    2  C6  UNL     1      23.024   2.542  49.819  1.00  0.00     0.053 C 
HETATM    3  C7  UNL     1      23.934   3.297  49.130  1.00  0.00     0.043 C 
HETATM    4  C8  UNL     1      24.561   4.321  49.795  1.00  0.00     0.107 C 
HETATM    5  C16 UNL     1      24.024   5.546  50.103  1.00  0.00     0.150 C 
HETATM    6  F2  UNL     1      24.613   6.460  50.901  1.00  0.00    -0.203 F 
HETATM    7  C17 UNL     1      22.885   6.252  49.793  1.00  0.00     0.064 C 
HETATM    8  C18 UNL     1      21.945   6.827  50.618  1.00  0.00     0.121 C 
HETATM    9  N3  UNL     1      21.689   5.848  51.499  1.00  0.00    -0.254 NA
HETATM   10  C19 UNL     1      20.869   4.875  51.113  1.00  0.00     0.234 C 
HETATM   11  N4  UNL     1      21.581   4.059  50.324  1.00  0.00    -0.225 NA
ENDROOT
BRANCH   1  12
HETATM   12  N1  UNL     1      22.625   2.417  52.044  1.00  0.00    -0.341 N 
HETATM   13  H3  UNL     1      23.445   2.779  52.618  1.00  0.00     0.167 HD
BRANCH  12  14
HETATM   14  C4  UNL     1      21.967   1.283  52.649  1.00  0.00     0.035 A 
HETATM   15  C3  UNL     1      20.689   0.870  52.318  1.00  0.00     0.032 A 
HETATM   16  C2  UNL     1      20.159  -0.231  52.945  1.00  0.00     0.046 A 
HETATM   17  C1  UNL     1      20.833  -0.970  53.907  1.00  0.00     0.138 A 
HETATM   18  F1  UNL     1      20.211  -2.039  54.460  1.00  0.00    -0.204 F 
HETATM   19  C21 UNL     1      22.126  -0.558  54.248  1.00  0.00     0.074 A 
HETATM   20  C20 UNL     1      22.648   0.545  53.615  1.00  0.00     0.056 A 
HETATM   21 CL1  UNL     1      22.989  -1.486  55.462  1.00  0.00    -0.081 Cl
ENDBRANCH  12  14
ENDBRANCH   1  12
BRANCH   4  22
HETATM   22  O1  UNL     1      25.861   4.210  50.237  1.00  0.00    -0.348 OA
BRANCH  22  23
HETATM   23  C9  UNL     1      26.595   3.006  50.216  1.00  0.00     0.177 C 
BRANCH  23  24
HETATM   24  C10 UNL     1      26.673   2.458  51.625  1.00  0.00     0.057 C 
BRANCH  24  25
HETATM   25  C11 UNL     1      26.079   1.098  51.787  1.00  0.00     0.274 C 
BRANCH  25  26
HETATM   26  N2  UNL     1      26.961   0.178  52.485  1.00  0.00     0.092 N 
HETATM   27  C12 UNL     1      26.151  -0.575  53.409  1.00  0.00     0.298 C 
HETATM   28  C13 UNL     1      26.280  -0.064  54.838  1.00  0.00     0.198 C 
HETATM   29  O2  UNL     1      27.581  -0.230  55.239  1.00  0.00    -0.388 OA
HETATM   30  C14 UNL     1      28.543   0.063  54.306  1.00  0.00     0.198 C 
HETATM   31  C15 UNL     1      28.064   0.829  53.105  1.00  0.00     0.298 C 
ENDBRANCH  25  26
ENDBRANCH  24  25
ENDBRANCH  23  24
ENDBRANCH  22  23
ENDBRANCH   4  22
TORSDOF 7
ENDMDL
MODEL 2
REMARK VINA RESULT:      -8.1      3.247      6.019
REMARK  7 active torsions:
REMARK  status: ('A' for Active; 'I' for Inactive)
REMARK    1  A    between atoms: C4_5  and  N1_6 
REMARK    2  A    between atoms: N1_6  and  C5_7 
REMARK    3  A    between atoms: C8_10  and  O1_11 
REMARK    4  A    between atoms: O1_11  and  C9_12 
REMARK    5  A    between atoms: C9_12  and  C10_13 
REMARK    6  A    between atoms: C10_13  and  C11_14 
REMARK    7  A    between atoms: C11_14  and  N2_15 
ROOT
HETATM    1  C5  UNL     1      23.404   4.343  51.038  1.00  0.00     0.129 C 
HETATM    2  C6  UNL     1      24.195   4.080  52.103  1.00  0.00     0.053 C 
HETATM    3  C7  UNL     1      23.857   3.099  52.995  1.00  0.00     0.043 C 
HETATM    4  C8  UNL     1      23.122   2.035  52.538  1.00  0.00     0.107 C 
HETATM    5  C16 UNL     1      21.776   2.026  52.269  1.00  0.00     0.150 C 
HETATM    6  F2  UNL     1      21.124   1.012  51.666  1.00  0.00    -0.203 F 
HETATM    7  C17 UNL     1      20.705   2.867  52.465  1.00  0.00     0.064 C 
HETATM    8  C18 UNL     1      19.794   3.368  51.563  1.00  0.00     0.121 C 
HETATM    9  N3  UNL     1      20.579   3.799  50.562  1.00  0.00    -0.254 NA
HETATM   10  C19 UNL     1      21.186   4.971  50.720  1.00  0.00     0.234 C 
HETATM   11  N4  UNL     1      22.234   4.758  51.528  1.00  0.00    -0.225 NA
ENDROOT
BRANCH   1  12
HETATM   12  N1  UNL     1      24.092   4.088  49.841  1.00  0.00    -0.341 N 
HETATM   13  H3  UNL     1      23.689   3.354  49.183  1.00  0.00     0.167 HD
BRANCH  12  14
HETATM   14  C4  UNL     1      25.302   4.696  49.340  1.00  0.00     0.035 A 
HETATM   15  C3  UNL     1      26.520   4.041  49.275  1.00  0.00     0.032 A 
HETATM   16  C2  UNL     1      27.609   4.706  48.769  1.00  0.00     0.046 A 
HETATM   17  C1  UNL     1      27.569   6.015  48.310  1.00  0.00     0.138 A 
HETATM   18  F1  UNL     1      28.708   6.572  47.831  1.00  0.00    -0.204 F 
HETATM   19  C21 UNL     1      26.342   6.684  48.374  1.00  0.00     0.074 A 
HETATM   20  C20 UNL     1      25.257   6.010  48.882  1.00  0.00     0.056 A 
HETATM   21 CL1  UNL     1      26.279   8.340  47.794  1.00  0.00    -0.081 Cl
ENDBRANCH  12  14
ENDBRANCH   1  12
BRANCH   4  22
HETATM   22  O1  UNL     1      23.697   0.806  52.295  1.00  0.00    -0.348 OA
BRANCH  22  23
HETATM   23  C9  UNL     1      23.855  -0.192  53.279  1.00  0.00     0.177 C 
BRANCH  23  24
HETATM   24  C10 UNL     1      25.264  -0.115  53.828  1.00  0.00     0.057 C 
BRANCH  24  25
HETATM   25  C11 UNL     1      26.308  -0.669  52.915  1.00  0.00     0.274 C 
BRANCH  25  26
HETATM   26  N2  UNL     1      27.446   0.220  52.755  1.00  0.00     0.092 N 
HETATM   27  C12 UNL     1      28.538  -0.341  53.509  1.00  0.00     0.298 C 
HETATM   28  C13 UNL     1      28.739   0.363  54.844  1.00  0.00     0.198 C 
HETATM   29  O2  UNL     1      29.071   1.670  54.596  1.00  0.00    -0.388 OA
HETATM   30  C14 UNL     1      28.383   2.286  53.582  1.00  0.00     0.198 C 
HETATM   31  C15 UNL     1      27.152   1.567  53.109  1.00  0.00     0.298 C 
ENDBRANCH  25  26
ENDBRANCH  24  25
ENDBRANCH  23  24
ENDBRANCH  22  23
ENDBRANCH   4  22
TORSDOF 7
ENDMDL
MODEL 3
REMARK VINA RESULT:      -8.1      3.748      6.094
REMARK  7 active torsions:
REMARK  status: ('A' for Active; 'I' for Inactive)
REMARK    1  A    between atoms: C4_5  and  N1_6 
REMARK    2  A    between atoms: N1_6  and  C5_7 
REMARK    3  A    between atoms: C8_10  and  O1_11 
REMARK    4  A    between atoms: O1_11  and  C9_12 
REMARK    5  A    between atoms: C9_12  and  C10_13 
REMARK    6  A    between atoms: C10_13  and  C11_14 
REMARK    7  A    between atoms: C11_14  and  N2_15 
ROOT
HETATM    1  C5  UNL     1      25.630   3.250  50.938  1.00  0.00     0.129 C 
HETATM    2  C6  UNL     1      25.900   3.599  49.661  1.00  0.00     0.053 C 
HETATM    3  C7  UNL     1      25.411   4.766  49.141  1.00  0.00     0.043 C 
HETATM    4  C8  UNL     1      25.193   5.815  49.998  1.00  0.00     0.107 C 
HETATM    5  C16 UNL     1      24.142   5.954  50.870  1.00  0.00     0.150 C 
HETATM    6  F2  UNL     1      24.051   6.915  51.811  1.00  0.00    -0.203 F 
HETATM    7  C17 UNL     1      22.947   5.317  51.116  1.00  0.00     0.064 C 
HETATM    8  C18 UNL     1      22.452   4.782  52.283  1.00  0.00     0.121 C 
HETATM    9  N3  UNL     1      23.491   4.069  52.745  1.00  0.00    -0.254 NA
HETATM   10  C19 UNL     1      23.709   2.877  52.199  1.00  0.00     0.234 C 
HETATM   11  N4  UNL     1      24.307   3.095  51.019  1.00  0.00    -0.225 NA
ENDROOT
BRANCH   1  12
HETATM   12  N1  UNL     1      26.814   3.179  51.689  1.00  0.00    -0.341 N 
HETATM   13  H3  UNL     1      27.373   4.076  51.821  1.00  0.00     0.167 HD
BRANCH  12  14
HETATM   14  C4  UNL     1      27.412   2.038  52.341  1.00  0.00     0.035 A 
HETATM   15  C3  UNL     1      28.466   2.129  53.233  1.00  0.00     0.032 A 
HETATM   16  C2  UNL     1      28.954   0.982  53.808  1.00  0.00     0.046 A 
HETATM   17  C1  UNL     1      28.450  -0.285  53.551  1.00  0.00     0.138 A 
HETATM   18  F1  UNL     1      29.010  -1.349  54.178  1.00  0.00    -0.204 F 
HETATM   19  C21 UNL     1      27.385  -0.385  52.650  1.00  0.00     0.074 A 
HETATM   20  C20 UNL     1      26.903   0.769  52.078  1.00  0.00     0.056 A 
HETATM   21 CL1  UNL     1      26.737  -1.983  52.318  1.00  0.00    -0.081 Cl
ENDBRANCH  12  14
ENDBRANCH   1  12
BRANCH   4  22
HETATM   22  O1  UNL     1      26.056   6.887  50.068  1.00  0.00    -0.348 OA
BRANCH  22  23
HETATM   23  C9  UNL     1      25.814   8.127  49.441  1.00  0.00     0.177 C 
BRANCH  23  24
HETATM   24  C10 UNL     1      26.870   8.350  48.379  1.00  0.00     0.057 C 
BRANCH  24  25
HETATM   25  C11 UNL     1      28.242   8.582  48.918  1.00  0.00     0.274 C 
BRANCH  25  26
HETATM   26  N2  UNL     1      29.271   7.890  48.160  1.00  0.00     0.092 N 
HETATM   27  C12 UNL     1      28.661   6.720  47.579  1.00  0.00     0.298 C 
HETATM   28  C13 UNL     1      28.998   5.452  48.351  1.00  0.00     0.198 C 
HETATM   29  O2  UNL     1      30.354   5.255  48.285  1.00  0.00    -0.388 OA
HETATM   30  C14 UNL     1      31.134   6.375  48.414  1.00  0.00     0.198 C 
HETATM   31  C15 UNL     1      30.428   7.596  48.934  1.00  0.00     0.298 C 
ENDBRANCH  25  26
ENDBRANCH  24  25
ENDBRANCH  23  24
ENDBRANCH  22  23
ENDBRANCH   4  22
TORSDOF 7
ENDMDL
MODEL 4
REMARK VINA RESULT:      -8.0      3.028      6.831
REMARK  7 active torsions:
REMARK  status: ('A' for Active; 'I' for Inactive)
REMARK    1  A    between atoms: C4_5  and  N1_6 
REMARK    2  A    between atoms: N1_6  and  C5_7 
REMARK    3  A    between atoms: C8_10  and  O1_11 
REMARK    4  A    between atoms: O1_11  and  C9_12 
REMARK    5  A    between atoms: C9_12  and  C10_13 
REMARK    6  A    between atoms: C10_13  and  C11_14 
REMARK    7  A    between atoms: C11_14  and  N2_15 
ROOT
HETATM    1  C5  UNL     1      26.766   1.925  52.344  1.00  0.00     0.129 C 
HETATM    2  C6  UNL     1      26.461   0.840  51.597  1.00  0.00     0.053 C 
HETATM    3  C7  UNL     1      26.772  -0.417  52.038  1.00  0.00     0.043 C 
HETATM    4  C8  UNL     1      26.817  -0.636  53.392  1.00  0.00     0.107 C 
HETATM    5  C16 UNL     1      27.824  -0.265  54.247  1.00  0.00     0.150 C 
HETATM    6  F2  UNL     1      27.756  -0.349  55.591  1.00  0.00    -0.203 F 
HETATM    7  C17 UNL     1      29.099   0.242  54.141  1.00  0.00     0.064 C 
HETATM    8  C18 UNL     1      29.657   1.365  54.709  1.00  0.00     0.121 C 
HETATM    9  N3  UNL     1      28.733   2.308  54.464  1.00  0.00    -0.254 NA
HETATM   10  C19 UNL     1      28.707   2.840  53.247  1.00  0.00     0.234 C 
HETATM   11  N4  UNL     1      28.097   1.953  52.449  1.00  0.00    -0.225 NA
ENDROOT
BRANCH   1  12
HETATM   12  N1  UNL     1      25.598   2.605  52.723  1.00  0.00    -0.341 N 
HETATM   13  H3  UNL     1      25.424   2.752  53.763  1.00  0.00     0.167 HD
BRANCH  12  14
HETATM   14  C4  UNL     1      24.559   3.163  51.890  1.00  0.00     0.035 A 
HETATM   15  C3  UNL     1      24.782   3.670  50.622  1.00  0.00     0.032 A 
HETATM   16  C2  UNL     1      23.722   4.168  49.906  1.00  0.00     0.046 A 
HETATM   17  C1  UNL     1      22.417   4.197  50.378  1.00  0.00     0.138 A 
HETATM   18  F1  UNL     1      21.448   4.712  49.583  1.00  0.00    -0.204 F 
HETATM   19  C21 UNL     1      22.184   3.687  51.660  1.00  0.00     0.074 A 
HETATM   20  C20 UNL     1      23.253   3.191  52.369  1.00  0.00     0.056 A 
HETATM   21 CL1  UNL     1      20.537   3.715  52.268  1.00  0.00    -0.081 Cl
ENDBRANCH  12  14
ENDBRANCH   1  12
BRANCH   4  22
HETATM   22  O1  UNL     1      25.800  -1.285  54.056  1.00  0.00    -0.348 OA
BRANCH  22  23
HETATM   23  C9  UNL     1      24.636  -0.643  54.526  1.00  0.00     0.177 C 
BRANCH  23  24
HETATM   24  C10 UNL     1      23.663  -0.495  53.376  1.00  0.00     0.057 C 
BRANCH  24  25
HETATM   25  C11 UNL     1      22.233  -0.700  53.752  1.00  0.00     0.274 C 
BRANCH  25  26
HETATM   26  N2  UNL     1      21.337   0.235  53.093  1.00  0.00     0.092 N 
HETATM   27  C12 UNL     1      20.066   0.160  53.768  1.00  0.00     0.298 C 
HETATM   28  C13 UNL     1      19.051  -0.672  52.996  1.00  0.00     0.198 C 
HETATM   29  O2  UNL     1      18.815  -0.056  51.793  1.00  0.00    -0.388 OA
HETATM   30  C14 UNL     1      19.911   0.470  51.158  1.00  0.00     0.198 C 
HETATM   31  C15 UNL     1      21.242   0.017  51.690  1.00  0.00     0.298 C 
ENDBRANCH  25  26
ENDBRANCH  24  25
ENDBRANCH  23  24
ENDBRANCH  22  23
ENDBRANCH   4  22
TORSDOF 7
ENDMDL
MODEL 5
REMARK VINA RESULT:      -7.8      4.088      6.508
REMARK  7 active torsions:
REMARK  status: ('A' for Active; 'I' for Inactive)
REMARK    1  A    between atoms: C4_5  and  N1_6 
REMARK    2  A    between atoms: N1_6  and  C5_7 
REMARK    3  A    between atoms: C8_10  and  O1_11 
REMARK    4  A    between atoms: O1_11  and  C9_12 
REMARK    5  A    between atoms: C9_12  and  C10_13 
REMARK    6  A    between atoms: C10_13  and  C11_14 
REMARK    7  A    between atoms: C11_14  and  N2_15 
ROOT
HETATM    1  C5  UNL     1      25.469   2.792  51.120  1.00  0.00     0.129 C 
HETATM    2  C6  UNL     1      26.013   3.283  49.985  1.00  0.00     0.053 C 
HETATM    3  C7  UNL     1      25.496   4.404  49.394  1.00  0.00     0.043 C 
HETATM    4  C8  UNL     1      24.882   5.333  50.196  1.00  0.00     0.107 C 
HETATM    5  C16 UNL     1      23.625   5.240  50.741  1.00  0.00     0.150 C 
HETATM    6  F2  UNL     1      23.123   6.093  51.655  1.00  0.00    -0.203 F 
HETATM    7  C17 UNL     1      22.533   4.412  50.616  1.00  0.00     0.064 C 
HETATM    8  C18 UNL     1      21.836   3.713  51.575  1.00  0.00     0.121 C 
HETATM    9  N3  UNL     1      22.815   3.128  52.282  1.00  0.00    -0.254 NA
HETATM   10  C19 UNL     1      23.368   2.032  51.773  1.00  0.00     0.234 C 
HETATM   11  N4  UNL     1      24.219   2.434  50.819  1.00  0.00    -0.225 NA
ENDROOT
BRANCH   1  12
HETATM   12  N1  UNL     1      26.399   2.837  52.171  1.00  0.00    -0.341 N 
HETATM   13  H3  UNL     1      26.506   3.754  52.702  1.00  0.00     0.167 HD
BRANCH  12  14
HETATM   14  C4  UNL     1      27.262   1.791  52.667  1.00  0.00     0.035 A 
HETATM   15  C3  UNL     1      28.424   2.029  53.381  1.00  0.00     0.032 A 
HETATM   16  C2  UNL     1      29.168   0.961  53.819  1.00  0.00     0.046 A 
HETATM   17  C1  UNL     1      28.826  -0.364  53.590  1.00  0.00     0.138 A 
HETATM   18  F1  UNL     1      29.637  -1.338  54.071  1.00  0.00    -0.204 F 
HETATM   19  C21 UNL     1      27.654  -0.612  52.869  1.00  0.00     0.074 A 
HETATM   20  C20 UNL     1      26.915   0.463  52.433  1.00  0.00     0.056 A 
HETATM   21 CL1  UNL     1      27.210  -2.285  52.574  1.00  0.00    -0.081 Cl
ENDBRANCH  12  14
ENDBRANCH   1  12
BRANCH   4  22
HETATM   22  O1  UNL     1      25.501   6.512  50.547  1.00  0.00    -0.348 OA
BRANCH  22  23
HETATM   23  C9  UNL     1      25.413   7.698  49.789  1.00  0.00     0.177 C 
BRANCH  23  24
HETATM   24  C10 UNL     1      26.787   8.330  49.712  1.00  0.00     0.057 C 
BRANCH  24  25
HETATM   25  C11 UNL     1      27.694   7.704  48.705  1.00  0.00     0.274 C 
BRANCH  25  26
HETATM   26  N2  UNL     1      28.846   8.533  48.392  1.00  0.00     0.092 N 
HETATM   27  C12 UNL     1      29.901   7.654  47.956  1.00  0.00     0.298 C 
HETATM   28  C13 UNL     1      30.933   7.405  49.048  1.00  0.00     0.198 C 
HETATM   29  O2  UNL     1      31.528   8.601  49.358  1.00  0.00    -0.388 OA
HETATM   30  C14 UNL     1      30.698   9.691  49.421  1.00  0.00     0.198 C 
HETATM   31  C15 UNL     1      29.229   9.380  49.469  1.00  0.00     0.298 C 
ENDBRANCH  25  26
ENDBRANCH  24  25
ENDBRANCH  23  24
ENDBRANCH  22  23
ENDBRANCH   4  22
TORSDOF 7
ENDMDL
MODEL 6
REMARK VINA RESULT:      -7.8      3.459      5.678
REMARK  7 active torsions:
REMARK  status: ('A' for Active; 'I' for Inactive)
REMARK    1  A    between atoms: C4_5  and  N1_6 
REMARK    2  A    between atoms: N1_6  and  C5_7 
REMARK    3  A    between atoms: C8_10  and  O1_11 
REMARK    4  A    between atoms: O1_11  and  C9_12 
REMARK    5  A    between atoms: C9_12  and  C10_13 
REMARK    6  A    between atoms: C10_13  and  C11_14 
REMARK    7  A    between atoms: C11_14  and  N2_15 
ROOT
HETATM    1  C5  UNL     1      22.337   5.414  50.019  1.00  0.00     0.129 C 
HETATM    2  C6  UNL     1      21.613   5.413  51.161  1.00  0.00     0.053 C 
HETATM    3  C7  UNL     1      21.223   4.235  51.737  1.00  0.00     0.043 C 
HETATM    4  C8  UNL     1      22.014   3.130  51.547  1.00  0.00     0.107 C 
HETATM    5  C16 UNL     1      22.086   2.361  50.412  1.00  0.00     0.150 C 
HETATM    6  F2  UNL     1      22.994   1.386  50.206  1.00  0.00    -0.203 F 
HETATM    7  C17 UNL     1      21.400   2.253  49.224  1.00  0.00     0.064 C 
HETATM    8  C18 UNL     1      21.858   2.307  47.927  1.00  0.00     0.121 C 
HETATM    9  N3  UNL     1      22.648   3.393  47.939  1.00  0.00    -0.254 NA
HETATM   10  C19 UNL     1      22.058   4.581  47.864  1.00  0.00     0.234 C 
HETATM   11  N4  UNL     1      21.570   4.850  49.083  1.00  0.00    -0.225 NA
ENDROOT
BRANCH   1  12
HETATM   12  N1  UNL     1      23.596   5.995  50.236  1.00  0.00    -0.341 N 
HETATM   13  H3  UNL     1      23.645   6.856  50.861  1.00  0.00     0.167 HD
BRANCH  12  14
HETATM   14  C4  UNL     1      24.886   5.587  49.730  1.00  0.00     0.035 A 
HETATM   15  C3  UNL     1      25.408   4.316  49.894  1.00  0.00     0.032 A 
HETATM   16  C2  UNL     1      26.640   4.027  49.363  1.00  0.00     0.046 A 
HETATM   17  C1  UNL     1      27.410   4.941  48.659  1.00  0.00     0.138 A 
HETATM   18  F1  UNL     1      28.614   4.545  48.178  1.00  0.00    -0.204 F 
HETATM   19  C21 UNL     1      26.890   6.229  48.490  1.00  0.00     0.074 A 
HETATM   20  C20 UNL     1      25.655   6.509  49.026  1.00  0.00     0.056 A 
HETATM   21 CL1  UNL     1      27.855   7.394  47.599  1.00  0.00    -0.081 Cl
ENDBRANCH  12  14
ENDBRANCH   1  12
BRANCH   4  22
HETATM   22  O1  UNL     1      22.853   2.660  52.533  1.00  0.00    -0.348 OA
BRANCH  22  23
HETATM   23  C9  UNL     1      24.039   3.313  52.928  1.00  0.00     0.177 C 
BRANCH  23  24
HETATM   24  C10 UNL     1      25.145   2.285  53.043  1.00  0.00     0.057 C 
BRANCH  24  25
HETATM   25  C11 UNL     1      24.708   0.883  52.778  1.00  0.00     0.274 C 
BRANCH  25  26
HETATM   26  N2  UNL     1      25.776  -0.085  52.963  1.00  0.00     0.092 N 
HETATM   27  C12 UNL     1      25.633  -0.633  54.288  1.00  0.00     0.298 C 
HETATM   28  C13 UNL     1      26.617  -0.019  55.275  1.00  0.00     0.198 C 
HETATM   29  O2  UNL     1      27.889  -0.327  54.863  1.00  0.00    -0.388 OA
HETATM   30  C14 UNL     1      28.121  -0.255  53.514  1.00  0.00     0.198 C 
HETATM   31  C15 UNL     1      27.067   0.460  52.716  1.00  0.00     0.298 C 
ENDBRANCH  25  26
ENDBRANCH  24  25
ENDBRANCH  23  24
ENDBRANCH  22  23
ENDBRANCH   4  22
TORSDOF 7
ENDMDL
MODEL 7
REMARK VINA RESULT:      -7.6      1.882      2.169
REMARK  7 active torsions:
REMARK  status: ('A' for Active; 'I' for Inactive)
REMARK    1  A    between atoms: C4_5  and  N1_6 
REMARK    2  A    between atoms: N1_6  and  C5_7 
REMARK    3  A    between atoms: C8_10  and  O1_11 
REMARK    4  A    between atoms: O1_11  and  C9_12 
REMARK    5  A    between atoms: C9_12  and  C10_13 
REMARK    6  A    between atoms: C10_13  and  C11_14 
REMARK    7  A    between atoms: C11_14  and  N2_15 
ROOT
HETATM    1  C5  UNL     1      21.261   2.487  48.731  1.00  0.00     0.129 C 
HETATM    2  C6  UNL     1      22.562   2.453  48.366  1.00  0.00     0.053 C 
HETATM    3  C7  UNL     1      23.432   3.416  48.802  1.00  0.00     0.043 C 
HETATM    4  C8  UNL     1      23.180   4.016  50.010  1.00  0.00     0.107 C 
HETATM    5  C16 UNL     1      22.240   4.983  50.262  1.00  0.00     0.150 C 
HETATM    6  F2  UNL     1      21.910   5.427  51.492  1.00  0.00    -0.203 F 
HETATM    7  C17 UNL     1      21.394   5.781  49.526  1.00  0.00     0.064 C 
HETATM    8  C18 UNL     1      20.030   5.946  49.614  1.00  0.00     0.121 C 
HETATM    9  N3  UNL     1      19.584   4.681  49.671  1.00  0.00    -0.254 NA
HETATM   10  C19 UNL     1      19.508   4.005  48.529  1.00  0.00     0.234 C 
HETATM   11  N4  UNL     1      20.754   3.614  48.226  1.00  0.00    -0.225 NA
ENDROOT
BRANCH   1  12
HETATM   12  N1  UNL     1      20.933   1.350  49.485  1.00  0.00    -0.341 N 
HETATM   13  H3  UNL     1      20.698   0.454  48.959  1.00  0.00     0.167 HD
BRANCH  12  14
HETATM   14  C4  UNL     1      20.869   1.197  50.920  1.00  0.00     0.035 A 
HETATM   15  C3  UNL     1      20.317   2.141  51.769  1.00  0.00     0.032 A 
HETATM   16  C2  UNL     1      20.295   1.893  53.119  1.00  0.00     0.046 A 
HETATM   17  C1  UNL     1      20.797   0.737  53.699  1.00  0.00     0.138 A 
HETATM   18  F1  UNL     1      20.722   0.598  55.045  1.00  0.00    -0.204 F 
HETATM   19  C21 UNL     1      21.357  -0.221  52.848  1.00  0.00     0.074 A 
HETATM   20  C20 UNL     1      21.376   0.036  51.497  1.00  0.00     0.056 A 
HETATM   21 CL1  UNL     1      21.994  -1.689  53.570  1.00  0.00    -0.081 Cl
ENDBRANCH  12  14
ENDBRANCH   1  12
BRANCH   4  22
HETATM   22  O1  UNL     1      23.888   3.687  51.145  1.00  0.00    -0.348 OA
BRANCH  22  23
HETATM   23  C9  UNL     1      24.397   2.398  51.404  1.00  0.00     0.177 C 
BRANCH  23  24
HETATM   24  C10 UNL     1      24.270   2.114  52.886  1.00  0.00     0.057 C 
BRANCH  24  25
HETATM   25  C11 UNL     1      24.859   0.810  53.313  1.00  0.00     0.274 C 
BRANCH  25  26
HETATM   26  N2  UNL     1      26.309   0.849  53.404  1.00  0.00     0.092 N 
HETATM   27  C12 UNL     1      26.828   0.000  52.362  1.00  0.00     0.298 C 
HETATM   28  C13 UNL     1      27.274  -1.356  52.893  1.00  0.00     0.198 C 
HETATM   29  O2  UNL     1      28.302  -1.155  53.778  1.00  0.00    -0.388 OA
HETATM   30  C14 UNL     1      28.169  -0.087  54.627  1.00  0.00     0.198 C 
HETATM   31  C15 UNL     1      26.792   0.511  54.700  1.00  0.00     0.298 C 
ENDBRANCH  25  26
ENDBRANCH  24  25
ENDBRANCH  23  24
ENDBRANCH  22  23
ENDBRANCH   4  22
TORSDOF 7
ENDMDL
MODEL 8
REMARK VINA RESULT:      -7.5      3.146      6.061
REMARK  7 active torsions:
REMARK  status: ('A' for Active; 'I' for Inactive)
REMARK    1  A    between atoms: C4_5  and  N1_6 
REMARK    2  A    between atoms: N1_6  and  C5_7 
REMARK    3  A    between atoms: C8_10  and  O1_11 
REMARK    4  A    between atoms: O1_11  and  C9_12 
REMARK    5  A    between atoms: C9_12  and  C10_13 
REMARK    6  A    between atoms: C10_13  and  C11_14 
REMARK    7  A    between atoms: C11_14  and  N2_15 
ROOT
HETATM    1  C5  UNL     1      23.623   1.172  51.874  1.00  0.00     0.129 C 
HETATM    2  C6  UNL     1      23.640   1.749  50.652  1.00  0.00     0.053 C 
HETATM    3  C7  UNL     1      22.609   2.553  50.249  1.00  0.00     0.043 C 
HETATM    4  C8  UNL     1      21.912   3.242  51.209  1.00  0.00     0.107 C 
HETATM    5  C16 UNL     1      20.963   2.729  52.057  1.00  0.00     0.150 C 
HETATM    6  F2  UNL     1      20.423   3.398  53.095  1.00  0.00    -0.203 F 
HETATM    7  C17 UNL     1      20.268   1.549  52.194  1.00  0.00     0.064 C 
HETATM    8  C18 UNL     1      20.149   0.711  53.280  1.00  0.00     0.121 C 
HETATM    9  N3  UNL     1      21.420   0.582  53.692  1.00  0.00    -0.254 NA
HETATM   10  C19 UNL     1      22.198  -0.264  53.025  1.00  0.00     0.234 C 
HETATM   11  N4  UNL     1      22.567   0.357  51.896  1.00  0.00    -0.225 NA
ENDROOT
BRANCH   1  12
HETATM   12  N1  UNL     1      24.699   1.633  52.649  1.00  0.00    -0.341 N 
HETATM   13  H3  UNL     1      24.592   2.572  53.141  1.00  0.00     0.167 HD
BRANCH  12  14
HETATM   14  C4  UNL     1      25.975   1.005  52.899  1.00  0.00     0.035 A 
HETATM   15  C3  UNL     1      26.257  -0.313  52.585  1.00  0.00     0.032 A 
HETATM   16  C2  UNL     1      27.508  -0.810  52.853  1.00  0.00     0.046 A 
HETATM   17  C1  UNL     1      28.528  -0.066  53.429  1.00  0.00     0.138 A 
HETATM   18  F1  UNL     1      29.725  -0.661  53.648  1.00  0.00    -0.204 F 
HETATM   19  C21 UNL     1      28.250   1.267  53.750  1.00  0.00     0.074 A 
HETATM   20  C20 UNL     1      26.994   1.757  53.478  1.00  0.00     0.056 A 
HETATM   21 CL1  UNL     1      29.533   2.220  54.477  1.00  0.00    -0.081 Cl
ENDBRANCH  12  14
ENDBRANCH   1  12
BRANCH   4  22
HETATM   22  O1  UNL     1      22.109   4.589  51.423  1.00  0.00    -0.348 OA
BRANCH  22  23
HETATM   23  C9  UNL     1      23.163   5.112  52.200  1.00  0.00     0.177 C 
BRANCH  23  24
HETATM   24  C10 UNL     1      23.812   6.248  51.438  1.00  0.00     0.057 C 
BRANCH  24  25
HETATM   25  C11 UNL     1      24.321   5.868  50.087  1.00  0.00     0.274 C 
BRANCH  25  26
HETATM   26  N2  UNL     1      25.771   5.802  50.029  1.00  0.00     0.092 N 
HETATM   27  C12 UNL     1      26.242   7.094  49.597  1.00  0.00     0.298 C 
HETATM   28  C13 UNL     1      26.625   7.104  48.123  1.00  0.00     0.198 C 
HETATM   29  O2  UNL     1      27.668   6.231  47.943  1.00  0.00    -0.388 OA
HETATM   30  C14 UNL     1      27.592   5.049  48.632  1.00  0.00     0.198 C 
HETATM   31  C15 UNL     1      26.246   4.731  49.221  1.00  0.00     0.298 C 
ENDBRANCH  25  26
ENDBRANCH  24  25
ENDBRANCH  23  24
ENDBRANCH  22  23
ENDBRANCH   4  22
TORSDOF 7
ENDMDL
MODEL 9
REMARK VINA RESULT:      -7.4      1.832      2.283
REMARK  7 active torsions:
REMARK  status: ('A' for Active; 'I' for Inactive)
REMARK    1  A    between atoms: C4_5  and  N1_6 
REMARK    2  A    between atoms: N1_6  and  C5_7 
REMARK    3  A    between atoms: C8_10  and  O1_11 
REMARK    4  A    between atoms: O1_11  and  C9_12 
REMARK    5  A    between atoms: C9_12  and  C10_13 
REMARK    6  A    between atoms: C10_13  and  C11_14 
REMARK    7  A    between atoms: C11_14  and  N2_15 
ROOT
HETATM    1  C5  UNL     1      20.949   3.187  50.688  1.00  0.00     0.129 C 
HETATM    2  C6  UNL     1      21.772   2.145  50.437  1.00  0.00     0.053 C 
HETATM    3  C7  UNL     1      23.095   2.205  50.783  1.00  0.00     0.043 C 
HETATM    4  C8  UNL     1      23.448   2.981  51.858  1.00  0.00     0.107 C 
HETATM    5  C16 UNL     1      23.549   4.349  51.880  1.00  0.00     0.150 C 
HETATM    6  F2  UNL     1      23.735   5.084  52.995  1.00  0.00    -0.203 F 
HETATM    7  C17 UNL     1      23.525   5.376  50.964  1.00  0.00     0.064 C 
HETATM    8  C18 UNL     1      22.738   6.504  50.917  1.00  0.00     0.121 C 
HETATM    9  N3  UNL     1      21.507   6.014  51.137  1.00  0.00    -0.254 NA
HETATM   10  C19 UNL     1      20.883   5.441  50.112  1.00  0.00     0.234 C 
HETATM   11  N4  UNL     1      21.410   4.216  49.974  1.00  0.00    -0.225 NA
ENDROOT
BRANCH   1  12
HETATM   12  N1  UNL     1      19.937   2.808  51.584  1.00  0.00    -0.341 N 
HETATM   13  H3  UNL     1      19.251   3.557  51.906  1.00  0.00     0.167 HD
BRANCH  12  14
HETATM   14  C4  UNL     1      19.665   1.509  52.153  1.00  0.00     0.035 A 
HETATM   15  C3  UNL     1      18.609   0.705  51.761  1.00  0.00     0.032 A 
HETATM   16  C2  UNL     1      18.446  -0.521  52.358  1.00  0.00     0.046 A 
HETATM   17  C1  UNL     1      19.285  -1.015  53.347  1.00  0.00     0.138 A 
HETATM   18  F1  UNL     1      19.028  -2.240  53.866  1.00  0.00    -0.204 F 
HETATM   19  C21 UNL     1      20.354  -0.207  53.749  1.00  0.00     0.074 A 
HETATM   20  C20 UNL     1      20.509   1.018  53.145  1.00  0.00     0.056 A 
HETATM   21 CL1  UNL     1      21.424  -0.823  54.997  1.00  0.00    -0.081 Cl
ENDBRANCH  12  14
ENDBRANCH   1  12
BRANCH   4  22
HETATM   22  O1  UNL     1      23.753   2.429  53.083  1.00  0.00    -0.348 OA
BRANCH  22  23
HETATM   23  C9  UNL     1      24.195   1.101  53.254  1.00  0.00     0.177 C 
BRANCH  23  24
HETATM   24  C10 UNL     1      25.645   1.123  53.689  1.00  0.00     0.057 C 
BRANCH  24  25
HETATM   25  C11 UNL     1      26.556   0.312  52.828  1.00  0.00     0.274 C 
BRANCH  25  26
HETATM   26  N2  UNL     1      27.398  -0.592  53.593  1.00  0.00     0.092 N 
HETATM   27  C12 UNL     1      28.317   0.217  54.353  1.00  0.00     0.298 C 
HETATM   28  C13 UNL     1      29.701   0.263  53.720  1.00  0.00     0.198 C 
HETATM   29  O2  UNL     1      30.216  -1.009  53.718  1.00  0.00    -0.388 OA
HETATM   30  C14 UNL     1      29.340  -2.014  53.399  1.00  0.00     0.198 C 
HETATM   31  C15 UNL     1      28.043  -1.568  52.784  1.00  0.00     0.298 C 
ENDBRANCH  25  26
ENDBRANCH  24  25
ENDBRANCH  23  24
ENDBRANCH  22  23
ENDBRANCH   4  22
TORSDOF 7
ENDMDL
