MODEL 1
REMARK VINA RESULT:      -8.3      0.000      0.000
REMARK  3 active torsions:
REMARK  status: ('A' for Active; 'I' for Inactive)
REMARK    1  A    between atoms: C9_9  and  C10_10 
REMARK    2  A    between atoms: P1_19  and  C17_20 
REMARK    3  A    between atoms: C18_22  and  O1_23 
ROOT
HETATM    1  C1  UNL     1      21.472   1.928  47.827  1.00  0.00     0.049 C 
HETATM    2  C2  UNL     1      22.049   2.487  49.094  1.00  0.00    -0.051 C 
HETATM    3  C3  UNL     1      21.485   2.564  50.286  1.00  0.00    -0.022 C 
HETATM    4  C4  UNL     1      22.249   2.168  51.265  1.00  0.00     0.013 C 
HETATM    5  C5  UNL     1      23.309   3.179  51.406  1.00  0.00     0.097 A 
HETATM    6  C6  UNL     1      24.016   3.338  50.112  1.00  0.00    -0.058 C 
HETATM    7  C7  UNL     1      25.386   3.869  50.080  1.00  0.00     0.045 C 
HETATM    8  C8  UNL     1      23.422   3.006  48.952  1.00  0.00     0.012 C 
HETATM    9  C9  UNL     1      24.252   2.892  52.518  1.00  0.00     0.088 A 
HETATM   10  N1  UNL     1      24.476   3.661  53.497  1.00  0.00    -0.177 NA
HETATM   11  N2  UNL     1      23.755   4.846  53.470  1.00  0.00    -0.280 N 
HETATM   12  P1  UNL     1      22.672   4.790  52.051  1.00  0.00     0.086 P 
HETATM   13  H16 UNL     1      23.786   5.662  54.124  1.00  0.00     0.188 HD
ENDROOT
BRANCH   9  14
HETATM   14  C10 UNL     1      25.018   1.627  52.542  1.00  0.00    -0.008 A 
HETATM   15  C11 UNL     1      24.546   0.503  53.187  1.00  0.00     0.014 A 
HETATM   16  C12 UNL     1      25.182  -0.715  53.266  1.00  0.00     0.007 A 
HETATM   17  C13 UNL     1      26.407  -0.831  52.647  1.00  0.00    -0.062 A 
HETATM   18  C14 UNL     1      27.141  -2.122  52.699  1.00  0.00     0.048 C 
HETATM   19  C15 UNL     1      26.966   0.229  51.976  1.00  0.00     0.007 A 
HETATM   20  C16 UNL     1      26.251   1.401  51.955  1.00  0.00     0.014 A 
ENDBRANCH   9  14
BRANCH  12  21
HETATM   21  C17 UNL     1      22.614   6.118  50.983  1.00  0.00     0.127 A 
HETATM   22  N3  UNL     1      23.390   7.074  50.565  1.00  0.00    -0.215 NA
HETATM   23  C18 UNL     1      22.882   7.926  49.677  1.00  0.00     0.169 A 
HETATM   24  C19 UNL     1      21.517   7.908  49.104  1.00  0.00     0.109 A 
HETATM   25  S1  UNL     1      20.948   6.360  50.076  1.00  0.00    -0.075 SA
BRANCH  23  26
HETATM   26  O1  UNL     1      23.802   8.929  49.285  1.00  0.00    -0.344 OA
HETATM   27  H17 UNL     1      24.347   9.437  49.941  1.00  0.00     0.219 HD
ENDBRANCH  23  26
ENDBRANCH  12  21
TORSDOF 3
ENDMDL
MODEL 2
REMARK VINA RESULT:      -8.1      1.968      2.516
REMARK  3 active torsions:
REMARK  status: ('A' for Active; 'I' for Inactive)
REMARK    1  A    between atoms: C9_9  and  C10_10 
REMARK    2  A    between atoms: P1_19  and  C17_20 
REMARK    3  A    between atoms: C18_22  and  O1_23 
ROOT
HETATM    1  C1  UNL     1      19.108   0.225  50.999  1.00  0.00     0.049 C 
HETATM    2  C2  UNL     1      20.205   1.187  51.349  1.00  0.00    -0.051 C 
HETATM    3  C3  UNL     1      20.402   1.825  52.489  1.00  0.00    -0.022 C 
HETATM    4  C4  UNL     1      21.632   1.785  52.918  1.00  0.00     0.013 C 
HETATM    5  C5  UNL     1      22.423   2.624  52.004  1.00  0.00     0.097 A 
HETATM    6  C6  UNL     1      22.249   2.140  50.612  1.00  0.00    -0.058 C 
HETATM    7  C7  UNL     1      23.268   2.437  49.595  1.00  0.00     0.045 C 
HETATM    8  C8  UNL     1      21.166   1.428  50.256  1.00  0.00     0.012 C 
HETATM    9  C9  UNL     1      23.857   2.716  52.381  1.00  0.00     0.088 A 
HETATM   10  N1  UNL     1      24.473   3.790  52.639  1.00  0.00    -0.177 NA
HETATM   11  N2  UNL     1      23.693   4.933  52.544  1.00  0.00    -0.280 N 
HETATM   12  P1  UNL     1      22.023   4.421  52.168  1.00  0.00     0.086 P 
HETATM   13  H16 UNL     1      23.961   5.938  52.661  1.00  0.00     0.188 HD
ENDROOT
BRANCH   9  14
HETATM   14  C10 UNL     1      24.684   1.493  52.481  1.00  0.00    -0.008 A 
HETATM   15  C11 UNL     1      25.893   1.379  51.826  1.00  0.00     0.014 A 
HETATM   16  C12 UNL     1      26.731   0.287  51.855  1.00  0.00     0.007 A 
HETATM   17  C13 UNL     1      26.333  -0.797  52.605  1.00  0.00    -0.062 A 
HETATM   18  C14 UNL     1      27.197  -2.004  52.673  1.00  0.00     0.048 C 
HETATM   19  C15 UNL     1      25.146  -0.784  53.296  1.00  0.00     0.007 A 
HETATM   20  C16 UNL     1      24.382   0.352  53.202  1.00  0.00     0.014 A 
ENDBRANCH   9  14
BRANCH  12  21
HETATM   21  C17 UNL     1      21.179   5.177  50.894  1.00  0.00     0.127 A 
HETATM   22  N3  UNL     1      19.968   5.245  50.424  1.00  0.00    -0.215 NA
HETATM   23  C18 UNL     1      19.774   6.006  49.349  1.00  0.00     0.169 A 
HETATM   24  C19 UNL     1      20.793   6.794  48.618  1.00  0.00     0.109 A 
HETATM   25  S1  UNL     1      22.246   6.283  49.755  1.00  0.00    -0.075 SA
BRANCH  23  26
HETATM   26  O1  UNL     1      18.426   6.015  48.915  1.00  0.00    -0.344 OA
HETATM   27  H17 UNL     1      18.173   6.156  47.965  1.00  0.00     0.219 HD
ENDBRANCH  23  26
ENDBRANCH  12  21
TORSDOF 3
ENDMDL
MODEL 3
REMARK VINA RESULT:      -8.1      2.346      3.042
REMARK  3 active torsions:
REMARK  status: ('A' for Active; 'I' for Inactive)
REMARK    1  A    between atoms: C9_9  and  C10_10 
REMARK    2  A    between atoms: P1_19  and  C17_20 
REMARK    3  A    between atoms: C18_22  and  O1_23 
ROOT
HETATM    1  C1  UNL     1      21.923   3.223  46.901  1.00  0.00     0.049 C 
HETATM    2  C2  UNL     1      22.356   3.669  48.267  1.00  0.00    -0.051 C 
HETATM    3  C3  UNL     1      21.727   4.476  49.102  1.00  0.00    -0.022 C 
HETATM    4  C4  UNL     1      21.677   4.042  50.330  1.00  0.00     0.013 C 
HETATM    5  C5  UNL     1      23.046   4.124  50.861  1.00  0.00     0.097 A 
HETATM    6  C6  UNL     1      23.964   3.358  49.983  1.00  0.00    -0.058 C 
HETATM    7  C7  UNL     1      25.239   2.851  50.511  1.00  0.00     0.045 C 
HETATM    8  C8  UNL     1      23.654   3.116  48.697  1.00  0.00     0.012 C 
HETATM    9  C9  UNL     1      23.154   3.696  52.280  1.00  0.00     0.088 A 
HETATM   10  N1  UNL     1      23.586   4.417  53.225  1.00  0.00    -0.177 NA
HETATM   11  N2  UNL     1      23.972   5.693  52.841  1.00  0.00    -0.280 N 
HETATM   12  P1  UNL     1      23.610   5.868  51.100  1.00  0.00     0.086 P 
HETATM   13  H16 UNL     1      24.398   6.462  53.408  1.00  0.00     0.188 HD
ENDROOT
BRANCH   9  14
HETATM   14  C10 UNL     1      22.742   2.334  52.684  1.00  0.00    -0.008 A 
HETATM   15  C11 UNL     1      23.658   1.391  53.101  1.00  0.00     0.014 A 
HETATM   16  C12 UNL     1      23.375   0.103  53.495  1.00  0.00     0.007 A 
HETATM   17  C13 UNL     1      22.054  -0.290  53.472  1.00  0.00    -0.062 A 
HETATM   18  C14 UNL     1      21.689  -1.670  53.885  1.00  0.00     0.048 C 
HETATM   19  C15 UNL     1      21.064   0.573  53.073  1.00  0.00     0.007 A 
HETATM   20  C16 UNL     1      21.451   1.837  52.699  1.00  0.00     0.014 A 
ENDBRANCH   9  14
BRANCH  12  21
HETATM   21  C17 UNL     1      24.807   6.479  50.049  1.00  0.00     0.127 A 
HETATM   22  N3  UNL     1      26.096   6.644  50.022  1.00  0.00    -0.215 NA
HETATM   23  C18 UNL     1      26.616   7.193  48.927  1.00  0.00     0.169 A 
HETATM   24  C19 UNL     1      25.885   7.643  47.721  1.00  0.00     0.109 A 
HETATM   25  S1  UNL     1      24.158   7.146  48.378  1.00  0.00    -0.075 SA
BRANCH  23  26
HETATM   26  O1  UNL     1      28.024   7.330  48.994  1.00  0.00    -0.344 OA
HETATM   27  H17 UNL     1      28.466   8.196  49.199  1.00  0.00     0.219 HD
ENDBRANCH  23  26
ENDBRANCH  12  21
TORSDOF 3
ENDMDL
MODEL 4
REMARK VINA RESULT:      -8.0      3.080      5.406
REMARK  3 active torsions:
REMARK  status: ('A' for Active; 'I' for Inactive)
REMARK    1  A    between atoms: C9_9  and  C10_10 
REMARK    2  A    between atoms: P1_19  and  C17_20 
REMARK    3  A    between atoms: C18_22  and  O1_23 
ROOT
HETATM    1  C1  UNL     1      24.422   0.284  53.114  1.00  0.00     0.049 C 
HETATM    2  C2  UNL     1      23.906   1.568  52.533  1.00  0.00    -0.051 C 
HETATM    3  C3  UNL     1      23.739   2.731  53.137  1.00  0.00    -0.022 C 
HETATM    4  C4  UNL     1      24.199   3.751  52.469  1.00  0.00     0.013 C 
HETATM    5  C5  UNL     1      23.313   3.925  51.306  1.00  0.00     0.097 A 
HETATM    6  C6  UNL     1      23.263   2.663  50.529  1.00  0.00    -0.058 C 
HETATM    7  C7  UNL     1      22.893   2.686  49.107  1.00  0.00     0.045 C 
HETATM    8  C8  UNL     1      23.549   1.482  51.104  1.00  0.00     0.012 C 
HETATM    9  C9  UNL     1      23.682   5.084  50.453  1.00  0.00     0.088 A 
HETATM   10  N1  UNL     1      22.923   6.060  50.186  1.00  0.00    -0.177 NA
HETATM   11  N2  UNL     1      21.664   5.981  50.764  1.00  0.00    -0.280 N 
HETATM   12  P1  UNL     1      21.626   4.514  51.783  1.00  0.00     0.086 P 
HETATM   13  H16 UNL     1      20.843   6.622  50.669  1.00  0.00     0.188 HD
ENDROOT
BRANCH   9  14
HETATM   14  C10 UNL     1      25.025   5.164  49.839  1.00  0.00    -0.008 A 
HETATM   15  C11 UNL     1      25.547   6.357  49.385  1.00  0.00     0.014 A 
HETATM   16  C12 UNL     1      26.781   6.533  48.801  1.00  0.00     0.007 A 
HETATM   17  C13 UNL     1      27.575   5.418  48.650  1.00  0.00    -0.062 A 
HETATM   18  C14 UNL     1      28.917   5.547  48.025  1.00  0.00     0.048 C 
HETATM   19  C15 UNL     1      27.149   4.182  49.070  1.00  0.00     0.007 A 
HETATM   20  C16 UNL     1      25.902   4.112  49.640  1.00  0.00     0.014 A 
ENDBRANCH   9  14
BRANCH  12  21
HETATM   21  C17 UNL     1      20.323   3.423  51.640  1.00  0.00     0.127 A 
HETATM   22  N3  UNL     1      20.011   2.215  52.004  1.00  0.00    -0.215 NA
HETATM   23  C18 UNL     1      18.813   1.760  51.643  1.00  0.00     0.169 A 
HETATM   24  C19 UNL     1      17.782   2.483  50.864  1.00  0.00     0.109 A 
HETATM   25  S1  UNL     1      18.814   4.083  50.667  1.00  0.00    -0.075 SA
BRANCH  23  26
HETATM   26  O1  UNL     1      18.569   0.437  52.086  1.00  0.00    -0.344 OA
HETATM   27  H17 UNL     1      18.954   0.078  52.927  1.00  0.00     0.219 HD
ENDBRANCH  23  26
ENDBRANCH  12  21
TORSDOF 3
ENDMDL
MODEL 5
REMARK VINA RESULT:      -7.8      2.767      4.780
REMARK  3 active torsions:
REMARK  status: ('A' for Active; 'I' for Inactive)
REMARK    1  A    between atoms: C9_9  and  C10_10 
REMARK    2  A    between atoms: P1_19  and  C17_20 
REMARK    3  A    between atoms: C18_22  and  O1_23 
ROOT
HETATM    1  C1  UNL     1      25.828   2.325  53.833  1.00  0.00     0.049 C 
HETATM    2  C2  UNL     1      24.876   2.552  52.696  1.00  0.00    -0.051 C 
HETATM    3  C3  UNL     1      24.932   2.060  51.472  1.00  0.00    -0.022 C 
HETATM    4  C4  UNL     1      23.802   1.578  51.037  1.00  0.00     0.013 C 
HETATM    5  C5  UNL     1      22.909   2.728  50.822  1.00  0.00     0.097 A 
HETATM    6  C6  UNL     1      22.794   3.507  52.079  1.00  0.00    -0.058 C 
HETATM    7  C7  UNL     1      21.626   4.370  52.308  1.00  0.00     0.045 C 
HETATM    8  C8  UNL     1      23.748   3.444  53.025  1.00  0.00     0.012 C 
HETATM    9  C9  UNL     1      21.578   2.348  50.284  1.00  0.00     0.088 A 
HETATM   10  N1  UNL     1      21.087   2.766  49.196  1.00  0.00    -0.177 NA
HETATM   11  N2  UNL     1      21.906   3.643  48.500  1.00  0.00    -0.280 N 
HETATM   12  P1  UNL     1      23.443   3.782  49.400  1.00  0.00     0.086 P 
HETATM   13  H16 UNL     1      21.725   4.162  47.609  1.00  0.00     0.188 HD
ENDROOT
BRANCH   9  14
HETATM   14  C10 UNL     1      20.709   1.412  51.031  1.00  0.00    -0.008 A 
HETATM   15  C11 UNL     1      19.434   1.104  50.602  1.00  0.00     0.014 A 
HETATM   16  C12 UNL     1      18.553   0.250  51.225  1.00  0.00     0.007 A 
HETATM   17  C13 UNL     1      18.974  -0.358  52.387  1.00  0.00    -0.062 A 
HETATM   18  C14 UNL     1      18.064  -1.290  53.104  1.00  0.00     0.048 C 
HETATM   19  C15 UNL     1      20.226  -0.120  52.899  1.00  0.00     0.007 A 
HETATM   20  C16 UNL     1      21.030   0.749  52.202  1.00  0.00     0.014 A 
ENDBRANCH   9  14
BRANCH  12  21
HETATM   21  C17 UNL     1      24.084   5.326  49.737  1.00  0.00     0.127 A 
HETATM   22  N3  UNL     1      25.181   5.853  50.193  1.00  0.00    -0.215 NA
HETATM   23  C18 UNL     1      25.225   7.181  50.286  1.00  0.00     0.169 A 
HETATM   24  C19 UNL     1      24.154   8.137  49.924  1.00  0.00     0.109 A 
HETATM   25  S1  UNL     1      22.912   6.791  49.366  1.00  0.00    -0.075 SA
BRANCH  23  26
HETATM   26  O1  UNL     1      26.459   7.658  50.792  1.00  0.00    -0.344 OA
HETATM   27  H17 UNL     1      26.768   7.460  51.715  1.00  0.00     0.219 HD
ENDBRANCH  23  26
ENDBRANCH  12  21
TORSDOF 3
ENDMDL
MODEL 6
REMARK VINA RESULT:      -7.5      3.727      4.399
REMARK  3 active torsions:
REMARK  status: ('A' for Active; 'I' for Inactive)
REMARK    1  A    between atoms: C9_9  and  C10_10 
REMARK    2  A    between atoms: P1_19  and  C17_20 
REMARK    3  A    between atoms: C18_22  and  O1_23 
ROOT
HETATM    1  C1  UNL     1      21.869   3.394  47.542  1.00  0.00     0.049 C 
HETATM    2  C2  UNL     1      21.480   2.626  48.770  1.00  0.00    -0.051 C 
HETATM    3  C3  UNL     1      21.072   1.372  48.856  1.00  0.00    -0.022 C 
HETATM    4  C4  UNL     1      21.652   0.684  49.799  1.00  0.00     0.013 C 
HETATM    5  C5  UNL     1      21.150   1.216  51.076  1.00  0.00     0.097 A 
HETATM    6  C6  UNL     1      21.409   2.675  51.141  1.00  0.00    -0.058 C 
HETATM    7  C7  UNL     1      21.485   3.353  52.442  1.00  0.00     0.045 C 
HETATM    8  C8  UNL     1      21.576   3.400  50.021  1.00  0.00     0.012 C 
HETATM    9  C9  UNL     1      21.692   0.505  52.263  1.00  0.00     0.088 A 
HETATM   10  N1  UNL     1      20.994  -0.086  53.137  1.00  0.00    -0.177 NA
HETATM   11  N2  UNL     1      19.626  -0.028  52.911  1.00  0.00    -0.280 N 
HETATM   12  P1  UNL     1      19.367   0.815  51.358  1.00  0.00     0.086 P 
HETATM   13  H16 UNL     1      18.836  -0.390  53.494  1.00  0.00     0.188 HD
ENDROOT
BRANCH   9  14
HETATM   14  C10 UNL     1      23.151   0.447  52.499  1.00  0.00    -0.008 A 
HETATM   15  C11 UNL     1      23.703  -0.407  53.430  1.00  0.00     0.014 A 
HETATM   16  C12 UNL     1      25.042  -0.533  53.722  1.00  0.00     0.007 A 
HETATM   17  C13 UNL     1      25.921   0.266  53.025  1.00  0.00    -0.062 A 
HETATM   18  C14 UNL     1      27.378   0.174  53.298  1.00  0.00     0.048 C 
HETATM   19  C15 UNL     1      25.473   1.151  52.075  1.00  0.00     0.007 A 
HETATM   20  C16 UNL     1      24.118   1.201  51.858  1.00  0.00     0.014 A 
ENDBRANCH   9  14
BRANCH  12  21
HETATM   21  C17 UNL     1      18.233   2.085  51.268  1.00  0.00     0.127 A 
HETATM   22  N3  UNL     1      17.680   2.962  52.052  1.00  0.00    -0.215 NA
HETATM   23  C18 UNL     1      16.801   3.799  51.505  1.00  0.00     0.169 A 
HETATM   24  C19 UNL     1      16.375   3.845  50.088  1.00  0.00     0.109 A 
HETATM   25  S1  UNL     1      17.492   2.393  49.532  1.00  0.00    -0.075 SA
BRANCH  23  26
HETATM   26  O1  UNL     1      16.255   4.714  52.439  1.00  0.00    -0.344 OA
HETATM   27  H17 UNL     1      15.706   5.493  52.162  1.00  0.00     0.219 HD
ENDBRANCH  23  26
ENDBRANCH  12  21
TORSDOF 3
ENDMDL
MODEL 7
REMARK VINA RESULT:      -7.5      3.444      6.870
REMARK  3 active torsions:
REMARK  status: ('A' for Active; 'I' for Inactive)
REMARK    1  A    between atoms: C9_9  and  C10_10 
REMARK    2  A    between atoms: P1_19  and  C17_20 
REMARK    3  A    between atoms: C18_22  and  O1_23 
ROOT
HETATM    1  C1  UNL     1      20.766   0.642  51.898  1.00  0.00     0.049 C 
HETATM    2  C2  UNL     1      21.982   1.459  51.572  1.00  0.00    -0.051 C 
HETATM    3  C3  UNL     1      22.724   1.422  50.480  1.00  0.00    -0.022 C 
HETATM    4  C4  UNL     1      23.004   2.594  49.984  1.00  0.00     0.013 C 
HETATM    5  C5  UNL     1      23.941   3.234  50.921  1.00  0.00     0.097 A 
HETATM    6  C6  UNL     1      23.336   3.276  52.274  1.00  0.00    -0.058 C 
HETATM    7  C7  UNL     1      23.794   4.269  53.257  1.00  0.00     0.045 C 
HETATM    8  C8  UNL     1      22.366   2.414  52.628  1.00  0.00     0.012 C 
HETATM    9  C9  UNL     1      24.394   4.577  50.476  1.00  0.00     0.088 A 
HETATM   10  N1  UNL     1      25.598   4.909  50.276  1.00  0.00    -0.177 NA
HETATM   11  N2  UNL     1      26.516   3.895  50.508  1.00  0.00    -0.280 N 
HETATM   12  P1  UNL     1      25.601   2.420  50.930  1.00  0.00     0.086 P 
HETATM   13  H16 UNL     1      27.561   3.916  50.462  1.00  0.00     0.188 HD
ENDROOT
BRANCH   9  14
HETATM   14  C10 UNL     1      23.411   5.655  50.231  1.00  0.00    -0.008 A 
HETATM   15  C11 UNL     1      23.616   6.943  50.681  1.00  0.00     0.014 A 
HETATM   16  C12 UNL     1      22.764   8.010  50.504  1.00  0.00     0.007 A 
HETATM   17  C13 UNL     1      21.593   7.778  49.816  1.00  0.00    -0.062 A 
HETATM   18  C14 UNL     1      20.635   8.892  49.596  1.00  0.00     0.048 C 
HETATM   19  C15 UNL     1      21.294   6.531  49.326  1.00  0.00     0.007 A 
HETATM   20  C16 UNL     1      22.210   5.534  49.555  1.00  0.00     0.014 A 
ENDBRANCH   9  14
BRANCH  12  21
HETATM   21  C17 UNL     1      26.048   1.517  52.306  1.00  0.00     0.127 A 
HETATM   22  N3  UNL     1      25.559   0.584  53.067  1.00  0.00    -0.215 NA
HETATM   23  C18 UNL     1      26.314   0.168  54.082  1.00  0.00     0.169 A 
HETATM   24  C19 UNL     1      27.664   0.654  54.446  1.00  0.00     0.109 A 
HETATM   25  S1  UNL     1      27.774   1.927  53.021  1.00  0.00    -0.075 SA
BRANCH  23  26
HETATM   26  O1  UNL     1      25.695  -0.848  54.850  1.00  0.00    -0.344 OA
HETATM   27  H17 UNL     1      25.297  -0.673  55.743  1.00  0.00     0.219 HD
ENDBRANCH  23  26
ENDBRANCH  12  21
TORSDOF 3
ENDMDL
MODEL 8
REMARK VINA RESULT:      -7.5      2.400      3.251
REMARK  3 active torsions:
REMARK  status: ('A' for Active; 'I' for Inactive)
REMARK    1  A    between atoms: C9_9  and  C10_10 
REMARK    2  A    between atoms: P1_19  and  C17_20 
REMARK    3  A    between atoms: C18_22  and  O1_23 
ROOT
HETATM    1  C1  UNL     1      26.375   3.557  49.334  1.00  0.00     0.049 C 
HETATM    2  C2  UNL     1      24.921   3.592  49.704  1.00  0.00    -0.051 C 
HETATM    3  C3  UNL     1      23.891   3.123  49.022  1.00  0.00    -0.022 C 
HETATM    4  C4  UNL     1      23.051   2.427  49.735  1.00  0.00     0.013 C 
HETATM    5  C5  UNL     1      22.368   3.378  50.627  1.00  0.00     0.097 A 
HETATM    6  C6  UNL     1      23.376   4.118  51.426  1.00  0.00    -0.058 C 
HETATM    7  C7  UNL     1      22.996   4.732  52.706  1.00  0.00     0.045 C 
HETATM    8  C8  UNL     1      24.645   4.242  50.999  1.00  0.00     0.012 C 
HETATM    9  C9  UNL     1      21.338   2.743  51.488  1.00  0.00     0.088 A 
HETATM   10  N1  UNL     1      20.113   3.057  51.509  1.00  0.00    -0.177 NA
HETATM   11  N2  UNL     1      19.771   4.080  50.636  1.00  0.00    -0.280 N 
HETATM   12  P1  UNL     1      21.236   4.519  49.713  1.00  0.00     0.086 P 
HETATM   13  H16 UNL     1      18.850   4.554  50.490  1.00  0.00     0.188 HD
ENDROOT
BRANCH   9  14
HETATM   14  C10 UNL     1      21.709   1.652  52.417  1.00  0.00    -0.008 A 
HETATM   15  C11 UNL     1      20.814   1.145  53.336  1.00  0.00     0.014 A 
HETATM   16  C12 UNL     1      21.062   0.136  54.239  1.00  0.00     0.007 A 
HETATM   17  C13 UNL     1      22.321  -0.424  54.233  1.00  0.00    -0.062 A 
HETATM   18  C14 UNL     1      22.647  -1.516  55.186  1.00  0.00     0.048 C 
HETATM   19  C15 UNL     1      23.285   0.010  53.356  1.00  0.00     0.007 A 
HETATM   20  C16 UNL     1      22.937   1.021  52.495  1.00  0.00     0.014 A 
ENDBRANCH   9  14
BRANCH  12  21
HETATM   21  C17 UNL     1      21.684   6.158  49.575  1.00  0.00     0.127 A 
HETATM   22  N3  UNL     1      22.766   6.877  49.512  1.00  0.00    -0.215 NA
HETATM   23  C18 UNL     1      22.615   8.195  49.402  1.00  0.00     0.169 A 
HETATM   24  C19 UNL     1      21.340   8.945  49.342  1.00  0.00     0.109 A 
HETATM   25  S1  UNL     1      20.227   7.393  49.475  1.00  0.00    -0.075 SA
BRANCH  23  26
HETATM   26  O1  UNL     1      23.849   8.888  49.341  1.00  0.00    -0.344 OA
HETATM   27  H17 UNL     1      24.446   8.844  48.549  1.00  0.00     0.219 HD
ENDBRANCH  23  26
ENDBRANCH  12  21
TORSDOF 3
ENDMDL
MODEL 9
REMARK VINA RESULT:      -7.4      3.165      3.963
REMARK  3 active torsions:
REMARK  status: ('A' for Active; 'I' for Inactive)
REMARK    1  A    between atoms: C9_9  and  C10_10 
REMARK    2  A    between atoms: P1_19  and  C17_20 
REMARK    3  A    between atoms: C18_22  and  O1_23 
ROOT
HETATM    1  C1  UNL     1      23.143   6.099  47.742  1.00  0.00     0.049 C 
HETATM    2  C2  UNL     1      22.781   4.903  48.572  1.00  0.00    -0.051 C 
HETATM    3  C3  UNL     1      22.692   3.641  48.193  1.00  0.00    -0.022 C 
HETATM    4  C4  UNL     1      23.280   2.799  48.996  1.00  0.00     0.013 C 
HETATM    5  C5  UNL     1      22.478   2.764  50.229  1.00  0.00     0.097 A 
HETATM    6  C6  UNL     1      22.352   4.137  50.776  1.00  0.00    -0.058 C 
HETATM    7  C7  UNL     1      22.062   4.339  52.202  1.00  0.00     0.045 C 
HETATM    8  C8  UNL     1      22.495   5.215  49.985  1.00  0.00     0.012 C 
HETATM    9  C9  UNL     1      22.999   1.812  51.243  1.00  0.00     0.088 A 
HETATM   10  N1  UNL     1      22.351   0.840  51.729  1.00  0.00    -0.177 NA
HETATM   11  N2  UNL     1      21.061   0.710  51.234  1.00  0.00    -0.280 N 
HETATM   12  P1  UNL     1      20.831   1.962  49.981  1.00  0.00     0.086 P 
HETATM   13  H16 UNL     1      20.310   0.031  51.496  1.00  0.00     0.188 HD
ENDROOT
BRANCH   9  14
HETATM   14  C10 UNL     1      24.375   1.955  51.768  1.00  0.00    -0.008 A 
HETATM   15  C11 UNL     1      24.663   1.798  53.108  1.00  0.00     0.014 A 
HETATM   16  C12 UNL     1      25.905   1.912  53.690  1.00  0.00     0.007 A 
HETATM   17  C13 UNL     1      26.966   2.213  52.865  1.00  0.00    -0.062 A 
HETATM   18  C14 UNL     1      28.330   2.349  53.438  1.00  0.00     0.048 C 
HETATM   19  C15 UNL     1      26.787   2.388  51.514  1.00  0.00     0.007 A 
HETATM   20  C16 UNL     1      25.508   2.253  51.032  1.00  0.00     0.014 A 
ENDBRANCH   9  14
BRANCH  12  21
HETATM   21  C17 UNL     1      19.441   2.949  50.021  1.00  0.00     0.127 A 
HETATM   22  N3  UNL     1      18.910   3.923  49.344  1.00  0.00    -0.215 NA
HETATM   23  C18 UNL     1      17.747   4.403  49.778  1.00  0.00     0.169 A 
HETATM   24  C19 UNL     1      16.979   3.948  50.959  1.00  0.00     0.109 A 
HETATM   25  S1  UNL     1      18.234   2.593  51.461  1.00  0.00    -0.075 SA
BRANCH  23  26
HETATM   26  O1  UNL     1      17.252   5.460  48.975  1.00  0.00    -0.344 OA
HETATM   27  H17 UNL     1      16.311   5.494  48.660  1.00  0.00     0.219 HD
ENDBRANCH  23  26
ENDBRANCH  12  21
TORSDOF 3
ENDMDL
