MODEL 1
REMARK VINA RESULT:      -9.1      0.000      0.000
REMARK  2 active torsions:
REMARK  status: ('A' for Active; 'I' for Inactive)
REMARK    1  A    between atoms: N1_1  and  C1_2 
REMARK    2  A    between atoms: C11_12  and  C12_13 
ROOT
HETATM    1  C1  UNL     1      23.682   3.040  51.701  1.00  0.00     0.058 C 
HETATM    2  C2  UNL     1      23.963   2.825  50.380  1.00  0.00    -0.035 C 
HETATM    3  C3  UNL     1      25.097   3.792  50.128  1.00  0.00     0.038 C 
HETATM    4  C4  UNL     1      26.406   3.029  50.193  1.00  0.00     0.005 C 
HETATM    5  C5  UNL     1      26.450   2.143  51.387  1.00  0.00    -0.019 C 
HETATM    6  C6  UNL     1      27.283   2.101  52.505  1.00  0.00     0.043 C 
HETATM    7  C7  UNL     1      27.121   1.088  53.604  1.00  0.00    -0.025 C 
HETATM    8  C8  UNL     1      26.451   0.011  54.101  1.00  0.00    -0.030 C 
HETATM    9  C9  UNL     1      25.457  -0.258  53.065  1.00  0.00     0.033 C 
HETATM   10  C10 UNL     1      24.043  -0.046  53.353  1.00  0.00     0.013 C 
HETATM   11  C11 UNL     1      22.845   0.568  53.253  1.00  0.00     0.083 C 
HETATM   12  C13 UNL     1      21.921   1.571  52.788  1.00  0.00     0.083 C 
HETATM   13  C14 UNL     1      22.293   2.679  51.898  1.00  0.00     0.173 C 
HETATM   14  N2  UNL     1      21.476   3.829  52.410  1.00  0.00    -0.244 NA
HETATM   15  C15 UNL     1      20.527   4.220  51.641  1.00  0.00     0.231 C 
HETATM   16  N3  UNL     1      19.982   3.887  50.345  1.00  0.00    -0.238 NA
HETATM   17  C16 UNL     1      20.621   2.925  49.711  1.00  0.00     0.208 C 
HETATM   18  N4  UNL     1      21.733   2.523  50.544  1.00  0.00    -0.338 N 
HETATM   19  C17 UNL     1      22.918   1.762  50.139  1.00  0.00     0.163 C 
ENDROOT
BRANCH  11  20
HETATM   20  C12 UNL     1      22.053  -0.307  54.193  1.00  0.00     0.397 C 
HETATM   21  F1  UNL     1      21.057   0.286  54.881  1.00  0.00    -0.170 F 
HETATM   22  F2  UNL     1      21.546  -1.353  53.433  1.00  0.00    -0.170 F 
HETATM   23  F3  UNL     1      22.930  -0.917  55.107  1.00  0.00    -0.170 F 
ENDBRANCH  11  20
BRANCH   1  24
HETATM   24  N1  UNL     1      24.336   3.520  52.903  1.00  0.00    -0.399 N 
HETATM   25  H1  UNL     1      23.548   3.368  53.600  1.00  0.00     0.156 HD
HETATM   26  H2  UNL     1      25.308   3.893  52.968  1.00  0.00     0.156 HD
ENDBRANCH   1  24
TORSDOF 2
ENDMDL
MODEL 2
REMARK VINA RESULT:      -8.1      2.191      3.348
REMARK  2 active torsions:
REMARK  status: ('A' for Active; 'I' for Inactive)
REMARK    1  A    between atoms: N1_1  and  C1_2 
REMARK    2  A    between atoms: C11_12  and  C12_13 
ROOT
HETATM    1  C1  UNL     1      24.680   3.236  51.969  1.00  0.00     0.058 C 
HETATM    2  C2  UNL     1      25.423   2.779  50.915  1.00  0.00    -0.035 C 
HETATM    3  C3  UNL     1      26.745   2.447  51.570  1.00  0.00     0.038 C 
HETATM    4  C4  UNL     1      26.793   0.953  51.829  1.00  0.00     0.005 C 
HETATM    5  C5  UNL     1      25.527   0.477  52.450  1.00  0.00    -0.019 C 
HETATM    6  C6  UNL     1      25.240  -0.120  53.677  1.00  0.00     0.043 C 
HETATM    7  C7  UNL     1      23.848  -0.517  54.083  1.00  0.00    -0.025 C 
HETATM    8  C8  UNL     1      22.525  -0.600  53.768  1.00  0.00    -0.030 C 
HETATM    9  C9  UNL     1      22.481  -0.059  52.413  1.00  0.00     0.033 C 
HETATM   10  C10 UNL     1      21.808   1.213  52.168  1.00  0.00     0.013 C 
HETATM   11  C11 UNL     1      21.731   2.525  51.863  1.00  0.00     0.083 C 
HETATM   12  C13 UNL     1      22.252   3.828  51.532  1.00  0.00     0.083 C 
HETATM   13  C14 UNL     1      23.684   4.133  51.420  1.00  0.00     0.173 C 
HETATM   14  N2  UNL     1      23.792   5.517  51.991  1.00  0.00    -0.244 NA
HETATM   15  C15 UNL     1      24.063   6.444  51.146  1.00  0.00     0.231 C 
HETATM   16  N3  UNL     1      24.331   6.571  49.732  1.00  0.00    -0.238 NA
HETATM   17  C16 UNL     1      24.338   5.432  49.070  1.00  0.00     0.208 C 
HETATM   18  N4  UNL     1      24.098   4.374  50.027  1.00  0.00    -0.338 N 
HETATM   19  C17 UNL     1      24.362   2.944  49.854  1.00  0.00     0.163 C 
ENDROOT
BRANCH  11  20
HETATM   20  C12 UNL     1      20.233   2.697  51.943  1.00  0.00     0.397 C 
HETATM   21  F1  UNL     1      19.768   3.962  51.958  1.00  0.00    -0.170 F 
HETATM   22  F2  UNL     1      19.693   2.005  50.867  1.00  0.00    -0.170 F 
HETATM   23  F3  UNL     1      19.752   2.028  53.082  1.00  0.00    -0.170 F 
ENDBRANCH  11  20
BRANCH   1  24
HETATM   24  N1  UNL     1      24.616   3.105  53.411  1.00  0.00    -0.399 N 
HETATM   25  H1  UNL     1      23.649   3.513  53.578  1.00  0.00     0.156 HD
HETATM   26  H2  UNL     1      25.359   2.708  54.027  1.00  0.00     0.156 HD
ENDBRANCH   1  24
TORSDOF 2
ENDMDL
MODEL 3
REMARK VINA RESULT:      -8.1      2.576      4.649
REMARK  2 active torsions:
REMARK  status: ('A' for Active; 'I' for Inactive)
REMARK    1  A    between atoms: N1_1  and  C1_2 
REMARK    2  A    between atoms: C11_12  and  C12_13 
ROOT
HETATM    1  C1  UNL     1      22.688   3.072  50.934  1.00  0.00     0.058 C 
HETATM    2  C2  UNL     1      22.096   3.967  51.783  1.00  0.00    -0.035 C 
HETATM    3  C3  UNL     1      20.632   3.825  51.435  1.00  0.00     0.038 C 
HETATM    4  C4  UNL     1      19.978   2.919  52.461  1.00  0.00     0.005 C 
HETATM    5  C5  UNL     1      20.797   1.700  52.697  1.00  0.00    -0.019 C 
HETATM    6  C6  UNL     1      20.550   0.341  52.503  1.00  0.00     0.043 C 
HETATM    7  C7  UNL     1      21.561  -0.724  52.824  1.00  0.00    -0.025 C 
HETATM    8  C8  UNL     1      22.794  -1.048  53.303  1.00  0.00    -0.030 C 
HETATM    9  C9  UNL     1      23.349   0.251  53.672  1.00  0.00     0.033 C 
HETATM   10  C10 UNL     1      24.480   0.788  52.923  1.00  0.00     0.013 C 
HETATM   11  C11 UNL     1      25.105   1.631  52.073  1.00  0.00     0.083 C 
HETATM   12  C13 UNL     1      25.193   2.727  51.142  1.00  0.00     0.083 C 
HETATM   13  C14 UNL     1      24.043   3.535  50.717  1.00  0.00     0.173 C 
HETATM   14  N2  UNL     1      24.322   3.805  49.267  1.00  0.00    -0.244 NA
HETATM   15  C15 UNL     1      24.617   5.019  48.977  1.00  0.00     0.231 C 
HETATM   16  N3  UNL     1      24.752   6.288  49.655  1.00  0.00    -0.238 NA
HETATM   17  C16 UNL     1      24.481   6.255  50.943  1.00  0.00     0.208 C 
HETATM   18  N4  UNL     1      24.084   4.902  51.266  1.00  0.00    -0.338 N 
HETATM   19  C17 UNL     1      23.360   4.448  52.456  1.00  0.00     0.163 C 
ENDROOT
BRANCH  11  20
HETATM   20  C12 UNL     1      26.497   1.052  52.150  1.00  0.00     0.397 C 
HETATM   21  F1  UNL     1      26.730  -0.066  51.435  1.00  0.00    -0.170 F 
HETATM   22  F2  UNL     1      27.369   2.058  51.755  1.00  0.00    -0.170 F 
HETATM   23  F3  UNL     1      26.820   0.801  53.495  1.00  0.00    -0.170 F 
ENDBRANCH  11  20
BRANCH   1  24
HETATM   24  N1  UNL     1      22.361   1.861  50.209  1.00  0.00    -0.399 N 
HETATM   25  H1  UNL     1      22.235   2.271  49.237  1.00  0.00     0.156 HD
HETATM   26  H2  UNL     1      22.293   0.900  50.611  1.00  0.00     0.156 HD
ENDBRANCH   1  24
TORSDOF 2
ENDMDL
MODEL 4
REMARK VINA RESULT:      -7.5      3.069      4.662
REMARK  2 active torsions:
REMARK  status: ('A' for Active; 'I' for Inactive)
REMARK    1  A    between atoms: N1_1  and  C1_2 
REMARK    2  A    between atoms: C11_12  and  C12_13 
ROOT
HETATM    1  C1  UNL     1      21.131   1.456  51.352  1.00  0.00     0.058 C 
HETATM    2  C2  UNL     1      20.472   1.923  52.456  1.00  0.00    -0.035 C 
HETATM    3  C3  UNL     1      19.929   0.653  53.071  1.00  0.00     0.038 C 
HETATM    4  C4  UNL     1      20.849   0.234  54.202  1.00  0.00     0.005 C 
HETATM    5  C5  UNL     1      22.275   0.293  53.782  1.00  0.00    -0.019 C 
HETATM    6  C6  UNL     1      23.271  -0.677  53.669  1.00  0.00     0.043 C 
HETATM    7  C7  UNL     1      24.667  -0.361  53.210  1.00  0.00    -0.025 C 
HETATM    8  C8  UNL     1      25.572   0.571  52.801  1.00  0.00    -0.030 C 
HETATM    9  C9  UNL     1      24.805   1.812  52.858  1.00  0.00     0.033 C 
HETATM   10  C10 UNL     1      24.478   2.512  51.620  1.00  0.00     0.013 C 
HETATM   11  C11 UNL     1      23.667   2.965  50.640  1.00  0.00     0.083 C 
HETATM   12  C13 UNL     1      22.415   3.134  49.947  1.00  0.00     0.083 C 
HETATM   13  C14 UNL     1      21.148   2.536  50.387  1.00  0.00     0.173 C 
HETATM   14  N2  UNL     1      20.475   2.155  49.101  1.00  0.00    -0.244 NA
HETATM   15  C15 UNL     1      19.438   2.846  48.794  1.00  0.00     0.231 C 
HETATM   16  N3  UNL     1      18.661   3.931  49.348  1.00  0.00    -0.238 NA
HETATM   17  C16 UNL     1      19.075   4.359  50.523  1.00  0.00     0.208 C 
HETATM   18  N4  UNL     1      20.205   3.541  50.907  1.00  0.00    -0.338 N 
HETATM   19  C17 UNL     1      20.775   3.388  52.248  1.00  0.00     0.163 C 
ENDROOT
BRANCH  11  20
HETATM   20  C12 UNL     1      24.696   3.679  49.796  1.00  0.00     0.397 C 
HETATM   21  F1  UNL     1      25.752   2.951  49.382  1.00  0.00    -0.170 F 
HETATM   22  F2  UNL     1      24.021   4.200  48.700  1.00  0.00    -0.170 F 
HETATM   23  F3  UNL     1      25.170   4.802  50.497  1.00  0.00    -0.170 F 
ENDBRANCH  11  20
BRANCH   1  24
HETATM   24  N1  UNL     1      21.772   0.244  50.883  1.00  0.00    -0.399 N 
HETATM   25  H1  UNL     1      20.924  -0.396  50.848  1.00  0.00     0.156 HD
HETATM   26  H2  UNL     1      22.786   0.127  50.666  1.00  0.00     0.156 HD
ENDBRANCH   1  24
TORSDOF 2
ENDMDL
MODEL 5
REMARK VINA RESULT:      -7.2     10.174     12.819
REMARK  2 active torsions:
REMARK  status: ('A' for Active; 'I' for Inactive)
REMARK    1  A    between atoms: N1_1  and  C1_2 
REMARK    2  A    between atoms: C11_12  and  C12_13 
ROOT
HETATM    1  C1  UNL     1      31.422   6.971  48.371  1.00  0.00     0.058 C 
HETATM    2  C2  UNL     1      30.761   6.205  47.450  1.00  0.00    -0.035 C 
HETATM    3  C3  UNL     1      29.714   5.514  48.293  1.00  0.00     0.038 C 
HETATM    4  C4  UNL     1      28.401   6.255  48.134  1.00  0.00     0.005 C 
HETATM    5  C5  UNL     1      28.595   7.724  48.266  1.00  0.00    -0.019 C 
HETATM    6  C6  UNL     1      28.108   8.666  49.172  1.00  0.00     0.043 C 
HETATM    7  C7  UNL     1      28.459  10.126  49.095  1.00  0.00    -0.025 C 
HETATM    8  C8  UNL     1      29.119  11.130  48.452  1.00  0.00    -0.030 C 
HETATM    9  C9  UNL     1      29.749  10.437  47.332  1.00  0.00     0.033 C 
HETATM   10  C10 UNL     1      31.202  10.312  47.288  1.00  0.00     0.013 C 
HETATM   11  C11 UNL     1      32.383   9.662  47.347  1.00  0.00     0.083 C 
HETATM   12  C13 UNL     1      33.245   8.521  47.527  1.00  0.00     0.083 C 
HETATM   13  C14 UNL     1      32.762   7.175  47.861  1.00  0.00     0.173 C 
HETATM   14  N2  UNL     1      33.810   6.650  48.800  1.00  0.00    -0.244 NA
HETATM   15  C15 UNL     1      34.543   5.704  48.337  1.00  0.00     0.231 C 
HETATM   16  N3  UNL     1      34.665   4.928  47.125  1.00  0.00    -0.238 NA
HETATM   17  C16 UNL     1      33.774   5.213  46.198  1.00  0.00     0.208 C 
HETATM   18  N4  UNL     1      32.902   6.234  46.736  1.00  0.00    -0.338 N 
HETATM   19  C17 UNL     1      31.575   6.618  46.247  1.00  0.00     0.163 C 
ENDROOT
BRANCH  11  20
HETATM   20  C12 UNL     1      33.306  10.831  47.099  1.00  0.00     0.397 C 
HETATM   21  F1  UNL     1      33.007  11.984  47.728  1.00  0.00    -0.170 F 
HETATM   22  F2  UNL     1      34.582  10.414  47.454  1.00  0.00    -0.170 F 
HETATM   23  F3  UNL     1      33.378  11.078  45.717  1.00  0.00    -0.170 F 
ENDBRANCH  11  20
BRANCH   1  24
HETATM   24  N1  UNL     1      31.185   7.593  49.658  1.00  0.00    -0.399 N 
HETATM   25  H1  UNL     1      31.849   7.015  50.253  1.00  0.00     0.156 HD
HETATM   26  H2  UNL     1      30.530   8.382  49.851  1.00  0.00     0.156 HD
ENDBRANCH   1  24
TORSDOF 2
ENDMDL
MODEL 6
REMARK VINA RESULT:      -7.2      2.422      4.046
REMARK  2 active torsions:
REMARK  status: ('A' for Active; 'I' for Inactive)
REMARK    1  A    between atoms: N1_1  and  C1_2 
REMARK    2  A    between atoms: C11_12  and  C12_13 
ROOT
HETATM    1  C1  UNL     1      22.254   3.602  50.524  1.00  0.00     0.058 C 
HETATM    2  C2  UNL     1      21.713   3.240  49.321  1.00  0.00    -0.035 C 
HETATM    3  C3  UNL     1      21.209   4.559  48.781  1.00  0.00     0.038 C 
HETATM    4  C4  UNL     1      22.226   5.094  47.791  1.00  0.00     0.005 C 
HETATM    5  C5  UNL     1      23.606   5.006  48.341  1.00  0.00    -0.019 C 
HETATM    6  C6  UNL     1      24.569   5.968  48.644  1.00  0.00     0.043 C 
HETATM    7  C7  UNL     1      25.920   5.621  49.204  1.00  0.00    -0.025 C 
HETATM    8  C8  UNL     1      26.797   4.660  49.609  1.00  0.00    -0.030 C 
HETATM    9  C9  UNL     1      26.061   3.424  49.358  1.00  0.00     0.033 C 
HETATM   10  C10 UNL     1      25.628   2.605  50.485  1.00  0.00     0.013 C 
HETATM   11  C11 UNL     1      24.735   2.052  51.332  1.00  0.00     0.083 C 
HETATM   12  C13 UNL     1      23.425   1.806  51.881  1.00  0.00     0.083 C 
HETATM   13  C14 UNL     1      22.196   2.433  51.378  1.00  0.00     0.173 C 
HETATM   14  N2  UNL     1      21.395   2.681  52.623  1.00  0.00    -0.244 NA
HETATM   15  C15 UNL     1      20.346   1.955  52.759  1.00  0.00     0.231 C 
HETATM   16  N3  UNL     1      19.645   0.924  52.030  1.00  0.00    -0.238 NA
HETATM   17  C16 UNL     1      20.178   0.616  50.865  1.00  0.00     0.208 C 
HETATM   18  N4  UNL     1      21.325   1.476  50.674  1.00  0.00    -0.338 N 
HETATM   19  C17 UNL     1      22.019   1.764  49.416  1.00  0.00     0.163 C 
ENDROOT
BRANCH  11  20
HETATM   20  C12 UNL     1      25.690   1.267  52.200  1.00  0.00     0.397 C 
HETATM   21  F1  UNL     1      26.228   1.918  53.251  1.00  0.00    -0.170 F 
HETATM   22  F2  UNL     1      25.000   0.145  52.640  1.00  0.00    -0.170 F 
HETATM   23  F3  UNL     1      26.732   0.762  51.402  1.00  0.00    -0.170 F 
ENDBRANCH  11  20
BRANCH   1  24
HETATM   24  N1  UNL     1      22.825   4.768  51.169  1.00  0.00    -0.399 N 
HETATM   25  H1  UNL     1      23.371   4.287  51.942  1.00  0.00     0.156 HD
HETATM   26  H2  UNL     1      22.683   5.762  50.883  1.00  0.00     0.156 HD
ENDBRANCH   1  24
TORSDOF 2
ENDMDL
MODEL 7
REMARK VINA RESULT:      -7.1      3.068      4.860
REMARK  2 active torsions:
REMARK  status: ('A' for Active; 'I' for Inactive)
REMARK    1  A    between atoms: N1_1  and  C1_2 
REMARK    2  A    between atoms: C11_12  and  C12_13 
ROOT
HETATM    1  C1  UNL     1      20.798   1.474  50.624  1.00  0.00     0.058 C 
HETATM    2  C2  UNL     1      19.896   1.889  51.565  1.00  0.00    -0.035 C 
HETATM    3  C3  UNL     1      19.233   0.593  51.973  1.00  0.00     0.038 C 
HETATM    4  C4  UNL     1      19.866   0.114  53.265  1.00  0.00     0.005 C 
HETATM    5  C5  UNL     1      21.350   0.187  53.194  1.00  0.00    -0.019 C 
HETATM    6  C6  UNL     1      22.351  -0.781  53.270  1.00  0.00     0.043 C 
HETATM    7  C7  UNL     1      23.814  -0.449  53.167  1.00  0.00    -0.025 C 
HETATM    8  C8  UNL     1      24.783   0.498  53.027  1.00  0.00    -0.030 C 
HETATM    9  C9  UNL     1      24.016   1.738  52.963  1.00  0.00     0.033 C 
HETATM   10  C10 UNL     1      23.982   2.500  51.719  1.00  0.00     0.013 C 
HETATM   11  C11 UNL     1      23.420   3.005  50.600  1.00  0.00     0.083 C 
HETATM   12  C13 UNL     1      22.363   3.213  49.642  1.00  0.00     0.083 C 
HETATM   13  C14 UNL     1      21.033   2.601  49.745  1.00  0.00     0.173 C 
HETATM   14  N2  UNL     1      20.682   2.287  48.319  1.00  0.00    -0.244 NA
HETATM   15  C15 UNL     1      19.741   2.997  47.812  1.00  0.00     0.231 C 
HETATM   16  N3  UNL     1      18.848   4.057  48.222  1.00  0.00    -0.238 NA
HETATM   17  C16 UNL     1      18.973   4.424  49.480  1.00  0.00     0.208 C 
HETATM   18  N4  UNL     1      19.987   3.583  50.078  1.00  0.00    -0.338 N 
HETATM   19  C17 UNL     1      20.229   3.361  51.505  1.00  0.00     0.163 C 
ENDROOT
BRANCH  11  20
HETATM   20  C12 UNL     1      24.612   3.754  50.056  1.00  0.00     0.397 C 
HETATM   21  F1  UNL     1      24.488   4.277  48.820  1.00  0.00    -0.170 F 
HETATM   22  F2  UNL     1      24.902   4.760  50.969  1.00  0.00    -0.170 F 
HETATM   23  F3  UNL     1      25.737   2.911  50.077  1.00  0.00    -0.170 F 
ENDBRANCH  11  20
BRANCH   1  24
HETATM   24  N1  UNL     1      21.539   0.284  50.259  1.00  0.00    -0.399 N 
HETATM   25  H1  UNL     1      22.516   0.597  50.537  1.00  0.00     0.156 HD
HETATM   26  H2  UNL     1      21.141  -0.588  49.845  1.00  0.00     0.156 HD
ENDBRANCH   1  24
TORSDOF 2
ENDMDL
MODEL 8
REMARK VINA RESULT:      -7.1      3.284      5.064
REMARK  2 active torsions:
REMARK  status: ('A' for Active; 'I' for Inactive)
REMARK    1  A    between atoms: N1_1  and  C1_2 
REMARK    2  A    between atoms: C11_12  and  C12_13 
ROOT
HETATM    1  C1  UNL     1      24.207   3.595  51.526  1.00  0.00     0.058 C 
HETATM    2  C2  UNL     1      25.341   2.936  51.136  1.00  0.00    -0.035 C 
HETATM    3  C3  UNL     1      25.864   2.387  52.444  1.00  0.00     0.038 C 
HETATM    4  C4  UNL     1      25.451   0.932  52.555  1.00  0.00     0.005 C 
HETATM    5  C5  UNL     1      24.015   0.755  52.207  1.00  0.00    -0.019 C 
HETATM    6  C6  UNL     1      22.913   0.302  52.932  1.00  0.00     0.043 C 
HETATM    7  C7  UNL     1      21.532   0.214  52.344  1.00  0.00    -0.025 C 
HETATM    8  C8  UNL     1      20.716   0.379  51.266  1.00  0.00    -0.030 C 
HETATM    9  C9  UNL     1      21.638   0.837  50.230  1.00  0.00     0.033 C 
HETATM   10  C10 UNL     1      21.527   2.200  49.722  1.00  0.00     0.013 C 
HETATM   11  C11 UNL     1      21.913   3.481  49.542  1.00  0.00     0.083 C 
HETATM   12  C13 UNL     1      22.763   4.632  49.716  1.00  0.00     0.083 C 
HETATM   13  C14 UNL     1      23.972   4.638  50.549  1.00  0.00     0.173 C 
HETATM   14  N2  UNL     1      23.962   6.004  51.171  1.00  0.00    -0.244 NA
HETATM   15  C15 UNL     1      24.874   6.806  50.759  1.00  0.00     0.231 C 
HETATM   16  N3  UNL     1      25.988   6.793  49.840  1.00  0.00    -0.238 NA
HETATM   17  C16 UNL     1      26.191   5.639  49.239  1.00  0.00     0.208 C 
HETATM   18  N4  UNL     1      25.206   4.709  49.746  1.00  0.00    -0.338 N 
HETATM   19  C17 UNL     1      25.238   3.247  49.662  1.00  0.00     0.163 C 
ENDROOT
BRANCH  11  20
HETATM   20  C12 UNL     1      20.765   3.953  48.682  1.00  0.00     0.397 C 
HETATM   21  F1  UNL     1      20.945   5.107  48.010  1.00  0.00    -0.170 F 
HETATM   22  F2  UNL     1      20.485   2.925  47.791  1.00  0.00    -0.170 F 
HETATM   23  F3  UNL     1      19.610   4.070  49.475  1.00  0.00    -0.170 F 
ENDBRANCH  11  20
BRANCH   1  24
HETATM   24  N1  UNL     1      23.228   3.565  52.595  1.00  0.00    -0.399 N 
HETATM   25  H1  UNL     1      23.560   4.404  53.156  1.00  0.00     0.156 HD
HETATM   26  H2  UNL     1      22.452   2.875  52.700  1.00  0.00     0.156 HD
ENDBRANCH   1  24
TORSDOF 2
ENDMDL
MODEL 9
REMARK VINA RESULT:      -7.0      3.998      5.743
REMARK  2 active torsions:
REMARK  status: ('A' for Active; 'I' for Inactive)
REMARK    1  A    between atoms: N1_1  and  C1_2 
REMARK    2  A    between atoms: C11_12  and  C12_13 
ROOT
HETATM    1  C1  UNL     1      23.326   6.468  50.732  1.00  0.00     0.058 C 
HETATM    2  C2  UNL     1      22.456   6.804  49.731  1.00  0.00    -0.035 C 
HETATM    3  C3  UNL     1      22.249   8.283  49.963  1.00  0.00     0.038 C 
HETATM    4  C4  UNL     1      23.137   9.052  49.004  1.00  0.00     0.005 C 
HETATM    5  C5  UNL     1      24.518   8.497  48.993  1.00  0.00    -0.019 C 
HETATM    6  C6  UNL     1      25.759   9.039  49.329  1.00  0.00     0.043 C 
HETATM    7  C7  UNL     1      27.040   8.259  49.232  1.00  0.00    -0.025 C 
HETATM    8  C8  UNL     1      27.670   7.096  48.906  1.00  0.00    -0.030 C 
HETATM    9  C9  UNL     1      26.574   6.257  48.431  1.00  0.00     0.033 C 
HETATM   10  C10 UNL     1      26.179   5.085  49.204  1.00  0.00     0.013 C 
HETATM   11  C11 UNL     1      25.370   4.348  49.995  1.00  0.00     0.083 C 
HETATM   12  C13 UNL     1      24.196   4.085  50.789  1.00  0.00     0.083 C 
HETATM   13  C14 UNL     1      23.121   5.061  51.009  1.00  0.00     0.173 C 
HETATM   14  N2  UNL     1      22.715   4.819  52.434  1.00  0.00    -0.244 NA
HETATM   15  C15 UNL     1      21.557   4.291  52.596  1.00  0.00     0.231 C 
HETATM   16  N3  UNL     1      20.448   3.849  51.782  1.00  0.00    -0.238 NA
HETATM   17  C16 UNL     1      20.605   4.043  50.489  1.00  0.00     0.208 C 
HETATM   18  N4  UNL     1      21.881   4.698  50.302  1.00  0.00    -0.338 N 
HETATM   19  C17 UNL     1      22.339   5.429  49.117  1.00  0.00     0.163 C 
ENDROOT
BRANCH  11  20
HETATM   20  C12 UNL     1      26.223   3.108  50.113  1.00  0.00     0.397 C 
HETATM   21  F1  UNL     1      26.888   2.722  49.006  1.00  0.00    -0.170 F 
HETATM   22  F2  UNL     1      27.120   3.336  51.148  1.00  0.00    -0.170 F 
HETATM   23  F3  UNL     1      25.425   2.038  50.554  1.00  0.00    -0.170 F 
ENDBRANCH  11  20
BRANCH   1  24
HETATM   24  N1  UNL     1      24.334   7.087  51.569  1.00  0.00    -0.399 N 
HETATM   25  H1  UNL     1      24.922   7.552  50.816  1.00  0.00     0.156 HD
HETATM   26  H2  UNL     1      24.386   7.037  52.611  1.00  0.00     0.156 HD
ENDBRANCH   1  24
TORSDOF 2
ENDMDL
