MODEL 1
REMARK VINA RESULT:      -6.8      0.000      0.000
REMARK  2 active torsions:
REMARK  status: ('A' for Active; 'I' for Inactive)
REMARK    1  A    between atoms: C12_14  and  C13_15 
REMARK    2  A    between atoms: C15_17  and  S1_18 
ROOT
HETATM    1  C1  UNL     1      21.526   1.031  48.566  1.00  0.00     0.043 C 
HETATM    2  C2  UNL     1      22.395   1.822  49.541  1.00  0.00    -0.083 C 
HETATM    3  C3  UNL     1      23.203   2.790  49.022  1.00  0.00    -0.018 C 
HETATM    4  C4  UNL     1      24.242   3.913  49.095  1.00  0.00     0.083 C 
HETATM    5  C5  UNL     1      24.780   3.951  50.502  1.00  0.00     0.032 C 
HETATM    6  C6  UNL     1      25.926   2.984  50.652  1.00  0.00     0.068 C 
HETATM    7  N1  UNL     1      24.066   4.777  51.157  1.00  0.00    -0.184 NA
HETATM    8  N2  UNL     1      24.159   5.139  52.496  1.00  0.00    -0.278 N 
HETATM    9  C7  UNL     1      23.769   3.714  52.619  1.00  0.00     0.063 A 
HETATM   10  C8  UNL     1      24.673   2.956  53.380  1.00  0.00     0.032 A 
HETATM   11  C9  UNL     1      24.640   1.549  53.418  1.00  0.00     0.003 A 
HETATM   12  C10 UNL     1      23.676   0.901  52.665  1.00  0.00     0.008 A 
HETATM   13  C11 UNL     1      22.854   1.738  51.969  1.00  0.00    -0.039 A 
HETATM   14  C12 UNL     1      22.764   3.076  51.857  1.00  0.00     0.028 A 
HETATM   15  C16 UNL     1      22.003   1.190  50.869  1.00  0.00     0.073 C 
HETATM   16  H10 UNL     1      24.252   5.496  53.460  1.00  0.00     0.189 HD
ENDROOT
BRANCH  14  17
HETATM   17  C13 UNL     1      21.716   3.869  51.242  1.00  0.00     0.073 A 
HETATM   18  C14 UNL     1      20.401   3.821  51.137  1.00  0.00     0.071 A 
HETATM   19  C15 UNL     1      20.330   5.033  50.348  1.00  0.00     0.093 A 
HETATM   20  N3  UNL     1      21.606   5.073  50.452  1.00  0.00    -0.241 NA
BRANCH  19  21
HETATM   21  S1  UNL     1      19.271   6.189  49.495  1.00  0.00    -0.123 SA
HETATM   22  H15 UNL     1      20.002   6.828  48.467  1.00  0.00     0.108 HD
ENDBRANCH  19  21
ENDBRANCH  14  17
TORSDOF 2
ENDMDL
MODEL 2
REMARK VINA RESULT:      -6.7      2.449      4.156
REMARK  2 active torsions:
REMARK  status: ('A' for Active; 'I' for Inactive)
REMARK    1  A    between atoms: C12_14  and  C13_15 
REMARK    2  A    between atoms: C15_17  and  S1_18 
ROOT
HETATM    1  C1  UNL     1      21.591   1.390  48.685  1.00  0.00     0.043 C 
HETATM    2  C2  UNL     1      22.043   2.574  49.535  1.00  0.00    -0.083 C 
HETATM    3  C3  UNL     1      21.191   3.016  50.504  1.00  0.00    -0.018 C 
HETATM    4  C4  UNL     1      20.758   3.926  51.656  1.00  0.00     0.083 C 
HETATM    5  C5  UNL     1      21.761   5.045  51.762  1.00  0.00     0.032 C 
HETATM    6  C6  UNL     1      21.392   6.172  50.833  1.00  0.00     0.068 C 
HETATM    7  N1  UNL     1      22.652   4.674  52.593  1.00  0.00    -0.184 NA
HETATM    8  N2  UNL     1      23.792   5.353  53.009  1.00  0.00    -0.278 N 
HETATM    9  C7  UNL     1      24.111   5.122  51.580  1.00  0.00     0.063 A 
HETATM   10  C8  UNL     1      24.391   6.303  50.876  1.00  0.00     0.032 A 
HETATM   11  C9  UNL     1      24.471   6.349  49.471  1.00  0.00     0.003 A 
HETATM   12  C10 UNL     1      24.256   5.176  48.768  1.00  0.00     0.008 A 
HETATM   13  C11 UNL     1      23.995   4.093  49.556  1.00  0.00    -0.039 A 
HETATM   14  C12 UNL     1      23.907   3.906  50.886  1.00  0.00     0.028 A 
HETATM   15  C16 UNL     1      23.417   2.857  48.944  1.00  0.00     0.073 C 
HETATM   16  H10 UNL     1      24.599   5.861  53.405  1.00  0.00     0.189 HD
ENDROOT
BRANCH  14  17
HETATM   17  C13 UNL     1      23.822   2.662  51.626  1.00  0.00     0.073 A 
HETATM   18  C14 UNL     1      24.385   1.469  51.583  1.00  0.00     0.071 A 
HETATM   19  C15 UNL     1      23.629   0.971  52.713  1.00  0.00     0.093 A 
HETATM   20  N3  UNL     1      23.085   2.130  52.749  1.00  0.00    -0.241 NA
BRANCH  19  21
HETATM   21  S1  UNL     1      23.311  -0.415  53.792  1.00  0.00    -0.123 SA
HETATM   22  H15 UNL     1      22.149  -1.093  53.357  1.00  0.00     0.108 HD
ENDBRANCH  19  21
ENDBRANCH  14  17
TORSDOF 2
ENDMDL
MODEL 3
REMARK VINA RESULT:      -6.5      2.243      4.347
REMARK  2 active torsions:
REMARK  status: ('A' for Active; 'I' for Inactive)
REMARK    1  A    between atoms: C12_14  and  C13_15 
REMARK    2  A    between atoms: C15_17  and  S1_18 
ROOT
HETATM    1  C1  UNL     1      25.541   2.486  53.809  1.00  0.00     0.043 C 
HETATM    2  C2  UNL     1      24.353   2.638  52.862  1.00  0.00    -0.083 C 
HETATM    3  C3  UNL     1      23.762   3.865  52.785  1.00  0.00    -0.018 C 
HETATM    4  C4  UNL     1      22.736   4.877  52.269  1.00  0.00     0.083 C 
HETATM    5  C5  UNL     1      21.721   4.126  51.447  1.00  0.00     0.032 C 
HETATM    6  C6  UNL     1      20.628   3.583  52.330  1.00  0.00     0.068 C 
HETATM    7  N1  UNL     1      22.123   4.149  50.239  1.00  0.00    -0.184 NA
HETATM    8  N2  UNL     1      21.538   3.577  49.114  1.00  0.00    -0.278 N 
HETATM    9  C7  UNL     1      21.897   2.365  49.888  1.00  0.00     0.063 A 
HETATM   10  C8  UNL     1      20.801   1.528  50.148  1.00  0.00     0.032 A 
HETATM   11  C9  UNL     1      20.859   0.465  51.069  1.00  0.00     0.003 A 
HETATM   12  C10 UNL     1      22.049   0.252  51.743  1.00  0.00     0.008 A 
HETATM   13  C11 UNL     1      23.044   1.124  51.409  1.00  0.00    -0.039 A 
HETATM   14  C12 UNL     1      23.130   2.156  50.550  1.00  0.00     0.028 A 
HETATM   15  C16 UNL     1      24.253   1.234  52.281  1.00  0.00     0.073 C 
HETATM   16  H10 UNL     1      21.089   3.242  48.247  1.00  0.00     0.189 HD
ENDROOT
BRANCH  14  17
HETATM   17  C13 UNL     1      24.306   2.893  50.127  1.00  0.00     0.073 A 
HETATM   18  C14 UNL     1      25.611   2.697  50.095  1.00  0.00     0.071 A 
HETATM   19  C15 UNL     1      25.882   3.997  49.516  1.00  0.00     0.093 A 
HETATM   20  N3  UNL     1      24.614   4.181  49.551  1.00  0.00    -0.241 NA
BRANCH  19  21
HETATM   21  S1  UNL     1      27.130   5.126  48.921  1.00  0.00    -0.123 SA
HETATM   22  H15 UNL     1      26.749   5.625  47.654  1.00  0.00     0.108 HD
ENDBRANCH  19  21
ENDBRANCH  14  17
TORSDOF 2
ENDMDL
MODEL 4
REMARK VINA RESULT:      -6.2     10.105     11.548
REMARK  2 active torsions:
REMARK  status: ('A' for Active; 'I' for Inactive)
REMARK    1  A    between atoms: C12_14  and  C13_15 
REMARK    2  A    between atoms: C15_17  and  S1_18 
ROOT
HETATM    1  C1  UNL     1      34.291   8.994  44.841  1.00  0.00     0.043 C 
HETATM    2  C2  UNL     1      33.930   7.900  45.842  1.00  0.00    -0.083 C 
HETATM    3  C3  UNL     1      34.533   7.941  47.065  1.00  0.00    -0.018 C 
HETATM    4  C4  UNL     1      34.821   7.443  48.484  1.00  0.00     0.083 C 
HETATM    5  C5  UNL     1      34.162   6.097  48.642  1.00  0.00     0.032 C 
HETATM    6  C6  UNL     1      35.076   5.004  48.155  1.00  0.00     0.068 C 
HETATM    7  N1  UNL     1      32.997   6.302  49.115  1.00  0.00    -0.184 NA
HETATM    8  N2  UNL     1      32.003   5.377  49.416  1.00  0.00    -0.278 N 
HETATM    9  C7  UNL     1      32.083   5.231  47.943  1.00  0.00     0.063 A 
HETATM   10  C8  UNL     1      32.348   3.916  47.529  1.00  0.00     0.032 A 
HETATM   11  C9  UNL     1      32.712   3.595  46.208  1.00  0.00     0.003 A 
HETATM   12  C10 UNL     1      32.814   4.628  45.292  1.00  0.00     0.008 A 
HETATM   13  C11 UNL     1      32.532   5.860  45.805  1.00  0.00    -0.039 A 
HETATM   14  C12 UNL     1      32.162   6.301  47.022  1.00  0.00     0.028 A 
HETATM   15  C16 UNL     1      32.923   7.085  45.043  1.00  0.00     0.073 C 
HETATM   16  H10 UNL     1      31.277   4.714  49.732  1.00  0.00     0.189 HD
ENDROOT
BRANCH  14  17
HETATM   17  C13 UNL     1      31.690   7.618  47.408  1.00  0.00     0.073 A 
HETATM   18  C14 UNL     1      31.000   8.599  46.857  1.00  0.00     0.071 A 
HETATM   19  C15 UNL     1      31.082   9.439  48.034  1.00  0.00     0.093 A 
HETATM   20  N3  UNL     1      31.753   8.483  48.563  1.00  0.00    -0.241 NA
BRANCH  19  21
HETATM   21  S1  UNL     1      30.642  11.001  48.777  1.00  0.00    -0.123 SA
HETATM   22  H15 UNL     1      31.425  12.031  48.206  1.00  0.00     0.108 HD
ENDBRANCH  19  21
ENDBRANCH  14  17
TORSDOF 2
ENDMDL
MODEL 5
REMARK VINA RESULT:      -6.2      2.618      4.584
REMARK  2 active torsions:
REMARK  status: ('A' for Active; 'I' for Inactive)
REMARK    1  A    between atoms: C12_14  and  C13_15 
REMARK    2  A    between atoms: C15_17  and  S1_18 
ROOT
HETATM    1  C1  UNL     1      26.392   3.327  49.487  1.00  0.00     0.043 C 
HETATM    2  C2  UNL     1      24.974   3.837  49.730  1.00  0.00    -0.083 C 
HETATM    3  C3  UNL     1      23.949   3.153  49.146  1.00  0.00    -0.018 C 
HETATM    4  C4  UNL     1      22.480   2.876  48.815  1.00  0.00     0.083 C 
HETATM    5  C5  UNL     1      21.667   4.040  49.319  1.00  0.00     0.032 C 
HETATM    6  C6  UNL     1      21.615   5.132  48.283  1.00  0.00     0.068 C 
HETATM    7  N1  UNL     1      21.295   3.754  50.504  1.00  0.00    -0.184 NA
HETATM    8  N2  UNL     1      20.542   4.518  51.389  1.00  0.00    -0.278 N 
HETATM    9  C7  UNL     1      21.769   5.344  51.282  1.00  0.00     0.063 A 
HETATM   10  C8  UNL     1      21.516   6.660  50.866  1.00  0.00     0.032 A 
HETATM   11  C9  UNL     1      22.539   7.537  50.458  1.00  0.00     0.003 A 
HETATM   12  C10 UNL     1      23.841   7.066  50.466  1.00  0.00     0.008 A 
HETATM   13  C11 UNL     1      23.966   5.776  50.889  1.00  0.00    -0.039 A 
HETATM   14  C12 UNL     1      23.092   4.845  51.316  1.00  0.00     0.028 A 
HETATM   15  C16 UNL     1      25.238   5.034  50.633  1.00  0.00     0.073 C 
HETATM   16  H10 UNL     1      19.915   5.018  52.038  1.00  0.00     0.189 HD
ENDROOT
BRANCH  14  17
HETATM   17  C13 UNL     1      23.360   3.562  51.937  1.00  0.00     0.073 A 
HETATM   18  C14 UNL     1      24.258   3.053  52.759  1.00  0.00     0.071 A 
HETATM   19  C15 UNL     1      23.654   1.736  52.747  1.00  0.00     0.093 A 
HETATM   20  N3  UNL     1      22.787   2.236  51.948  1.00  0.00    -0.241 NA
BRANCH  19  21
HETATM   21  S1  UNL     1      23.736   0.060  53.356  1.00  0.00    -0.123 SA
HETATM   22  H15 UNL     1      24.870  -0.584  52.810  1.00  0.00     0.108 HD
ENDBRANCH  19  21
ENDBRANCH  14  17
TORSDOF 2
ENDMDL
MODEL 6
REMARK VINA RESULT:      -6.1      1.917      3.257
REMARK  2 active torsions:
REMARK  status: ('A' for Active; 'I' for Inactive)
REMARK    1  A    between atoms: C12_14  and  C13_15 
REMARK    2  A    between atoms: C15_17  and  S1_18 
ROOT
HETATM    1  C1  UNL     1      26.399   5.197  48.921  1.00  0.00     0.043 C 
HETATM    2  C2  UNL     1      25.377   4.638  49.908  1.00  0.00    -0.083 C 
HETATM    3  C3  UNL     1      24.474   5.510  50.442  1.00  0.00    -0.018 C 
HETATM    4  C4  UNL     1      23.291   5.908  51.328  1.00  0.00     0.083 C 
HETATM    5  C5  UNL     1      22.944   4.724  52.193  1.00  0.00     0.032 C 
HETATM    6  C6  UNL     1      23.782   4.723  53.444  1.00  0.00     0.068 C 
HETATM    7  N1  UNL     1      22.057   4.052  51.573  1.00  0.00    -0.184 NA
HETATM    8  N2  UNL     1      21.435   2.868  51.954  1.00  0.00    -0.278 N 
HETATM    9  C7  UNL     1      22.832   2.405  51.776  1.00  0.00     0.063 A 
HETATM   10  C8  UNL     1      23.365   1.795  52.923  1.00  0.00     0.032 A 
HETATM   11  C9  UNL     1      24.736   1.512  53.064  1.00  0.00     0.003 A 
HETATM   12  C10 UNL     1      25.583   1.859  52.026  1.00  0.00     0.008 A 
HETATM   13  C11 UNL     1      24.955   2.442  50.964  1.00  0.00    -0.039 A 
HETATM   14  C12 UNL     1      23.674   2.752  50.694  1.00  0.00     0.028 A 
HETATM   15  C16 UNL     1      25.763   3.166  49.936  1.00  0.00     0.073 C 
HETATM   16  H10 UNL     1      20.892   2.039  52.243  1.00  0.00     0.189 HD
ENDROOT
BRANCH  14  17
HETATM   17  C13 UNL     1      23.089   3.190  49.441  1.00  0.00     0.073 A 
HETATM   18  C14 UNL     1      23.160   2.849  48.167  1.00  0.00     0.071 A 
HETATM   19  C15 UNL     1      22.228   3.876  47.748  1.00  0.00     0.093 A 
HETATM   20  N3  UNL     1      22.165   4.203  48.985  1.00  0.00    -0.241 NA
BRANCH  19  21
HETATM   21  S1  UNL     1      21.364   4.626  46.378  1.00  0.00    -0.123 SA
HETATM   22  H15 UNL     1      20.623   5.737  46.840  1.00  0.00     0.108 HD
ENDBRANCH  19  21
ENDBRANCH  14  17
TORSDOF 2
ENDMDL
MODEL 7
REMARK VINA RESULT:      -6.0      5.649      7.168
REMARK  2 active torsions:
REMARK  status: ('A' for Active; 'I' for Inactive)
REMARK    1  A    between atoms: C12_14  and  C13_15 
REMARK    2  A    between atoms: C15_17  and  S1_18 
ROOT
HETATM    1  C1  UNL     1      25.457   8.850  44.604  1.00  0.00     0.043 C 
HETATM    2  C2  UNL     1      25.787   8.417  46.030  1.00  0.00    -0.083 C 
HETATM    3  C3  UNL     1      27.097   8.447  46.410  1.00  0.00    -0.018 C 
HETATM    4  C4  UNL     1      28.259   8.260  47.389  1.00  0.00     0.083 C 
HETATM    5  C5  UNL     1      27.722   7.563  48.613  1.00  0.00     0.032 C 
HETATM    6  C6  UNL     1      27.745   6.069  48.419  1.00  0.00     0.068 C 
HETATM    7  N1  UNL     1      27.373   8.467  49.439  1.00  0.00    -0.184 NA
HETATM    8  N2  UNL     1      26.805   8.324  50.700  1.00  0.00    -0.278 N 
HETATM    9  C7  UNL     1      25.722   7.782  49.843  1.00  0.00     0.063 A 
HETATM   10  C8  UNL     1      25.349   6.473  50.182  1.00  0.00     0.032 A 
HETATM   11  C9  UNL     1      24.531   5.679  49.357  1.00  0.00     0.003 A 
HETATM   12  C10 UNL     1      24.089   6.222  48.163  1.00  0.00     0.008 A 
HETATM   13  C11 UNL     1      24.512   7.499  47.940  1.00  0.00    -0.039 A 
HETATM   14  C12 UNL     1      25.269   8.367  48.638  1.00  0.00     0.028 A 
HETATM   15  C16 UNL     1      24.403   8.085  46.569  1.00  0.00     0.073 C 
HETATM   16  H10 UNL     1      26.464   8.254  51.672  1.00  0.00     0.189 HD
ENDROOT
BRANCH  14  17
HETATM   17  C13 UNL     1      25.490   9.780  48.397  1.00  0.00     0.073 A 
HETATM   18  C14 UNL     1      24.873  10.763  47.769  1.00  0.00     0.071 A 
HETATM   19  C15 UNL     1      25.889  11.738  48.109  1.00  0.00     0.093 A 
HETATM   20  N3  UNL     1      26.484  10.779  48.715  1.00  0.00    -0.241 NA
BRANCH  19  21
HETATM   21  S1  UNL     1      26.421  13.437  47.972  1.00  0.00    -0.123 SA
HETATM   22  H15 UNL     1      27.183  13.597  46.793  1.00  0.00     0.108 HD
ENDBRANCH  19  21
ENDBRANCH  14  17
TORSDOF 2
ENDMDL
MODEL 8
REMARK VINA RESULT:      -6.0      7.607      9.783
REMARK  2 active torsions:
REMARK  status: ('A' for Active; 'I' for Inactive)
REMARK    1  A    between atoms: C12_14  and  C13_15 
REMARK    2  A    between atoms: C15_17  and  S1_18 
ROOT
HETATM    1  C1  UNL     1      32.195   6.168  49.400  1.00  0.00     0.043 C 
HETATM    2  C2  UNL     1      30.960   6.947  48.954  1.00  0.00    -0.083 C 
HETATM    3  C3  UNL     1      30.917   8.279  49.243  1.00  0.00    -0.018 C 
HETATM    4  C4  UNL     1      30.288   9.675  49.250  1.00  0.00     0.083 C 
HETATM    5  C5  UNL     1      28.874   9.545  48.748  1.00  0.00     0.032 C 
HETATM    6  C6  UNL     1      27.943   9.203  49.882  1.00  0.00     0.068 C 
HETATM    7  N1  UNL     1      28.903   9.731  47.488  1.00  0.00    -0.184 NA
HETATM    8  N2  UNL     1      27.853   9.694  46.577  1.00  0.00    -0.278 N 
HETATM    9  C7  UNL     1      27.890   8.279  47.018  1.00  0.00     0.063 A 
HETATM   10  C8  UNL     1      26.667   7.828  47.538  1.00  0.00     0.032 A 
HETATM   11  C9  UNL     1      26.541   6.614  48.239  1.00  0.00     0.003 A 
HETATM   12  C10 UNL     1      27.680   5.848  48.422  1.00  0.00     0.008 A 
HETATM   13  C11 UNL     1      28.808   6.384  47.874  1.00  0.00    -0.039 A 
HETATM   14  C12 UNL     1      29.064   7.505  47.175  1.00  0.00     0.028 A 
HETATM   15  C16 UNL     1      30.147   5.854  48.275  1.00  0.00     0.073 C 
HETATM   16  H10 UNL     1      27.088   9.760  45.887  1.00  0.00     0.189 HD
ENDROOT
BRANCH  14  17
HETATM   17  C13 UNL     1      30.271   7.879  46.464  1.00  0.00     0.073 A 
HETATM   18  C14 UNL     1      31.277   7.262  45.873  1.00  0.00     0.071 A 
HETATM   19  C15 UNL     1      31.930   8.497  45.493  1.00  0.00     0.093 A 
HETATM   20  N3  UNL     1      30.952   9.091  46.070  1.00  0.00    -0.241 NA
BRANCH  19  21
HETATM   21  S1  UNL     1      33.328   9.246  44.674  1.00  0.00    -0.123 SA
HETATM   22  H15 UNL     1      34.481   8.459  44.895  1.00  0.00     0.108 HD
ENDBRANCH  19  21
ENDBRANCH  14  17
TORSDOF 2
ENDMDL
MODEL 9
REMARK VINA RESULT:      -5.8     22.783     25.296
REMARK  2 active torsions:
REMARK  status: ('A' for Active; 'I' for Inactive)
REMARK    1  A    between atoms: C12_14  and  C13_15 
REMARK    2  A    between atoms: C15_17  and  S1_18 
ROOT
HETATM    1  C1  UNL     1      42.671  -2.775  70.122  1.00  0.00     0.043 C 
HETATM    2  C2  UNL     1      41.354  -2.170  69.645  1.00  0.00    -0.083 C 
HETATM    3  C3  UNL     1      40.604  -1.492  70.560  1.00  0.00    -0.018 C 
HETATM    4  C4  UNL     1      39.392  -0.682  71.030  1.00  0.00     0.083 C 
HETATM    5  C5  UNL     1      38.378  -0.680  69.916  1.00  0.00     0.032 C 
HETATM    6  C6  UNL     1      37.500  -1.901  70.003  1.00  0.00     0.068 C 
HETATM    7  N1  UNL     1      38.602   0.353  69.206  1.00  0.00    -0.184 NA
HETATM    8  N2  UNL     1      37.944   0.781  68.057  1.00  0.00    -0.278 N 
HETATM    9  C7  UNL     1      38.562  -0.477  67.574  1.00  0.00     0.063 A 
HETATM   10  C8  UNL     1      37.631  -1.386  67.047  1.00  0.00     0.032 A 
HETATM   11  C9  UNL     1      37.955  -2.727  66.766  1.00  0.00     0.003 A 
HETATM   12  C10 UNL     1      39.245  -3.153  67.029  1.00  0.00     0.008 A 
HETATM   13  C11 UNL     1      40.062  -2.185  67.536  1.00  0.00    -0.039 A 
HETATM   14  C12 UNL     1      39.892  -0.883  67.833  1.00  0.00     0.028 A 
HETATM   15  C16 UNL     1      41.356  -2.571  68.176  1.00  0.00     0.073 C 
HETATM   16  H10 UNL     1      37.426   1.173  67.256  1.00  0.00     0.189 HD
ENDROOT
BRANCH  14  17
HETATM   17  C13 UNL     1      40.891   0.109  68.181  1.00  0.00     0.073 A 
HETATM   18  C14 UNL     1      42.185   0.287  67.991  1.00  0.00     0.071 A 
HETATM   19  C15 UNL     1      42.211   1.540  68.718  1.00  0.00     0.093 A 
HETATM   20  N3  UNL     1      40.956   1.359  68.901  1.00  0.00    -0.241 NA
BRANCH  19  21
HETATM   21  S1  UNL     1      43.209   2.905  69.288  1.00  0.00    -0.123 SA
HETATM   22  H15 UNL     1      44.338   3.045  68.448  1.00  0.00     0.108 HD
ENDBRANCH  19  21
ENDBRANCH  14  17
TORSDOF 2
ENDMDL
