MODEL 1
REMARK VINA RESULT:      -8.2      0.000      0.000
REMARK  6 active torsions:
REMARK  status: ('A' for Active; 'I' for Inactive)
REMARK    1  A    between atoms: O1_2  and  C2_3 
REMARK    2  A    between atoms: C7_8  and  C8_9 
REMARK    3  A    between atoms: C8_9  and  N1_10 
REMARK    4  A    between atoms: C11_13  and  C12_14 
REMARK    5  A    between atoms: C12_14  and  C14_17 
REMARK    6  A    between atoms: C13_15  and  N2_16 
ROOT
HETATM    1  N1  UNL     1      25.242   0.996  53.033  1.00  0.00    -0.385 N 
HETATM    2  C9  UNL     1      23.823   0.835  52.936  1.00  0.00     0.082 C 
HETATM    3  C10 UNL     1      23.298   1.772  52.127  1.00  0.00     0.001 C 
HETATM    4  C11 UNL     1      24.440   2.614  51.655  1.00  0.00     0.062 C 
HETATM    5  C20 UNL     1      25.554   1.583  51.729  1.00  0.00     0.136 C 
ENDROOT
BRANCH   4   6
HETATM    6  C12 UNL     1      24.277   3.074  50.266  1.00  0.00    -0.024 C 
HETATM    7  C13 UNL     1      23.332   2.660  49.441  1.00  0.00     0.089 C 
BRANCH   7   8
HETATM    8  N2  UNL     1      22.745   2.727  48.170  1.00  0.00    -0.407 N 
HETATM    9  H14 UNL     1      23.008   3.482  47.468  1.00  0.00     0.155 HD
HETATM   10  H15 UNL     1      22.013   2.058  47.806  1.00  0.00     0.155 HD
ENDBRANCH   7   8
BRANCH   6  11
HETATM   11  C14 UNL     1      25.245   4.059  49.794  1.00  0.00    -0.027 A 
HETATM   12  C15 UNL     1      26.473   3.727  49.219  1.00  0.00     0.012 A 
HETATM   13  C16 UNL     1      27.367   4.684  48.787  1.00  0.00     0.002 A 
HETATM   14  C17 UNL     1      27.076   6.023  48.909  1.00  0.00     0.019 A 
HETATM   15  C18 UNL     1      25.876   6.426  49.470  1.00  0.00     0.011 A 
HETATM   16 BR1  UNL     1      25.371   8.257  49.688  1.00  0.00    -0.051 Br
HETATM   17  C19 UNL     1      25.037   5.416  49.877  1.00  0.00     0.031 A 
ENDBRANCH   6  11
ENDBRANCH   4   6
BRANCH   1  18
HETATM   18  C8  UNL     1      26.026   0.625  54.199  1.00  0.00     0.163 C 
BRANCH  18  19
HETATM   19  C7  UNL     1      27.122  -0.308  53.822  1.00  0.00    -0.007 A 
HETATM   20  C2  UNL     1      28.442  -0.094  54.162  1.00  0.00     0.076 A 
HETATM   21  C3  UNL     1      29.369  -1.031  53.755  1.00  0.00     0.037 A 
HETATM   22  C4  UNL     1      29.056  -2.158  53.034  1.00  0.00     0.003 A 
HETATM   23  C5  UNL     1      27.731  -2.380  52.689  1.00  0.00     0.001 A 
HETATM   24  C6  UNL     1      26.789  -1.441  53.095  1.00  0.00     0.011 A 
BRANCH  20  25
HETATM   25  O1  UNL     1      28.770   1.045  54.893  1.00  0.00    -0.355 OA
HETATM   26  C1  UNL     1      29.413   2.150  54.278  1.00  0.00     0.210 C 
ENDBRANCH  20  25
ENDBRANCH  18  19
ENDBRANCH   1  18
TORSDOF 6
ENDMDL
MODEL 2
REMARK VINA RESULT:      -8.1      1.331      2.255
REMARK  6 active torsions:
REMARK  status: ('A' for Active; 'I' for Inactive)
REMARK    1  A    between atoms: O1_2  and  C2_3 
REMARK    2  A    between atoms: C7_8  and  C8_9 
REMARK    3  A    between atoms: C8_9  and  N1_10 
REMARK    4  A    between atoms: C11_13  and  C12_14 
REMARK    5  A    between atoms: C12_14  and  C14_17 
REMARK    6  A    between atoms: C13_15  and  N2_16 
ROOT
HETATM    1  N1  UNL     1      24.649   1.685  52.642  1.00  0.00    -0.385 N 
HETATM    2  C9  UNL     1      23.836   2.794  53.043  1.00  0.00     0.082 C 
HETATM    3  C10 UNL     1      24.006   3.829  52.201  1.00  0.00     0.001 C 
HETATM    4  C11 UNL     1      24.996   3.384  51.175  1.00  0.00     0.062 C 
HETATM    5  C20 UNL     1      24.718   1.890  51.194  1.00  0.00     0.136 C 
ENDROOT
BRANCH   4   6
HETATM    6  C12 UNL     1      24.714   3.926  49.834  1.00  0.00    -0.024 C 
HETATM    7  C13 UNL     1      23.605   3.708  49.152  1.00  0.00     0.089 C 
BRANCH   7   8
HETATM    8  N2  UNL     1      22.862   3.926  47.983  1.00  0.00    -0.407 N 
HETATM    9  H14 UNL     1      23.308   3.895  47.019  1.00  0.00     0.155 HD
HETATM   10  H15 UNL     1      21.827   4.135  47.957  1.00  0.00     0.155 HD
ENDBRANCH   7   8
BRANCH   6  11
HETATM   11  C14 UNL     1      25.756   4.760  49.243  1.00  0.00    -0.027 A 
HETATM   12  C15 UNL     1      27.075   4.342  49.060  1.00  0.00     0.012 A 
HETATM   13  C16 UNL     1      28.036   5.159  48.501  1.00  0.00     0.002 A 
HETATM   14  C17 UNL     1      27.724   6.436  48.097  1.00  0.00     0.019 A 
HETATM   15  C18 UNL     1      26.434   6.918  48.247  1.00  0.00     0.011 A 
HETATM   16 BR1  UNL     1      25.892   8.674  47.722  1.00  0.00    -0.051 Br
HETATM   17  C19 UNL     1      25.532   6.047  48.812  1.00  0.00     0.031 A 
ENDBRANCH   6  11
ENDBRANCH   4   6
BRANCH   1  18
HETATM   18  C8  UNL     1      25.190   0.698  53.560  1.00  0.00     0.163 C 
BRANCH  18  19
HETATM   19  C7  UNL     1      26.675   0.781  53.609  1.00  0.00    -0.007 A 
HETATM   20  C2  UNL     1      27.490  -0.332  53.608  1.00  0.00     0.076 A 
HETATM   21  C3  UNL     1      28.854  -0.127  53.657  1.00  0.00     0.037 A 
HETATM   22  C4  UNL     1      29.443   1.114  53.708  1.00  0.00     0.003 A 
HETATM   23  C5  UNL     1      28.629   2.237  53.710  1.00  0.00     0.001 A 
HETATM   24  C6  UNL     1      27.253   2.041  53.660  1.00  0.00     0.011 A 
BRANCH  20  25
HETATM   25  O1  UNL     1      26.904  -1.594  53.556  1.00  0.00    -0.355 OA
HETATM   26  C1  UNL     1      26.926  -2.363  52.364  1.00  0.00     0.210 C 
ENDBRANCH  20  25
ENDBRANCH  18  19
ENDBRANCH   1  18
TORSDOF 6
ENDMDL
MODEL 3
REMARK VINA RESULT:      -7.9      3.479      5.593
REMARK  6 active torsions:
REMARK  status: ('A' for Active; 'I' for Inactive)
REMARK    1  A    between atoms: O1_2  and  C2_3 
REMARK    2  A    between atoms: C7_8  and  C8_9 
REMARK    3  A    between atoms: C8_9  and  N1_10 
REMARK    4  A    between atoms: C11_13  and  C12_14 
REMARK    5  A    between atoms: C12_14  and  C14_17 
REMARK    6  A    between atoms: C13_15  and  N2_16 
ROOT
HETATM    1  N1  UNL     1      25.378   2.677  51.683  1.00  0.00    -0.385 N 
HETATM    2  C9  UNL     1      24.751   3.009  50.440  1.00  0.00     0.082 C 
HETATM    3  C10 UNL     1      23.518   2.475  50.379  1.00  0.00     0.001 C 
HETATM    4  C11 UNL     1      23.310   1.739  51.662  1.00  0.00     0.062 C 
HETATM    5  C20 UNL     1      24.217   2.556  52.567  1.00  0.00     0.136 C 
ENDROOT
BRANCH   4   6
HETATM    6  C12 UNL     1      21.922   1.814  52.149  1.00  0.00    -0.024 C 
HETATM    7  C13 UNL     1      21.113   2.841  51.960  1.00  0.00     0.089 C 
BRANCH   7   8
HETATM    8  N2  UNL     1      19.850   3.416  52.159  1.00  0.00    -0.407 N 
HETATM    9  H14 UNL     1      18.972   3.013  51.715  1.00  0.00     0.155 HD
HETATM   10  H15 UNL     1      19.663   4.274  52.747  1.00  0.00     0.155 HD
ENDBRANCH   7   8
BRANCH   6  11
HETATM   11  C14 UNL     1      21.433   0.656  52.890  1.00  0.00    -0.027 A 
HETATM   12  C15 UNL     1      22.216  -0.088  53.774  1.00  0.00     0.012 A 
HETATM   13  C16 UNL     1      21.723  -1.180  54.457  1.00  0.00     0.002 A 
HETATM   14  C17 UNL     1      20.419  -1.584  54.287  1.00  0.00     0.019 A 
HETATM   15  C18 UNL     1      19.583  -0.893  53.425  1.00  0.00     0.011 A 
HETATM   16 BR1  UNL     1      17.757  -1.367  53.114  1.00  0.00    -0.051 Br
HETATM   17  C19 UNL     1      20.145   0.184  52.781  1.00  0.00     0.031 A 
ENDBRANCH   6  11
ENDBRANCH   4   6
BRANCH   1  18
HETATM   18  C8  UNL     1      26.813   2.532  51.858  1.00  0.00     0.163 C 
BRANCH  18  19
HETATM   19  C7  UNL     1      27.146   1.190  52.406  1.00  0.00    -0.007 A 
HETATM   20  C2  UNL     1      27.926   1.009  53.530  1.00  0.00     0.076 A 
HETATM   21  C3  UNL     1      28.166  -0.286  53.941  1.00  0.00     0.037 A 
HETATM   22  C4  UNL     1      27.677  -1.399  53.299  1.00  0.00     0.003 A 
HETATM   23  C5  UNL     1      26.892  -1.224  52.169  1.00  0.00     0.001 A 
HETATM   24  C6  UNL     1      26.644   0.078  51.746  1.00  0.00     0.011 A 
BRANCH  20  25
HETATM   25  O1  UNL     1      28.425   2.130  54.187  1.00  0.00    -0.355 OA
HETATM   26  C1  UNL     1      29.788   2.203  54.577  1.00  0.00     0.210 C 
ENDBRANCH  20  25
ENDBRANCH  18  19
ENDBRANCH   1  18
TORSDOF 6
ENDMDL
MODEL 4
REMARK VINA RESULT:      -7.9      2.933      4.240
REMARK  6 active torsions:
REMARK  status: ('A' for Active; 'I' for Inactive)
REMARK    1  A    between atoms: O1_2  and  C2_3 
REMARK    2  A    between atoms: C7_8  and  C8_9 
REMARK    3  A    between atoms: C8_9  and  N1_10 
REMARK    4  A    between atoms: C11_13  and  C12_14 
REMARK    5  A    between atoms: C12_14  and  C14_17 
REMARK    6  A    between atoms: C13_15  and  N2_16 
ROOT
HETATM    1  N1  UNL     1      23.627  -0.840  54.280  1.00  0.00    -0.385 N 
HETATM    2  C9  UNL     1      22.408  -0.915  55.026  1.00  0.00     0.082 C 
HETATM    3  C10 UNL     1      21.448  -0.183  54.432  1.00  0.00     0.001 C 
HETATM    4  C11 UNL     1      22.067   0.419  53.213  1.00  0.00     0.062 C 
HETATM    5  C20 UNL     1      23.120  -0.638  52.922  1.00  0.00     0.136 C 
ENDROOT
BRANCH   4   6
HETATM    6  C12 UNL     1      21.130   0.514  52.080  1.00  0.00    -0.024 C 
HETATM    7  C13 UNL     1      19.879   0.090  52.101  1.00  0.00     0.089 C 
BRANCH   7   8
HETATM    8  N2  UNL     1      18.663  -0.071  51.422  1.00  0.00    -0.407 N 
HETATM    9  H14 UNL     1      18.360   0.590  50.647  1.00  0.00     0.155 HD
HETATM   10  H15 UNL     1      17.961  -0.837  51.614  1.00  0.00     0.155 HD
ENDBRANCH   7   8
BRANCH   6  11
HETATM   11  C14 UNL     1      21.649   1.125  50.862  1.00  0.00    -0.027 A 
HETATM   12  C15 UNL     1      21.187   0.817  49.581  1.00  0.00     0.012 A 
HETATM   13  C16 UNL     1      21.703   1.413  48.448  1.00  0.00     0.002 A 
HETATM   14  C17 UNL     1      22.709   2.347  48.542  1.00  0.00     0.019 A 
HETATM   15  C18 UNL     1      23.215   2.702  49.780  1.00  0.00     0.011 A 
HETATM   16 BR1  UNL     1      24.610   3.987  50.025  1.00  0.00    -0.051 Br
HETATM   17  C19 UNL     1      22.652   2.067  50.862  1.00  0.00     0.031 A 
ENDBRANCH   6  11
ENDBRANCH   4   6
BRANCH   1  18
HETATM   18  C8  UNL     1      24.951  -0.954  54.868  1.00  0.00     0.163 C 
BRANCH  18  19
HETATM   19  C7  UNL     1      25.931  -0.113  54.131  1.00  0.00    -0.007 A 
HETATM   20  C2  UNL     1      26.926  -0.642  53.335  1.00  0.00     0.076 A 
HETATM   21  C3  UNL     1      27.777   0.241  52.701  1.00  0.00     0.037 A 
HETATM   22  C4  UNL     1      27.691   1.608  52.818  1.00  0.00     0.003 A 
HETATM   23  C5  UNL     1      26.692   2.146  53.617  1.00  0.00     0.001 A 
HETATM   24  C6  UNL     1      25.830   1.264  54.259  1.00  0.00     0.011 A 
BRANCH  20  25
HETATM   25  O1  UNL     1      27.021  -2.025  53.209  1.00  0.00    -0.355 OA
HETATM   26  C1  UNL     1      28.270  -2.655  52.970  1.00  0.00     0.210 C 
ENDBRANCH  20  25
ENDBRANCH  18  19
ENDBRANCH   1  18
TORSDOF 6
ENDMDL
MODEL 5
REMARK VINA RESULT:      -7.8      2.158      3.352
REMARK  6 active torsions:
REMARK  status: ('A' for Active; 'I' for Inactive)
REMARK    1  A    between atoms: O1_2  and  C2_3 
REMARK    2  A    between atoms: C7_8  and  C8_9 
REMARK    3  A    between atoms: C8_9  and  N1_10 
REMARK    4  A    between atoms: C11_13  and  C12_14 
REMARK    5  A    between atoms: C12_14  and  C14_17 
REMARK    6  A    between atoms: C13_15  and  N2_16 
ROOT
HETATM    1  N1  UNL     1      26.026   1.761  53.185  1.00  0.00    -0.385 N 
HETATM    2  C9  UNL     1      27.039   2.142  52.249  1.00  0.00     0.082 C 
HETATM    3  C10 UNL     1      26.484   2.489  51.073  1.00  0.00     0.001 C 
HETATM    4  C11 UNL     1      25.008   2.326  51.235  1.00  0.00     0.062 C 
HETATM    5  C20 UNL     1      24.895   2.571  52.731  1.00  0.00     0.136 C 
ENDROOT
BRANCH   4   6
HETATM    6  C12 UNL     1      24.235   3.344  50.503  1.00  0.00    -0.024 C 
HETATM    7  C13 UNL     1      24.443   4.645  50.579  1.00  0.00     0.089 C 
BRANCH   7   8
HETATM    8  N2  UNL     1      24.080   5.936  50.171  1.00  0.00    -0.407 N 
HETATM    9  H14 UNL     1      24.772   6.744  50.177  1.00  0.00     0.155 HD
HETATM   10  H15 UNL     1      23.118   6.215  49.835  1.00  0.00     0.155 HD
ENDBRANCH   7   8
BRANCH   6  11
HETATM   11  C14 UNL     1      23.169   2.847  49.640  1.00  0.00    -0.027 A 
HETATM   12  C15 UNL     1      22.318   1.794  49.982  1.00  0.00     0.012 A 
HETATM   13  C16 UNL     1      21.322   1.347  49.140  1.00  0.00     0.002 A 
HETATM   14  C17 UNL     1      21.127   1.932  47.910  1.00  0.00     0.019 A 
HETATM   15  C18 UNL     1      21.933   2.982  47.503  1.00  0.00     0.011 A 
HETATM   16 BR1  UNL     1      21.750   3.866  45.818  1.00  0.00    -0.051 Br
HETATM   17  C19 UNL     1      22.904   3.372  48.395  1.00  0.00     0.031 A 
ENDBRANCH   6  11
ENDBRANCH   4   6
BRANCH   1  18
HETATM   18  C8  UNL     1      26.228   0.799  54.256  1.00  0.00     0.163 C 
BRANCH  18  19
HETATM   19  C7  UNL     1      27.273  -0.191  53.886  1.00  0.00    -0.007 A 
HETATM   20  C2  UNL     1      28.584  -0.095  54.308  1.00  0.00     0.076 A 
HETATM   21  C3  UNL     1      29.463  -1.076  53.897  1.00  0.00     0.037 A 
HETATM   22  C4  UNL     1      29.111  -2.137  53.098  1.00  0.00     0.003 A 
HETATM   23  C5  UNL     1      27.795  -2.241  52.671  1.00  0.00     0.001 A 
HETATM   24  C6  UNL     1      26.901  -1.257  53.079  1.00  0.00     0.011 A 
BRANCH  20  25
HETATM   25  O1  UNL     1      28.950   0.976  55.118  1.00  0.00    -0.355 OA
HETATM   26  C1  UNL     1      29.678   2.076  54.595  1.00  0.00     0.210 C 
ENDBRANCH  20  25
ENDBRANCH  18  19
ENDBRANCH   1  18
TORSDOF 6
ENDMDL
MODEL 6
REMARK VINA RESULT:      -7.7      3.967      6.097
REMARK  6 active torsions:
REMARK  status: ('A' for Active; 'I' for Inactive)
REMARK    1  A    between atoms: O1_2  and  C2_3 
REMARK    2  A    between atoms: C7_8  and  C8_9 
REMARK    3  A    between atoms: C8_9  and  N1_10 
REMARK    4  A    between atoms: C11_13  and  C12_14 
REMARK    5  A    between atoms: C12_14  and  C14_17 
REMARK    6  A    between atoms: C13_15  and  N2_16 
ROOT
HETATM    1  N1  UNL     1      24.915   1.541  52.105  1.00  0.00    -0.385 N 
HETATM    2  C9  UNL     1      24.268   2.793  52.358  1.00  0.00     0.082 C 
HETATM    3  C10 UNL     1      22.931   2.646  52.320  1.00  0.00     0.001 C 
HETATM    4  C11 UNL     1      22.670   1.206  52.022  1.00  0.00     0.062 C 
HETATM    5  C20 UNL     1      23.925   0.597  52.625  1.00  0.00     0.136 C 
ENDROOT
BRANCH   4   6
HETATM    6  C12 UNL     1      21.480   0.683  52.714  1.00  0.00    -0.024 C 
HETATM    7  C13 UNL     1      21.440   0.342  53.989  1.00  0.00     0.089 C 
BRANCH   7   8
HETATM    8  N2  UNL     1      20.694  -0.153  55.068  1.00  0.00    -0.407 N 
HETATM    9  H14 UNL     1      20.023   0.463  55.617  1.00  0.00     0.155 HD
HETATM   10  H15 UNL     1      20.732  -1.147  55.423  1.00  0.00     0.155 HD
ENDBRANCH   7   8
BRANCH   6  11
HETATM   11  C14 UNL     1      20.272   0.545  51.907  1.00  0.00    -0.027 A 
HETATM   12  C15 UNL     1      20.128   1.081  50.626  1.00  0.00     0.012 A 
HETATM   13  C16 UNL     1      18.970   0.934  49.891  1.00  0.00     0.002 A 
HETATM   14  C17 UNL     1      17.896   0.243  50.404  1.00  0.00     0.019 A 
HETATM   15  C18 UNL     1      17.967  -0.316  51.668  1.00  0.00     0.011 A 
HETATM   16 BR1  UNL     1      16.537  -1.294  52.476  1.00  0.00    -0.051 Br
HETATM   17  C19 UNL     1      19.152  -0.128  52.340  1.00  0.00     0.031 A 
ENDBRANCH   6  11
ENDBRANCH   4   6
BRANCH   1  18
HETATM   18  C8  UNL     1      26.221   1.411  51.482  1.00  0.00     0.163 C 
BRANCH  18  19
HETATM   19  C7  UNL     1      27.276   1.191  52.507  1.00  0.00    -0.007 A 
HETATM   20  C2  UNL     1      27.602  -0.057  52.995  1.00  0.00     0.076 A 
HETATM   21  C3  UNL     1      28.599  -0.134  53.946  1.00  0.00     0.037 A 
HETATM   22  C4  UNL     1      29.281   0.956  54.433  1.00  0.00     0.003 A 
HETATM   23  C5  UNL     1      28.958   2.214  53.946  1.00  0.00     0.001 A 
HETATM   24  C6  UNL     1      27.955   2.301  52.987  1.00  0.00     0.011 A 
BRANCH  20  25
HETATM   25  O1  UNL     1      26.918  -1.168  52.508  1.00  0.00    -0.355 OA
HETATM   26  C1  UNL     1      27.461  -2.473  52.626  1.00  0.00     0.210 C 
ENDBRANCH  20  25
ENDBRANCH  18  19
ENDBRANCH   1  18
TORSDOF 6
ENDMDL
MODEL 7
REMARK VINA RESULT:      -7.6      4.405      7.623
REMARK  6 active torsions:
REMARK  status: ('A' for Active; 'I' for Inactive)
REMARK    1  A    between atoms: O1_2  and  C2_3 
REMARK    2  A    between atoms: C7_8  and  C8_9 
REMARK    3  A    between atoms: C8_9  and  N1_10 
REMARK    4  A    between atoms: C11_13  and  C12_14 
REMARK    5  A    between atoms: C12_14  and  C14_17 
REMARK    6  A    between atoms: C13_15  and  N2_16 
ROOT
HETATM    1  N1  UNL     1      20.495   0.026  53.141  1.00  0.00    -0.385 N 
HETATM    2  C9  UNL     1      20.339  -1.153  53.939  1.00  0.00     0.082 C 
HETATM    3  C10 UNL     1      21.533  -1.733  54.156  1.00  0.00     0.001 C 
HETATM    4  C11 UNL     1      22.549  -0.889  53.458  1.00  0.00     0.062 C 
HETATM    5  C20 UNL     1      21.842   0.454  53.523  1.00  0.00     0.136 C 
ENDROOT
BRANCH   4   6
HETATM    6  C12 UNL     1      23.829  -0.815  54.184  1.00  0.00    -0.024 C 
HETATM    7  C13 UNL     1      24.020  -1.244  55.418  1.00  0.00     0.089 C 
BRANCH   7   8
HETATM    8  N2  UNL     1      24.898  -1.420  56.496  1.00  0.00    -0.407 N 
HETATM    9  H14 UNL     1      24.669  -1.067  57.473  1.00  0.00     0.155 HD
HETATM   10  H15 UNL     1      25.837  -1.902  56.439  1.00  0.00     0.155 HD
ENDBRANCH   7   8
BRANCH   6  11
HETATM   11  C14 UNL     1      24.947  -0.218  53.462  1.00  0.00    -0.027 A 
HETATM   12  C15 UNL     1      24.808   0.803  52.520  1.00  0.00     0.012 A 
HETATM   13  C16 UNL     1      25.887   1.343  51.852  1.00  0.00     0.002 A 
HETATM   14  C17 UNL     1      27.163   0.886  52.094  1.00  0.00     0.019 A 
HETATM   15  C18 UNL     1      27.377  -0.125  53.015  1.00  0.00     0.011 A 
HETATM   16 BR1  UNL     1      29.103  -0.835  53.427  1.00  0.00    -0.051 Br
HETATM   17  C19 UNL     1      26.253  -0.613  53.640  1.00  0.00     0.031 A 
ENDBRANCH   6  11
ENDBRANCH   4   6
BRANCH   1  18
HETATM   18  C8  UNL     1      19.481   0.535  52.233  1.00  0.00     0.163 C 
BRANCH  18  19
HETATM   19  C7  UNL     1      20.088   1.432  51.214  1.00  0.00    -0.007 A 
HETATM   20  C2  UNL     1      19.744   2.762  51.082  1.00  0.00     0.076 A 
HETATM   21  C3  UNL     1      20.376   3.493  50.097  1.00  0.00     0.037 A 
HETATM   22  C4  UNL     1      21.322   2.976  49.244  1.00  0.00     0.003 A 
HETATM   23  C5  UNL     1      21.672   1.640  49.371  1.00  0.00     0.001 A 
HETATM   24  C6  UNL     1      21.041   0.895  50.361  1.00  0.00     0.011 A 
BRANCH  20  25
HETATM   25  O1  UNL     1      18.788   3.296  51.942  1.00  0.00    -0.355 OA
HETATM   26  C1  UNL     1      17.471   3.573  51.491  1.00  0.00     0.210 C 
ENDBRANCH  20  25
ENDBRANCH  18  19
ENDBRANCH   1  18
TORSDOF 6
ENDMDL
MODEL 8
REMARK VINA RESULT:      -7.5      2.928      6.834
REMARK  6 active torsions:
REMARK  status: ('A' for Active; 'I' for Inactive)
REMARK    1  A    between atoms: O1_2  and  C2_3 
REMARK    2  A    between atoms: C7_8  and  C8_9 
REMARK    3  A    between atoms: C8_9  and  N1_10 
REMARK    4  A    between atoms: C11_13  and  C12_14 
REMARK    5  A    between atoms: C12_14  and  C14_17 
REMARK    6  A    between atoms: C13_15  and  N2_16 
ROOT
HETATM    1  N1  UNL     1      23.812   1.722  51.429  1.00  0.00    -0.385 N 
HETATM    2  C9  UNL     1      22.764   1.638  52.401  1.00  0.00     0.082 C 
HETATM    3  C10 UNL     1      22.988   0.614  53.244  1.00  0.00     0.001 C 
HETATM    4  C11 UNL     1      24.264  -0.027  52.805  1.00  0.00     0.062 C 
HETATM    5  C20 UNL     1      24.945   1.180  52.180  1.00  0.00     0.136 C 
ENDROOT
BRANCH   4   6
HETATM    6  C12 UNL     1      25.072  -0.527  53.931  1.00  0.00    -0.024 C 
HETATM    7  C13 UNL     1      24.581  -0.935  55.087  1.00  0.00     0.089 C 
BRANCH   7   8
HETATM    8  N2  UNL     1      24.820  -1.450  56.368  1.00  0.00    -0.407 N 
HETATM    9  H14 UNL     1      24.355  -1.043  57.234  1.00  0.00     0.155 HD
HETATM   10  H15 UNL     1      25.462  -2.261  56.583  1.00  0.00     0.155 HD
ENDBRANCH   7   8
BRANCH   6  11
HETATM   11  C14 UNL     1      26.516  -0.564  53.724  1.00  0.00    -0.027 A 
HETATM   12  C15 UNL     1      27.183  -1.610  53.084  1.00  0.00     0.012 A 
HETATM   13  C16 UNL     1      28.551  -1.614  52.908  1.00  0.00     0.002 A 
HETATM   14  C17 UNL     1      29.321  -0.569  53.365  1.00  0.00     0.019 A 
HETATM   15  C18 UNL     1      28.727   0.503  54.009  1.00  0.00     0.011 A 
HETATM   16 BR1  UNL     1      29.700   2.004  54.682  1.00  0.00    -0.051 Br
HETATM   17  C19 UNL     1      27.361   0.436  54.147  1.00  0.00     0.031 A 
ENDBRANCH   6  11
ENDBRANCH   4   6
BRANCH   1  18
HETATM   18  C8  UNL     1      23.633   2.238  50.082  1.00  0.00     0.163 C 
BRANCH  18  19
HETATM   19  C7  UNL     1      24.447   3.465  49.875  1.00  0.00    -0.007 A 
HETATM   20  C2  UNL     1      23.945   4.739  50.046  1.00  0.00     0.076 A 
HETATM   21  C3  UNL     1      24.798   5.800  49.823  1.00  0.00     0.037 A 
HETATM   22  C4  UNL     1      26.111   5.662  49.441  1.00  0.00     0.003 A 
HETATM   23  C5  UNL     1      26.623   4.385  49.267  1.00  0.00     0.001 A 
HETATM   24  C6  UNL     1      25.771   3.309  49.490  1.00  0.00     0.011 A 
BRANCH  20  25
HETATM   25  O1  UNL     1      22.616   4.889  50.434  1.00  0.00    -0.355 OA
HETATM   26  C1  UNL     1      22.147   6.111  50.982  1.00  0.00     0.210 C 
ENDBRANCH  20  25
ENDBRANCH  18  19
ENDBRANCH   1  18
TORSDOF 6
ENDMDL
MODEL 9
REMARK VINA RESULT:      -7.4      3.289      6.843
REMARK  6 active torsions:
REMARK  status: ('A' for Active; 'I' for Inactive)
REMARK    1  A    between atoms: O1_2  and  C2_3 
REMARK    2  A    between atoms: C7_8  and  C8_9 
REMARK    3  A    between atoms: C8_9  and  N1_10 
REMARK    4  A    between atoms: C11_13  and  C12_14 
REMARK    5  A    between atoms: C12_14  and  C14_17 
REMARK    6  A    between atoms: C13_15  and  N2_16 
ROOT
HETATM    1  N1  UNL     1      22.168   3.134  49.924  1.00  0.00    -0.385 N 
HETATM    2  C9  UNL     1      21.373   1.997  49.572  1.00  0.00     0.082 C 
HETATM    3  C10 UNL     1      21.655   0.959  50.380  1.00  0.00     0.001 C 
HETATM    4  C11 UNL     1      22.707   1.434  51.330  1.00  0.00     0.062 C 
HETATM    5  C20 UNL     1      22.364   2.914  51.357  1.00  0.00     0.136 C 
ENDROOT
BRANCH   4   6
HETATM    6  C12 UNL     1      22.560   0.863  52.679  1.00  0.00    -0.024 C 
HETATM    7  C13 UNL     1      21.407   0.667  53.293  1.00  0.00     0.089 C 
BRANCH   7   8
HETATM    8  N2  UNL     1      20.723   0.217  54.431  1.00  0.00    -0.407 N 
HETATM    9  H14 UNL     1      19.976  -0.537  54.377  1.00  0.00     0.155 HD
HETATM   10  H15 UNL     1      20.882   0.577  55.411  1.00  0.00     0.155 HD
ENDBRANCH   7   8
BRANCH   6  11
HETATM   11  C14 UNL     1      23.796   0.498  53.364  1.00  0.00    -0.027 A 
HETATM   12  C15 UNL     1      23.913  -0.595  54.225  1.00  0.00     0.012 A 
HETATM   13  C16 UNL     1      25.097  -0.910  54.859  1.00  0.00     0.002 A 
HETATM   14  C17 UNL     1      26.224  -0.146  54.662  1.00  0.00     0.019 A 
HETATM   15  C18 UNL     1      26.182   0.953  53.821  1.00  0.00     0.011 A 
HETATM   16 BR1  UNL     1      27.686   2.081  53.477  1.00  0.00    -0.051 Br
HETATM   17  C19 UNL     1      24.968   1.204  53.225  1.00  0.00     0.031 A 
ENDBRANCH   6  11
ENDBRANCH   4   6
BRANCH   1  18
HETATM   18  C8  UNL     1      22.590   4.156  48.981  1.00  0.00     0.163 C 
BRANCH  18  19
HETATM   19  C7  UNL     1      24.058   4.375  49.061  1.00  0.00    -0.007 A 
HETATM   20  C2  UNL     1      24.649   5.602  48.839  1.00  0.00     0.076 A 
HETATM   21  C3  UNL     1      26.023   5.680  48.942  1.00  0.00     0.037 A 
HETATM   22  C4  UNL     1      26.832   4.612  49.250  1.00  0.00     0.003 A 
HETATM   23  C5  UNL     1      26.245   3.376  49.473  1.00  0.00     0.001 A 
HETATM   24  C6  UNL     1      24.860   3.287  49.373  1.00  0.00     0.011 A 
BRANCH  20  25
HETATM   25  O1  UNL     1      23.838   6.691  48.528  1.00  0.00    -0.355 OA
HETATM   26  C1  UNL     1      23.881   7.292  47.244  1.00  0.00     0.210 C 
ENDBRANCH  20  25
ENDBRANCH  18  19
ENDBRANCH   1  18
TORSDOF 6
ENDMDL
