MODEL 1
REMARK VINA RESULT:      -8.5      0.000      0.000
REMARK  6 active torsions:
REMARK  status: ('A' for Active; 'I' for Inactive)
REMARK    1  A    between atoms: C3_3  and  C4_4 
REMARK    2  A    between atoms: C5_6  and  C6_7 
REMARK    3  A    between atoms: C6_7  and  C7_8 
REMARK    4  A    between atoms: C7_8  and  C8_9 
REMARK    5  A    between atoms: C13_15  and  C14_16 
REMARK    6  A    between atoms: N2_19  and  O1_20 
ROOT
HETATM    1  C8  UNL     1      23.022   2.791  51.704  1.00  0.00     0.021 A 
HETATM    2  C9  UNL     1      23.449   1.599  51.001  1.00  0.00    -0.016 A 
HETATM    3  N1  UNL     1      22.483   2.120  50.294  1.00  0.00     0.000 N 
HETATM    4  C10 UNL     1      23.301   3.011  49.507  1.00  0.00     0.086 C 
HETATM    5  C11 UNL     1      23.043   3.889  48.463  1.00  0.00     0.035 C 
HETATM    6  C12 UNL     1      23.020   5.241  48.519  1.00  0.00     0.015 C 
HETATM    7  C13 UNL     1      23.011   6.216  49.484  1.00  0.00    -0.020 C 
HETATM    8  C19 UNL     1      22.120   6.209  50.587  1.00  0.00     0.011 C 
HETATM    9  C20 UNL     1      22.099   5.485  51.830  1.00  0.00     0.009 C 
HETATM   10  C21 UNL     1      22.885   4.477  51.412  1.00  0.00     0.094 A 
HETATM   11  N3  UNL     1      24.201   4.890  51.450  1.00  0.00    -0.266 NA
HETATM   12  C22 UNL     1      25.000   4.264  50.519  1.00  0.00     0.228 C 
HETATM   13  N4  UNL     1      24.623   3.351  49.575  1.00  0.00    -0.240 NA
HETATM   14  C23 UNL     1      21.979   3.416  51.060  1.00  0.00     0.021 A 
HETATM   15  C24 UNL     1      20.987   3.881  50.319  1.00  0.00     0.004 C 
HETATM   16  C25 UNL     1      21.183   2.469  49.735  1.00  0.00     0.006 C 
ENDROOT
BRANCH   7  17
HETATM   17  C14 UNL     1      24.005   7.271  49.331  1.00  0.00     0.009 C 
HETATM   18  C15 UNL     1      24.356   8.028  50.350  1.00  0.00     0.015 C 
HETATM   19  C16 UNL     1      25.331   9.103  50.315  1.00  0.00     0.188 C 
HETATM   20  N2  UNL     1      26.694   8.755  50.046  1.00  0.00    -0.225 N 
HETATM   21  C17 UNL     1      26.984   7.855  49.012  1.00  0.00     0.253 C 
HETATM   22  O2  UNL     1      28.207   7.456  49.028  1.00  0.00    -0.270 OA
HETATM   23  C18 UNL     1      26.454   7.137  47.858  1.00  0.00     0.184 C 
HETATM   24  S1  UNL     1      24.667   7.369  47.646  1.00  0.00    -0.120 SA
BRANCH  20  25
HETATM   25  O1  UNL     1      27.729   9.273  50.759  1.00  0.00    -0.285 OA
HETATM   26  H17 UNL     1      28.263   9.852  50.159  1.00  0.00     0.245 HD
ENDBRANCH  20  25
ENDBRANCH   7  17
BRANCH   1  27
HETATM   27  C7  UNL     1      23.820   2.761  52.939  1.00  0.00     0.021 C 
BRANCH  27  28
HETATM   28  C6  UNL     1      24.588   1.436  52.914  1.00  0.00     0.031 C 
BRANCH  28  29
HETATM   29  C5  UNL     1      26.014   1.583  53.138  1.00  0.00     0.011 C 
HETATM   30  C4  UNL     1      27.142   1.703  52.447  1.00  0.00     0.095 C 
HETATM   31  F1  UNL     1      26.901   1.676  51.140  1.00  0.00    -0.211 F 
BRANCH  30  32
HETATM   32  C3  UNL     1      28.300   1.824  53.382  1.00  0.00     0.085 C 
HETATM   33  C2  UNL     1      28.804   0.530  53.326  1.00  0.00    -0.020 C 
HETATM   34  C1  UNL     1      29.829  -0.492  53.763  1.00  0.00     0.006 C 
ENDBRANCH  30  32
ENDBRANCH  28  29
ENDBRANCH  27  28
ENDBRANCH   1  27
TORSDOF 6
ENDMDL
MODEL 2
REMARK VINA RESULT:      -8.5      3.591      6.438
REMARK  6 active torsions:
REMARK  status: ('A' for Active; 'I' for Inactive)
REMARK    1  A    between atoms: C3_3  and  C4_4 
REMARK    2  A    between atoms: C5_6  and  C6_7 
REMARK    3  A    between atoms: C6_7  and  C7_8 
REMARK    4  A    between atoms: C7_8  and  C8_9 
REMARK    5  A    between atoms: C13_15  and  C14_16 
REMARK    6  A    between atoms: N2_19  and  O1_20 
ROOT
HETATM    1  C8  UNL     1      22.657   6.133  50.072  1.00  0.00     0.021 A 
HETATM    2  C9  UNL     1      21.263   6.345  50.405  1.00  0.00    -0.016 A 
HETATM    3  N1  UNL     1      21.303   5.297  49.627  1.00  0.00     0.000 N 
HETATM    4  C10 UNL     1      21.515   4.316  50.663  1.00  0.00     0.086 C 
HETATM    5  C11 UNL     1      21.612   2.931  50.676  1.00  0.00     0.035 C 
HETATM    6  C12 UNL     1      22.731   2.190  50.847  1.00  0.00     0.015 C 
HETATM    7  C13 UNL     1      24.088   2.392  50.858  1.00  0.00    -0.020 C 
HETATM    8  C19 UNL     1      24.776   3.099  49.840  1.00  0.00     0.011 C 
HETATM    9  C20 UNL     1      24.935   4.500  49.551  1.00  0.00     0.009 C 
HETATM   10  C21 UNL     1      23.843   4.902  50.226  1.00  0.00     0.094 A 
HETATM   11  N3  UNL     1      24.141   4.946  51.572  1.00  0.00    -0.266 NA
HETATM   12  C22 UNL     1      23.050   4.723  52.384  1.00  0.00     0.228 C 
HETATM   13  N4  UNL     1      21.773   4.428  52.002  1.00  0.00    -0.240 NA
HETATM   14  C23 UNL     1      22.820   5.060  49.226  1.00  0.00     0.021 A 
HETATM   15  C24 UNL     1      22.796   4.013  48.418  1.00  0.00     0.004 C 
HETATM   16  C25 UNL     1      21.307   4.402  48.477  1.00  0.00     0.006 C 
ENDROOT
BRANCH   7  17
HETATM   17  C14 UNL     1      24.802   1.853  52.008  1.00  0.00     0.009 C 
HETATM   18  C15 UNL     1      24.155   1.437  53.076  1.00  0.00     0.015 C 
HETATM   19  C16 UNL     1      24.758   0.884  54.275  1.00  0.00     0.188 C 
HETATM   20  N2  UNL     1      25.452  -0.365  54.154  1.00  0.00    -0.225 N 
HETATM   21  C17 UNL     1      26.328  -0.564  53.080  1.00  0.00     0.253 C 
HETATM   22  O2  UNL     1      26.700  -1.790  52.963  1.00  0.00    -0.270 OA
HETATM   23  C18 UNL     1      27.038   0.067  51.973  1.00  0.00     0.184 C 
HETATM   24  S1  UNL     1      26.598   1.815  51.761  1.00  0.00    -0.120 SA
BRANCH  20  25
HETATM   25  O1  UNL     1      25.295  -1.371  55.054  1.00  0.00    -0.285 OA
HETATM   26  H17 UNL     1      25.993  -1.279  55.751  1.00  0.00     0.245 HD
ENDBRANCH  20  25
ENDBRANCH   7  17
BRANCH   1  27
HETATM   27  C7  UNL     1      23.332   7.283  50.689  1.00  0.00     0.021 C 
BRANCH  27  28
HETATM   28  C6  UNL     1      23.537   8.306  49.567  1.00  0.00     0.031 C 
BRANCH  28  29
HETATM   29  C5  UNL     1      24.814   8.184  48.890  1.00  0.00     0.011 C 
HETATM   30  C4  UNL     1      25.327   7.668  47.778  1.00  0.00     0.095 C 
HETATM   31  F1  UNL     1      24.386   7.068  47.058  1.00  0.00    -0.211 F 
BRANCH  30  32
HETATM   32  C3  UNL     1      26.795   7.937  47.724  1.00  0.00     0.085 C 
HETATM   33  C2  UNL     1      27.293   6.684  48.059  1.00  0.00    -0.020 C 
HETATM   34  C1  UNL     1      28.473   5.771  48.310  1.00  0.00     0.006 C 
ENDBRANCH  30  32
ENDBRANCH  28  29
ENDBRANCH  27  28
ENDBRANCH   1  27
TORSDOF 6
ENDMDL
MODEL 3
REMARK VINA RESULT:      -8.4      4.713      7.079
REMARK  6 active torsions:
REMARK  status: ('A' for Active; 'I' for Inactive)
REMARK    1  A    between atoms: C3_3  and  C4_4 
REMARK    2  A    between atoms: C5_6  and  C6_7 
REMARK    3  A    between atoms: C6_7  and  C7_8 
REMARK    4  A    between atoms: C7_8  and  C8_9 
REMARK    5  A    between atoms: C13_15  and  C14_16 
REMARK    6  A    between atoms: N2_19  and  O1_20 
ROOT
HETATM    1  C8  UNL     1      22.663   3.709  51.245  1.00  0.00     0.021 A 
HETATM    2  C9  UNL     1      22.710   5.139  51.018  1.00  0.00    -0.016 A 
HETATM    3  N1  UNL     1      22.710   4.576  49.840  1.00  0.00     0.000 N 
HETATM    4  C10 UNL     1      21.278   4.487  49.686  1.00  0.00     0.086 C 
HETATM    5  C11 UNL     1      20.441   4.056  48.666  1.00  0.00     0.035 C 
HETATM    6  C12 UNL     1      19.719   2.912  48.628  1.00  0.00     0.015 C 
HETATM    7  C13 UNL     1      19.646   1.736  49.331  1.00  0.00    -0.020 C 
HETATM    8  C19 UNL     1      20.781   0.946  49.643  1.00  0.00     0.011 C 
HETATM    9  C20 UNL     1      21.813   1.057  50.639  1.00  0.00     0.009 C 
HETATM   10  C21 UNL     1      21.657   2.376  50.849  1.00  0.00     0.094 A 
HETATM   11  N3  UNL     1      20.569   2.573  51.673  1.00  0.00    -0.266 NA
HETATM   12  C22 UNL     1      19.937   3.781  51.470  1.00  0.00     0.228 C 
HETATM   13  N4  UNL     1      20.241   4.735  50.542  1.00  0.00    -0.240 NA
HETATM   14  C23 UNL     1      22.686   3.005  50.063  1.00  0.00     0.021 A 
HETATM   15  C24 UNL     1      22.719   2.490  48.845  1.00  0.00     0.004 C 
HETATM   16  C25 UNL     1      23.102   3.959  48.579  1.00  0.00     0.006 C 
ENDROOT
BRANCH   7  17
HETATM   17  C14 UNL     1      18.315   1.343  49.775  1.00  0.00     0.009 C 
HETATM   18  C15 UNL     1      18.142   0.316  50.580  1.00  0.00     0.015 C 
HETATM   19  C16 UNL     1      16.869  -0.165  51.085  1.00  0.00     0.188 C 
HETATM   20  N2  UNL     1      16.132   0.699  51.958  1.00  0.00    -0.225 N 
HETATM   21  C17 UNL     1      16.001   2.056  51.634  1.00  0.00     0.253 C 
HETATM   22  O2  UNL     1      15.523   2.754  52.602  1.00  0.00    -0.270 OA
HETATM   23  C18 UNL     1      16.189   3.071  50.603  1.00  0.00     0.184 C 
HETATM   24  S1  UNL     1      17.013   2.422  49.121  1.00  0.00    -0.120 SA
BRANCH  20  25
HETATM   25  O1  UNL     1      15.545   0.249  53.098  1.00  0.00    -0.285 OA
HETATM   26  H17 UNL     1      15.942  -0.629  53.328  1.00  0.00     0.245 HD
ENDBRANCH  20  25
ENDBRANCH   7  17
BRANCH   1  27
HETATM   27  C7  UNL     1      22.755   3.595  52.708  1.00  0.00     0.021 C 
BRANCH  27  28
HETATM   28  C6  UNL     1      24.211   3.232  53.014  1.00  0.00     0.031 C 
BRANCH  28  29
HETATM   29  C5  UNL     1      24.433   1.810  53.201  1.00  0.00     0.011 C 
HETATM   30  C4  UNL     1      24.958   0.772  52.558  1.00  0.00     0.095 C 
HETATM   31  F1  UNL     1      25.423   1.140  51.369  1.00  0.00    -0.211 F 
BRANCH  30  32
HETATM   32  C3  UNL     1      24.840  -0.457  53.398  1.00  0.00     0.085 C 
HETATM   33  C2  UNL     1      23.483  -0.427  53.696  1.00  0.00    -0.020 C 
HETATM   34  C1  UNL     1      22.282  -1.042  54.381  1.00  0.00     0.006 C 
ENDBRANCH  30  32
ENDBRANCH  28  29
ENDBRANCH  27  28
ENDBRANCH   1  27
TORSDOF 6
ENDMDL
MODEL 4
REMARK VINA RESULT:      -8.3      4.314      6.381
REMARK  6 active torsions:
REMARK  status: ('A' for Active; 'I' for Inactive)
REMARK    1  A    between atoms: C3_3  and  C4_4 
REMARK    2  A    between atoms: C5_6  and  C6_7 
REMARK    3  A    between atoms: C6_7  and  C7_8 
REMARK    4  A    between atoms: C7_8  and  C8_9 
REMARK    5  A    between atoms: C13_15  and  C14_16 
REMARK    6  A    between atoms: N2_19  and  O1_20 
ROOT
HETATM    1  C8  UNL     1      23.336   2.976  51.521  1.00  0.00     0.021 A 
HETATM    2  C9  UNL     1      23.749   4.337  51.794  1.00  0.00    -0.016 A 
HETATM    3  N1  UNL     1      23.665   4.228  50.495  1.00  0.00     0.000 N 
HETATM    4  C10 UNL     1      22.266   4.560  50.380  1.00  0.00     0.086 C 
HETATM    5  C11 UNL     1      21.399   4.728  49.309  1.00  0.00     0.035 C 
HETATM    6  C12 UNL     1      20.416   3.886  48.913  1.00  0.00     0.015 C 
HETATM    7  C13 UNL     1      20.016   2.599  49.174  1.00  0.00    -0.020 C 
HETATM    8  C19 UNL     1      20.901   1.492  49.150  1.00  0.00     0.011 C 
HETATM    9  C20 UNL     1      21.879   0.993  50.081  1.00  0.00     0.009 C 
HETATM   10  C21 UNL     1      22.048   2.156  50.735  1.00  0.00     0.094 A 
HETATM   11  N3  UNL     1      21.005   2.327  51.621  1.00  0.00    -0.266 NA
HETATM   12  C22 UNL     1      20.706   3.649  51.869  1.00  0.00     0.228 C 
HETATM   13  N4  UNL     1      21.284   4.754  51.311  1.00  0.00    -0.240 NA
HETATM   14  C23 UNL     1      23.238   2.735  50.169  1.00  0.00     0.021 A 
HETATM   15  C24 UNL     1      23.201   2.675  48.849  1.00  0.00     0.004 C 
HETATM   16  C25 UNL     1      23.951   3.999  49.084  1.00  0.00     0.006 C 
ENDROOT
BRANCH   7  17
HETATM   17  C14 UNL     1      18.610   2.426  49.512  1.00  0.00     0.009 C 
HETATM   18  C15 UNL     1      18.160   1.284  49.987  1.00  0.00     0.015 C 
HETATM   19  C16 UNL     1      16.785   0.999  50.357  1.00  0.00     0.188 C 
HETATM   20  N2  UNL     1      16.229   1.727  51.458  1.00  0.00    -0.225 N 
HETATM   21  C17 UNL     1      16.437   3.110  51.545  1.00  0.00     0.253 C 
HETATM   22  O2  UNL     1      16.088   3.595  52.684  1.00  0.00    -0.270 OA
HETATM   23  C18 UNL     1      16.911   4.302  50.849  1.00  0.00     0.184 C 
HETATM   24  S1  UNL     1      17.633   3.927  49.226  1.00  0.00    -0.120 SA
BRANCH  20  25
HETATM   25  O1  UNL     1      15.495   1.124  52.430  1.00  0.00    -0.285 OA
HETATM   26  H17 UNL     1      14.549   1.096  52.135  1.00  0.00     0.245 HD
ENDBRANCH  20  25
ENDBRANCH   7  17
BRANCH   1  27
HETATM   27  C7  UNL     1      23.325   2.351  52.851  1.00  0.00     0.021 C 
BRANCH  27  28
HETATM   28  C6  UNL     1      24.779   2.354  53.333  1.00  0.00     0.031 C 
BRANCH  28  29
HETATM   29  C5  UNL     1      25.512   1.150  52.990  1.00  0.00     0.011 C 
HETATM   30  C4  UNL     1      26.270   0.668  52.011  1.00  0.00     0.095 C 
HETATM   31  F1  UNL     1      26.396   1.556  51.031  1.00  0.00    -0.211 F 
BRANCH  30  32
HETATM   32  C3  UNL     1      26.715  -0.716  52.350  1.00  0.00     0.085 C 
HETATM   33  C2  UNL     1      27.924  -0.444  52.979  1.00  0.00    -0.020 C 
HETATM   34  C1  UNL     1      29.169  -0.934  53.686  1.00  0.00     0.006 C 
ENDBRANCH  30  32
ENDBRANCH  28  29
ENDBRANCH  27  28
ENDBRANCH   1  27
TORSDOF 6
ENDMDL
MODEL 5
REMARK VINA RESULT:      -8.2      5.087      8.613
REMARK  6 active torsions:
REMARK  status: ('A' for Active; 'I' for Inactive)
REMARK    1  A    between atoms: C3_3  and  C4_4 
REMARK    2  A    between atoms: C5_6  and  C6_7 
REMARK    3  A    between atoms: C6_7  and  C7_8 
REMARK    4  A    between atoms: C7_8  and  C8_9 
REMARK    5  A    between atoms: C13_15  and  C14_16 
REMARK    6  A    between atoms: N2_19  and  O1_20 
ROOT
HETATM    1  C8  UNL     1      28.219   8.849  47.972  1.00  0.00     0.021 A 
HETATM    2  C9  UNL     1      27.373   8.540  46.837  1.00  0.00    -0.016 A 
HETATM    3  N1  UNL     1      28.067   9.595  46.506  1.00  0.00     0.000 N 
HETATM    4  C10 UNL     1      29.214   8.896  45.981  1.00  0.00     0.086 C 
HETATM    5  C11 UNL     1      30.393   9.298  45.367  1.00  0.00     0.035 C 
HETATM    6  C12 UNL     1      31.635   9.302  45.904  1.00  0.00     0.015 C 
HETATM    7  C13 UNL     1      32.204   9.159  47.144  1.00  0.00    -0.020 C 
HETATM    8  C19 UNL     1      31.767   9.877  48.286  1.00  0.00     0.011 C 
HETATM    9  C20 UNL     1      30.650   9.720  49.179  1.00  0.00     0.009 C 
HETATM   10  C21 UNL     1      29.892   9.013  48.322  1.00  0.00     0.094 A 
HETATM   11  N3  UNL     1      30.323   7.703  48.318  1.00  0.00    -0.266 NA
HETATM   12  C22 UNL     1      30.103   7.055  47.123  1.00  0.00     0.228 C 
HETATM   13  N4  UNL     1      29.568   7.575  45.979  1.00  0.00    -0.240 NA
HETATM   14  C23 UNL     1      28.984   9.970  47.746  1.00  0.00     0.021 A 
HETATM   15  C24 UNL     1      29.636  11.057  47.369  1.00  0.00     0.004 C 
HETATM   16  C25 UNL     1      28.532  10.961  46.298  1.00  0.00     0.006 C 
ENDROOT
BRANCH   7  17
HETATM   17  C14 UNL     1      33.288   8.191  47.238  1.00  0.00     0.009 C 
HETATM   18  C15 UNL     1      33.983   8.053  48.348  1.00  0.00     0.015 C 
HETATM   19  C16 UNL     1      35.080   7.125  48.557  1.00  0.00     0.188 C 
HETATM   20  N2  UNL     1      34.780   5.724  48.518  1.00  0.00    -0.225 N 
HETATM   21  C17 UNL     1      33.958   5.224  47.500  1.00  0.00     0.253 C 
HETATM   22  O2  UNL     1      33.586   4.011  47.713  1.00  0.00    -0.270 OA
HETATM   23  C18 UNL     1      33.306   5.513  46.228  1.00  0.00     0.184 C 
HETATM   24  S1  UNL     1      33.512   7.241  45.710  1.00  0.00    -0.120 SA
BRANCH  20  25
HETATM   25  O1  UNL     1      35.272   4.852  49.437  1.00  0.00    -0.285 OA
HETATM   26  H17 UNL     1      34.543   4.616  50.065  1.00  0.00     0.245 HD
ENDBRANCH  20  25
ENDBRANCH   7  17
BRANCH   1  27
HETATM   27  C7  UNL     1      27.790   7.877  48.989  1.00  0.00     0.021 C 
BRANCH  27  28
HETATM   28  C6  UNL     1      26.749   6.984  48.308  1.00  0.00     0.031 C 
BRANCH  28  29
HETATM   29  C5  UNL     1      26.618   5.672  48.914  1.00  0.00     0.011 C 
HETATM   30  C4  UNL     1      27.254   4.507  48.958  1.00  0.00     0.095 C 
HETATM   31  F1  UNL     1      28.352   4.540  48.211  1.00  0.00    -0.211 F 
BRANCH  30  32
HETATM   32  C3  UNL     1      26.508   3.554  49.833  1.00  0.00     0.085 C 
HETATM   33  C2  UNL     1      25.234   3.659  49.289  1.00  0.00    -0.020 C 
HETATM   34  C1  UNL     1      23.777   3.250  49.286  1.00  0.00     0.006 C 
ENDBRANCH  30  32
ENDBRANCH  28  29
ENDBRANCH  27  28
ENDBRANCH   1  27
TORSDOF 6
ENDMDL
MODEL 6
REMARK VINA RESULT:      -8.1      5.555      9.534
REMARK  6 active torsions:
REMARK  status: ('A' for Active; 'I' for Inactive)
REMARK    1  A    between atoms: C3_3  and  C4_4 
REMARK    2  A    between atoms: C5_6  and  C6_7 
REMARK    3  A    between atoms: C6_7  and  C7_8 
REMARK    4  A    between atoms: C7_8  and  C8_9 
REMARK    5  A    between atoms: C13_15  and  C14_16 
REMARK    6  A    between atoms: N2_19  and  O1_20 
ROOT
HETATM    1  C8  UNL     1      28.809  10.004  47.467  1.00  0.00     0.021 A 
HETATM    2  C9  UNL     1      29.034  11.237  46.741  1.00  0.00    -0.016 A 
HETATM    3  N1  UNL     1      29.942  11.187  47.678  1.00  0.00     0.000 N 
HETATM    4  C10 UNL     1      30.925  10.440  46.932  1.00  0.00     0.086 C 
HETATM    5  C11 UNL     1      32.220  10.016  47.197  1.00  0.00     0.035 C 
HETATM    6  C12 UNL     1      32.629   8.755  47.469  1.00  0.00     0.015 C 
HETATM    7  C13 UNL     1      32.055   7.549  47.784  1.00  0.00    -0.020 C 
HETATM    8  C19 UNL     1      31.081   7.396  48.803  1.00  0.00     0.011 C 
HETATM    9  C20 UNL     1      29.670   7.674  48.865  1.00  0.00     0.009 C 
HETATM   10  C21 UNL     1      29.665   8.569  47.862  1.00  0.00     0.094 A 
HETATM   11  N3  UNL     1      29.677   7.894  46.659  1.00  0.00    -0.266 NA
HETATM   12  C22 UNL     1      30.282   8.597  45.640  1.00  0.00     0.228 C 
HETATM   13  N4  UNL     1      30.884   9.820  45.714  1.00  0.00    -0.240 NA
HETATM   14  C23 UNL     1      29.699   9.855  48.506  1.00  0.00     0.021 A 
HETATM   15  C24 UNL     1      30.621   9.874  49.454  1.00  0.00     0.004 C 
HETATM   16  C25 UNL     1      30.675  11.322  48.930  1.00  0.00     0.006 C 
ENDROOT
BRANCH   7  17
HETATM   17  C14 UNL     1      32.487   6.411  46.984  1.00  0.00     0.009 C 
HETATM   18  C15 UNL     1      33.372   6.553  46.020  1.00  0.00     0.015 C 
HETATM   19  C16 UNL     1      33.874   5.495  45.163  1.00  0.00     0.188 C 
HETATM   20  N2  UNL     1      34.643   4.453  45.776  1.00  0.00    -0.225 N 
HETATM   21  C17 UNL     1      34.197   3.883  46.975  1.00  0.00     0.253 C 
HETATM   22  O2  UNL     1      35.084   3.134  47.529  1.00  0.00    -0.270 OA
HETATM   23  C18 UNL     1      33.088   3.773  47.916  1.00  0.00     0.184 C 
HETATM   24  S1  UNL     1      31.698   4.860  47.493  1.00  0.00    -0.120 SA
BRANCH  20  25
HETATM   25  O1  UNL     1      35.797   3.987  45.230  1.00  0.00    -0.285 OA
HETATM   26  H17 UNL     1      36.331   3.558  45.946  1.00  0.00     0.245 HD
ENDBRANCH  20  25
ENDBRANCH   7  17
BRANCH   1  27
HETATM   27  C7  UNL     1      27.584   9.467  46.855  1.00  0.00     0.021 C 
BRANCH  27  28
HETATM   28  C6  UNL     1      26.437   9.852  47.794  1.00  0.00     0.031 C 
BRANCH  28  29
HETATM   29  C5  UNL     1      26.073   8.806  48.732  1.00  0.00     0.011 C 
HETATM   30  C4  UNL     1      26.315   8.439  49.985  1.00  0.00     0.095 C 
HETATM   31  F1  UNL     1      27.159   9.283  50.570  1.00  0.00    -0.211 F 
BRANCH  30  32
HETATM   32  C3  UNL     1      25.555   7.194  50.304  1.00  0.00     0.085 C 
HETATM   33  C2  UNL     1      26.257   6.269  49.542  1.00  0.00    -0.020 C 
HETATM   34  C1  UNL     1      26.453   4.845  49.070  1.00  0.00     0.006 C 
ENDBRANCH  30  32
ENDBRANCH  28  29
ENDBRANCH  27  28
ENDBRANCH   1  27
TORSDOF 6
ENDMDL
MODEL 7
REMARK VINA RESULT:      -8.0      4.721      6.570
REMARK  6 active torsions:
REMARK  status: ('A' for Active; 'I' for Inactive)
REMARK    1  A    between atoms: C3_3  and  C4_4 
REMARK    2  A    between atoms: C5_6  and  C6_7 
REMARK    3  A    between atoms: C6_7  and  C7_8 
REMARK    4  A    between atoms: C7_8  and  C8_9 
REMARK    5  A    between atoms: C13_15  and  C14_16 
REMARK    6  A    between atoms: N2_19  and  O1_20 
ROOT
HETATM    1  C8  UNL     1      23.535   2.329  51.118  1.00  0.00     0.021 A 
HETATM    2  C9  UNL     1      24.227   3.511  51.591  1.00  0.00    -0.016 A 
HETATM    3  N1  UNL     1      23.803   3.785  50.386  1.00  0.00     0.000 N 
HETATM    4  C10 UNL     1      22.497   4.265  50.763  1.00  0.00     0.086 C 
HETATM    5  C11 UNL     1      21.429   4.811  50.063  1.00  0.00     0.035 C 
HETATM    6  C12 UNL     1      20.252   4.213  49.769  1.00  0.00     0.015 C 
HETATM    7  C13 UNL     1      19.720   2.949  49.806  1.00  0.00    -0.020 C 
HETATM    8  C19 UNL     1      20.371   1.816  49.255  1.00  0.00     0.011 C 
HETATM    9  C20 UNL     1      21.452   0.984  49.712  1.00  0.00     0.009 C 
HETATM   10  C21 UNL     1      21.973   1.891  50.557  1.00  0.00     0.094 A 
HETATM   11  N3  UNL     1      21.229   1.899  51.718  1.00  0.00    -0.266 NA
HETATM   12  C22 UNL     1      21.229   3.118  52.362  1.00  0.00     0.228 C 
HETATM   13  N4  UNL     1      21.826   4.276  51.955  1.00  0.00    -0.240 NA
HETATM   14  C23 UNL     1      23.064   2.493  49.836  1.00  0.00     0.021 A 
HETATM   15  C24 UNL     1      22.687   2.816  48.610  1.00  0.00     0.004 C 
HETATM   16  C25 UNL     1      23.684   3.942  48.942  1.00  0.00     0.006 C 
ENDROOT
BRANCH   7  17
HETATM   17  C14 UNL     1      18.434   2.819  50.478  1.00  0.00     0.009 C 
HETATM   18  C15 UNL     1      17.857   3.855  51.049  1.00  0.00     0.015 C 
HETATM   19  C16 UNL     1      16.583   3.844  51.744  1.00  0.00     0.188 C 
HETATM   20  N2  UNL     1      15.409   3.559  50.974  1.00  0.00    -0.225 N 
HETATM   21  C17 UNL     1      15.427   2.499  50.058  1.00  0.00     0.253 C 
HETATM   22  O2  UNL     1      14.404   2.498  49.279  1.00  0.00    -0.270 OA
HETATM   23  C18 UNL     1      16.160   1.329  49.585  1.00  0.00     0.184 C 
HETATM   24  S1  UNL     1      17.770   1.133  50.398  1.00  0.00    -0.120 SA
BRANCH  20  25
HETATM   25  O1  UNL     1      14.264   4.280  51.103  1.00  0.00    -0.285 OA
HETATM   26  H17 UNL     1      13.514   3.742  50.743  1.00  0.00     0.245 HD
ENDBRANCH  20  25
ENDBRANCH   7  17
BRANCH   1  27
HETATM   27  C7  UNL     1      23.753   1.354  52.198  1.00  0.00     0.021 C 
BRANCH  27  28
HETATM   28  C6  UNL     1      25.201   1.548  52.657  1.00  0.00     0.031 C 
BRANCH  28  29
HETATM   29  C5  UNL     1      25.987   0.328  52.647  1.00  0.00     0.011 C 
HETATM   30  C4  UNL     1      26.040  -0.849  53.260  1.00  0.00     0.095 C 
HETATM   31  F1  UNL     1      25.083  -0.948  54.176  1.00  0.00    -0.211 F 
BRANCH  30  32
HETATM   32  C3  UNL     1      27.167  -1.658  52.708  1.00  0.00     0.085 C 
HETATM   33  C2  UNL     1      28.251  -0.995  53.270  1.00  0.00    -0.020 C 
HETATM   34  C1  UNL     1      29.746  -0.859  53.458  1.00  0.00     0.006 C 
ENDBRANCH  30  32
ENDBRANCH  28  29
ENDBRANCH  27  28
ENDBRANCH   1  27
TORSDOF 6
ENDMDL
MODEL 8
REMARK VINA RESULT:      -7.9      4.291      5.622
REMARK  6 active torsions:
REMARK  status: ('A' for Active; 'I' for Inactive)
REMARK    1  A    between atoms: C3_3  and  C4_4 
REMARK    2  A    between atoms: C5_6  and  C6_7 
REMARK    3  A    between atoms: C6_7  and  C7_8 
REMARK    4  A    between atoms: C7_8  and  C8_9 
REMARK    5  A    between atoms: C13_15  and  C14_16 
REMARK    6  A    between atoms: N2_19  and  O1_20 
ROOT
HETATM    1  C8  UNL     1      21.461   2.322  51.349  1.00  0.00     0.021 A 
HETATM    2  C9  UNL     1      20.477   2.698  52.344  1.00  0.00    -0.016 A 
HETATM    3  N1  UNL     1      21.313   3.697  52.253  1.00  0.00     0.000 N 
HETATM    4  C10 UNL     1      20.647   4.387  51.175  1.00  0.00     0.086 C 
HETATM    5  C11 UNL     1      20.867   5.588  50.514  1.00  0.00     0.035 C 
HETATM    6  C12 UNL     1      21.354   5.755  49.263  1.00  0.00     0.015 C 
HETATM    7  C13 UNL     1      21.965   4.991  48.302  1.00  0.00    -0.020 C 
HETATM    8  C19 UNL     1      23.082   4.158  48.566  1.00  0.00     0.011 C 
HETATM    9  C20 UNL     1      23.220   2.861  49.172  1.00  0.00     0.009 C 
HETATM   10  C21 UNL     1      22.059   2.903  49.849  1.00  0.00     0.094 A 
HETATM   11  N3  UNL     1      21.026   2.605  48.985  1.00  0.00    -0.266 NA
HETATM   12  C22 UNL     1      19.830   3.195  49.332  1.00  0.00     0.228 C 
HETATM   13  N4  UNL     1      19.592   4.046  50.374  1.00  0.00    -0.240 NA
HETATM   14  C23 UNL     1      22.417   3.297  51.186  1.00  0.00     0.021 A 
HETATM   15  C24 UNL     1      23.249   4.326  51.158  1.00  0.00     0.004 C 
HETATM   16  C25 UNL     1      22.434   4.611  52.435  1.00  0.00     0.006 C 
ENDROOT
BRANCH   7  17
HETATM   17  C14 UNL     1      21.379   5.057  46.969  1.00  0.00     0.009 C 
HETATM   18  C15 UNL     1      21.914   4.405  45.958  1.00  0.00     0.015 C 
HETATM   19  C16 UNL     1      21.419   4.396  44.593  1.00  0.00     0.188 C 
HETATM   20  N2  UNL     1      20.137   3.803  44.356  1.00  0.00    -0.225 N 
HETATM   21  C17 UNL     1      19.071   4.098  45.216  1.00  0.00     0.253 C 
HETATM   22  O2  UNL     1      18.055   3.332  45.030  1.00  0.00    -0.270 OA
HETATM   23  C18 UNL     1      18.599   4.957  46.297  1.00  0.00     0.184 C 
HETATM   24  S1  UNL     1      19.884   6.081  46.913  1.00  0.00    -0.120 SA
BRANCH  20  25
HETATM   25  O1  UNL     1      19.910   2.960  43.314  1.00  0.00    -0.285 OA
HETATM   26  H17 UNL     1      18.932   2.833  43.222  1.00  0.00     0.245 HD
ENDBRANCH  20  25
ENDBRANCH   7  17
BRANCH   1  27
HETATM   27  C7  UNL     1      21.092   0.939  51.013  1.00  0.00     0.021 C 
BRANCH  27  28
HETATM   28  C6  UNL     1      21.253   0.132  52.305  1.00  0.00     0.031 C 
BRANCH  28  29
HETATM   29  C5  UNL     1      22.634  -0.093  52.687  1.00  0.00     0.011 C 
HETATM   30  C4  UNL     1      23.347  -0.456  53.748  1.00  0.00     0.095 C 
HETATM   31  F1  UNL     1      22.557  -0.679  54.793  1.00  0.00    -0.211 F 
BRANCH  30  32
HETATM   32  C3  UNL     1      24.798  -0.483  53.398  1.00  0.00     0.085 C 
HETATM   33  C2  UNL     1      24.891   0.664  52.620  1.00  0.00    -0.020 C 
HETATM   34  C1  UNL     1      25.723   1.614  51.787  1.00  0.00     0.006 C 
ENDBRANCH  30  32
ENDBRANCH  28  29
ENDBRANCH  27  28
ENDBRANCH   1  27
TORSDOF 6
ENDMDL
MODEL 9
REMARK VINA RESULT:      -7.7      1.998      2.991
REMARK  6 active torsions:
REMARK  status: ('A' for Active; 'I' for Inactive)
REMARK    1  A    between atoms: C3_3  and  C4_4 
REMARK    2  A    between atoms: C5_6  and  C6_7 
REMARK    3  A    between atoms: C6_7  and  C7_8 
REMARK    4  A    between atoms: C7_8  and  C8_9 
REMARK    5  A    between atoms: C13_15  and  C14_16 
REMARK    6  A    between atoms: N2_19  and  O1_20 
ROOT
HETATM    1  C8  UNL     1      23.408   3.023  51.024  1.00  0.00     0.021 A 
HETATM    2  C9  UNL     1      22.974   2.143  49.958  1.00  0.00    -0.016 A 
HETATM    3  N1  UNL     1      22.062   3.071  50.066  1.00  0.00     0.000 N 
HETATM    4  C10 UNL     1      22.675   4.026  49.176  1.00  0.00     0.086 C 
HETATM    5  C11 UNL     1      22.303   5.274  48.693  1.00  0.00     0.035 C 
HETATM    6  C12 UNL     1      22.813   6.475  49.052  1.00  0.00     0.015 C 
HETATM    7  C13 UNL     1      23.624   6.979  50.037  1.00  0.00    -0.020 C 
HETATM    8  C19 UNL     1      23.430   6.710  51.416  1.00  0.00     0.011 C 
HETATM    9  C20 UNL     1      23.731   5.577  52.249  1.00  0.00     0.009 C 
HETATM   10  C21 UNL     1      23.787   4.683  51.246  1.00  0.00     0.094 A 
HETATM   11  N3  UNL     1      25.010   4.792  50.617  1.00  0.00    -0.266 NA
HETATM   12  C22 UNL     1      24.977   4.440  49.286  1.00  0.00     0.228 C 
HETATM   13  N4  UNL     1      23.892   4.057  48.551  1.00  0.00    -0.240 NA
HETATM   14  C23 UNL     1      22.502   4.035  51.247  1.00  0.00     0.021 A 
HETATM   15  C24 UNL     1      21.532   4.930  51.332  1.00  0.00     0.004 C 
HETATM   16  C25 UNL     1      20.889   3.848  50.443  1.00  0.00     0.006 C 
ENDROOT
BRANCH   7  17
HETATM   17  C14 UNL     1      24.738   7.801  49.585  1.00  0.00     0.009 C 
HETATM   18  C15 UNL     1      25.568   8.355  50.444  1.00  0.00     0.015 C 
HETATM   19  C16 UNL     1      26.708   9.189  50.110  1.00  0.00     0.188 C 
HETATM   20  N2  UNL     1      27.788   8.581  49.390  1.00  0.00    -0.225 N 
HETATM   21  C17 UNL     1      27.506   7.751  48.297  1.00  0.00     0.253 C 
HETATM   22  O2  UNL     1      28.536   7.096  47.892  1.00  0.00    -0.270 OA
HETATM   23  C18 UNL     1      26.478   7.288  47.371  1.00  0.00     0.184 C 
HETATM   24  S1  UNL     1      24.828   7.924  47.778  1.00  0.00    -0.120 SA
BRANCH  20  25
HETATM   25  O1  UNL     1      29.089   8.786  49.726  1.00  0.00    -0.285 OA
HETATM   26  H17 UNL     1      29.256   9.762  49.749  1.00  0.00     0.245 HD
ENDBRANCH  20  25
ENDBRANCH   7  17
BRANCH   1  27
HETATM   27  C7  UNL     1      24.617   2.365  51.538  1.00  0.00     0.021 C 
BRANCH  27  28
HETATM   28  C6  UNL     1      24.315   2.002  52.995  1.00  0.00     0.031 C 
BRANCH  28  29
HETATM   29  C5  UNL     1      23.339   0.939  53.144  1.00  0.00     0.011 C 
HETATM   30  C4  UNL     1      23.285  -0.387  53.201  1.00  0.00     0.095 C 
HETATM   31  F1  UNL     1      24.499  -0.915  53.077  1.00  0.00    -0.211 F 
BRANCH  30  32
HETATM   32  C3  UNL     1      21.871  -0.830  53.380  1.00  0.00     0.085 C 
HETATM   33  C2  UNL     1      21.240  -0.050  52.419  1.00  0.00    -0.020 C 
HETATM   34  C1  UNL     1      19.976   0.374  51.704  1.00  0.00     0.006 C 
ENDBRANCH  30  32
ENDBRANCH  28  29
ENDBRANCH  27  28
ENDBRANCH   1  27
TORSDOF 6
ENDMDL
