MODEL 1
REMARK VINA RESULT:      -7.5      0.000      0.000
REMARK  4 active torsions:
REMARK  status: ('A' for Active; 'I' for Inactive)
REMARK    1  A    between atoms: C9_12  and  C11_14 
REMARK    2  A    between atoms: C11_14  and  S2_15 
REMARK    3  A    between atoms: S2_15  and  N2_16 
REMARK    4  A    between atoms: N2_16  and  C12_17 
ROOT
HETATM    1  C1  UNL     1      26.569   2.255  51.169  1.00  0.00     0.042 C 
HETATM    2  C2  UNL     1      25.922   3.289  50.657  1.00  0.00    -0.045 C 
HETATM    3  C3  UNL     1      26.624   4.088  49.675  1.00  0.00     0.006 C 
HETATM    4  C4  UNL     1      26.559   5.146  48.910  1.00  0.00     0.002 C 
HETATM    5  C5  UNL     1      25.950   6.307  48.370  1.00  0.00     0.026 C 
HETATM    6  C6  UNL     1      24.836   7.056  48.459  1.00  0.00     0.221 C 
HETATM    7  N1  UNL     1      24.458   6.076  49.475  1.00  0.00     0.055 N 
HETATM    8  C7  UNL     1      25.070   6.602  50.686  1.00  0.00     0.299 C 
HETATM    9  C8  UNL     1      23.754   4.909  49.971  1.00  0.00     0.397 A 
HETATM   10  S1  UNL     1      23.127   4.906  48.490  1.00  0.00     0.140 SA
HETATM   11  O1  UNL     1      23.886   4.369  51.286  1.00  0.00    -0.322 OA
HETATM   12  C9  UNL     1      24.568   3.066  51.276  1.00  0.00     0.095 C 
HETATM   13  C10 UNL     1      23.705   2.238  50.361  1.00  0.00     0.052 C 
ENDROOT
BRANCH  12  14
HETATM   14  C11 UNL     1      24.573   2.577  52.661  1.00  0.00     0.140 C 
BRANCH  14  15
HETATM   15  S2  UNL     1      23.461   1.162  52.834  1.00  0.00    -0.052 SA
BRANCH  15  16
HETATM   16  N2  UNL     1      24.203  -0.066  53.852  1.00  0.00    -0.330 N 
HETATM   17  H15 UNL     1      23.783  -0.737  54.563  1.00  0.00     0.174 HD
BRANCH  16  18
HETATM   18  C12 UNL     1      25.632  -0.255  53.772  1.00  0.00     0.038 A 
HETATM   19  C13 UNL     1      26.298  -0.992  52.816  1.00  0.00     0.030 A 
HETATM   20  C14 UNL     1      27.667  -1.134  52.798  1.00  0.00     0.002 A 
HETATM   21  C15 UNL     1      28.436  -0.525  53.767  1.00  0.00     0.000 A 
HETATM   22  C16 UNL     1      27.841   0.225  54.752  1.00  0.00     0.002 A 
HETATM   23  C17 UNL     1      26.467   0.330  54.716  1.00  0.00     0.030 A 
ENDBRANCH  16  18
ENDBRANCH  15  16
ENDBRANCH  14  15
ENDBRANCH  12  14
TORSDOF 4
ENDMDL
MODEL 2
REMARK VINA RESULT:      -7.4      2.062      3.021
REMARK  4 active torsions:
REMARK  status: ('A' for Active; 'I' for Inactive)
REMARK    1  A    between atoms: C9_12  and  C11_14 
REMARK    2  A    between atoms: C11_14  and  S2_15 
REMARK    3  A    between atoms: S2_15  and  N2_16 
REMARK    4  A    between atoms: N2_16  and  C12_17 
ROOT
HETATM    1  C1  UNL     1      21.185   0.464  50.498  1.00  0.00     0.042 C 
HETATM    2  C2  UNL     1      22.063   1.422  50.741  1.00  0.00    -0.045 C 
HETATM    3  C3  UNL     1      22.642   2.095  49.597  1.00  0.00     0.006 C 
HETATM    4  C4  UNL     1      23.502   3.000  49.207  1.00  0.00     0.002 C 
HETATM    5  C5  UNL     1      24.499   3.991  49.393  1.00  0.00     0.026 C 
HETATM    6  C6  UNL     1      25.221   4.598  50.351  1.00  0.00     0.221 C 
HETATM    7  N1  UNL     1      24.481   3.705  51.242  1.00  0.00     0.055 N 
HETATM    8  C7  UNL     1      25.278   2.488  51.225  1.00  0.00     0.299 C 
HETATM    9  C8  UNL     1      23.436   3.374  52.191  1.00  0.00     0.397 A 
HETATM   10  S1  UNL     1      23.089   4.938  52.050  1.00  0.00     0.140 SA
HETATM   11  O1  UNL     1      23.205   2.074  52.736  1.00  0.00    -0.322 OA
HETATM   12  C9  UNL     1      21.950   1.490  52.240  1.00  0.00     0.095 C 
HETATM   13  C10 UNL     1      20.918   2.511  52.640  1.00  0.00     0.052 C 
ENDROOT
BRANCH  12  14
HETATM   14  C11 UNL     1      21.781   0.202  52.925  1.00  0.00     0.140 C 
BRANCH  14  15
HETATM   15  S2  UNL     1      23.260  -0.204  53.882  1.00  0.00    -0.052 SA
BRANCH  15  16
HETATM   16  N2  UNL     1      24.552  -0.718  52.805  1.00  0.00    -0.330 N 
HETATM   17  H15 UNL     1      24.527  -1.133  51.826  1.00  0.00     0.174 HD
BRANCH  16  18
HETATM   18  C12 UNL     1      25.917  -0.593  53.258  1.00  0.00     0.038 A 
HETATM   19  C13 UNL     1      27.016  -1.205  52.692  1.00  0.00     0.030 A 
HETATM   20  C14 UNL     1      28.295  -1.046  53.177  1.00  0.00     0.002 A 
HETATM   21  C15 UNL     1      28.520  -0.246  54.275  1.00  0.00     0.000 A 
HETATM   22  C16 UNL     1      27.474   0.396  54.892  1.00  0.00     0.002 A 
HETATM   23  C17 UNL     1      26.218   0.197  54.361  1.00  0.00     0.030 A 
ENDBRANCH  16  18
ENDBRANCH  15  16
ENDBRANCH  14  15
ENDBRANCH  12  14
TORSDOF 4
ENDMDL
MODEL 3
REMARK VINA RESULT:      -7.3      2.533      4.495
REMARK  4 active torsions:
REMARK  status: ('A' for Active; 'I' for Inactive)
REMARK    1  A    between atoms: C9_12  and  C11_14 
REMARK    2  A    between atoms: C11_14  and  S2_15 
REMARK    3  A    between atoms: S2_15  and  N2_16 
REMARK    4  A    between atoms: N2_16  and  C12_17 
ROOT
HETATM    1  C1  UNL     1      23.172   5.733  50.923  1.00  0.00     0.042 C 
HETATM    2  C2  UNL     1      22.830   4.464  51.070  1.00  0.00    -0.045 C 
HETATM    3  C3  UNL     1      21.686   4.181  51.912  1.00  0.00     0.006 C 
HETATM    4  C4  UNL     1      20.948   3.236  52.434  1.00  0.00     0.002 C 
HETATM    5  C5  UNL     1      20.567   1.894  52.689  1.00  0.00     0.026 C 
HETATM    6  C6  UNL     1      20.930   0.625  52.433  1.00  0.00     0.221 C 
HETATM    7  N1  UNL     1      22.025   1.261  51.702  1.00  0.00     0.055 N 
HETATM    8  C7  UNL     1      23.026   1.482  52.735  1.00  0.00     0.299 C 
HETATM    9  C8  UNL     1      22.705   1.731  50.511  1.00  0.00     0.397 A 
HETATM   10  S1  UNL     1      21.438   1.073  49.771  1.00  0.00     0.140 SA
HETATM   11  O1  UNL     1      23.949   2.432  50.499  1.00  0.00    -0.322 OA
HETATM   12  C9  UNL     1      23.782   3.835  50.090  1.00  0.00     0.095 C 
HETATM   13  C10 UNL     1      23.135   3.718  48.735  1.00  0.00     0.052 C 
ENDROOT
BRANCH  12  14
HETATM   14  C11 UNL     1      25.125   4.426  50.037  1.00  0.00     0.140 C 
BRANCH  14  15
HETATM   15  S2  UNL     1      26.380   3.174  50.394  1.00  0.00    -0.052 SA
BRANCH  15  16
HETATM   16  N2  UNL     1      26.401   2.816  52.116  1.00  0.00    -0.330 N 
HETATM   17  H15 UNL     1      25.940   3.305  52.940  1.00  0.00     0.174 HD
BRANCH  16  18
HETATM   18  C12 UNL     1      27.162   1.678  52.573  1.00  0.00     0.038 A 
HETATM   19  C13 UNL     1      28.344   1.728  53.283  1.00  0.00     0.030 A 
HETATM   20  C14 UNL     1      29.023   0.602  53.689  1.00  0.00     0.002 A 
HETATM   21  C15 UNL     1      28.525  -0.648  53.389  1.00  0.00     0.000 A 
HETATM   22  C16 UNL     1      27.353  -0.775  52.685  1.00  0.00     0.002 A 
HETATM   23  C17 UNL     1      26.720   0.389  52.306  1.00  0.00     0.030 A 
ENDBRANCH  16  18
ENDBRANCH  15  16
ENDBRANCH  14  15
ENDBRANCH  12  14
TORSDOF 4
ENDMDL
MODEL 4
REMARK VINA RESULT:      -7.2      2.760      6.103
REMARK  4 active torsions:
REMARK  status: ('A' for Active; 'I' for Inactive)
REMARK    1  A    between atoms: C9_12  and  C11_14 
REMARK    2  A    between atoms: C11_14  and  S2_15 
REMARK    3  A    between atoms: S2_15  and  N2_16 
REMARK    4  A    between atoms: N2_16  and  C12_17 
ROOT
HETATM    1  C1  UNL     1      23.975  -0.118  53.626  1.00  0.00     0.042 C 
HETATM    2  C2  UNL     1      23.178   0.530  52.793  1.00  0.00    -0.045 C 
HETATM    3  C3  UNL     1      21.770   0.192  52.827  1.00  0.00     0.006 C 
HETATM    4  C4  UNL     1      20.600   0.417  52.288  1.00  0.00     0.002 C 
HETATM    5  C5  UNL     1      19.700   1.024  51.376  1.00  0.00     0.026 C 
HETATM    6  C6  UNL     1      19.661   1.883  50.342  1.00  0.00     0.221 C 
HETATM    7  N1  UNL     1      21.107   1.942  50.551  1.00  0.00     0.055 N 
HETATM    8  C7  UNL     1      21.598   0.815  49.771  1.00  0.00     0.299 C 
HETATM    9  C8  UNL     1      22.336   2.534  51.041  1.00  0.00     0.397 A 
HETATM   10  S1  UNL     1      21.346   3.711  51.510  1.00  0.00     0.140 SA
HETATM   11  O1  UNL     1      23.633   1.948  50.925  1.00  0.00    -0.322 OA
HETATM   12  C9  UNL     1      24.158   1.522  52.231  1.00  0.00     0.095 C 
HETATM   13  C10 UNL     1      24.135   2.794  53.037  1.00  0.00     0.052 C 
ENDROOT
BRANCH  12  14
HETATM   14  C11 UNL     1      25.517   1.014  51.998  1.00  0.00     0.140 C 
BRANCH  14  15
HETATM   15  S2  UNL     1      26.623   2.364  51.524  1.00  0.00    -0.052 SA
BRANCH  15  16
HETATM   16  N2  UNL     1      26.505   2.660  49.794  1.00  0.00    -0.330 N 
HETATM   17  H15 UNL     1      26.443   1.990  48.970  1.00  0.00     0.174 HD
BRANCH  16  18
HETATM   18  C12 UNL     1      26.492   4.026  49.328  1.00  0.00     0.038 A 
HETATM   19  C13 UNL     1      27.561   4.705  48.783  1.00  0.00     0.030 A 
HETATM   20  C14 UNL     1      27.482   6.012  48.358  1.00  0.00     0.002 A 
HETATM   21  C15 UNL     1      26.294   6.701  48.470  1.00  0.00     0.000 A 
HETATM   22  C16 UNL     1      25.186   6.090  49.004  1.00  0.00     0.002 A 
HETATM   23  C17 UNL     1      25.328   4.781  49.411  1.00  0.00     0.030 A 
ENDBRANCH  16  18
ENDBRANCH  15  16
ENDBRANCH  14  15
ENDBRANCH  12  14
TORSDOF 4
ENDMDL
MODEL 5
REMARK VINA RESULT:      -7.0      1.485      2.243
REMARK  4 active torsions:
REMARK  status: ('A' for Active; 'I' for Inactive)
REMARK    1  A    between atoms: C9_12  and  C11_14 
REMARK    2  A    between atoms: C11_14  and  S2_15 
REMARK    3  A    between atoms: S2_15  and  N2_16 
REMARK    4  A    between atoms: N2_16  and  C12_17 
ROOT
HETATM    1  C1  UNL     1      27.053   4.298  48.969  1.00  0.00     0.042 C 
HETATM    2  C2  UNL     1      25.953   4.946  49.315  1.00  0.00    -0.045 C 
HETATM    3  C3  UNL     1      25.735   6.246  48.715  1.00  0.00     0.006 C 
HETATM    4  C4  UNL     1      24.950   7.291  48.678  1.00  0.00     0.002 C 
HETATM    5  C5  UNL     1      23.827   8.070  49.054  1.00  0.00     0.026 C 
HETATM    6  C6  UNL     1      22.768   8.067  49.884  1.00  0.00     0.221 C 
HETATM    7  N1  UNL     1      23.315   6.779  50.309  1.00  0.00     0.055 N 
HETATM    8  C7  UNL     1      24.284   7.152  51.328  1.00  0.00     0.299 C 
HETATM    9  C8  UNL     1      23.383   5.331  50.336  1.00  0.00     0.397 A 
HETATM   10  S1  UNL     1      22.098   5.452  49.377  1.00  0.00     0.140 SA
HETATM   11  O1  UNL     1      24.356   4.569  51.051  1.00  0.00    -0.322 OA
HETATM   12  C9  UNL     1      25.287   3.882  50.143  1.00  0.00     0.095 C 
HETATM   13  C10 UNL     1      24.371   3.049  49.286  1.00  0.00     0.052 C 
ENDROOT
BRANCH  12  14
HETATM   14  C11 UNL     1      26.181   3.074  50.982  1.00  0.00     0.140 C 
BRANCH  14  15
HETATM   15  S2  UNL     1      25.377   2.662  52.549  1.00  0.00    -0.052 SA
BRANCH  15  16
HETATM   16  N2  UNL     1      26.588   2.399  53.797  1.00  0.00    -0.330 N 
HETATM   17  H15 UNL     1      26.820   2.950  54.677  1.00  0.00     0.174 HD
BRANCH  16  18
HETATM   18  C12 UNL     1      27.467   1.261  53.675  1.00  0.00     0.038 A 
HETATM   19  C13 UNL     1      28.807   1.235  54.003  1.00  0.00     0.030 A 
HETATM   20  C14 UNL     1      29.592   0.113  53.860  1.00  0.00     0.002 A 
HETATM   21  C15 UNL     1      29.044  -1.053  53.371  1.00  0.00     0.000 A 
HETATM   22  C16 UNL     1      27.716  -1.101  53.023  1.00  0.00     0.002 A 
HETATM   23  C17 UNL     1      26.983   0.054  53.188  1.00  0.00     0.030 A 
ENDBRANCH  16  18
ENDBRANCH  15  16
ENDBRANCH  14  15
ENDBRANCH  12  14
TORSDOF 4
ENDMDL
MODEL 6
REMARK VINA RESULT:      -7.0      2.596      3.383
REMARK  4 active torsions:
REMARK  status: ('A' for Active; 'I' for Inactive)
REMARK    1  A    between atoms: C9_12  and  C11_14 
REMARK    2  A    between atoms: C11_14  and  S2_15 
REMARK    3  A    between atoms: S2_15  and  N2_16 
REMARK    4  A    between atoms: N2_16  and  C12_17 
ROOT
HETATM    1  C1  UNL     1      26.469   3.289  49.820  1.00  0.00     0.042 C 
HETATM    2  C2  UNL     1      26.174   4.535  49.487  1.00  0.00    -0.045 C 
HETATM    3  C3  UNL     1      27.149   5.258  48.699  1.00  0.00     0.006 C 
HETATM    4  C4  UNL     1      27.441   6.405  48.143  1.00  0.00     0.002 C 
HETATM    5  C5  UNL     1      27.219   7.765  47.809  1.00  0.00     0.026 C 
HETATM    6  C6  UNL     1      26.347   8.772  47.995  1.00  0.00     0.221 C 
HETATM    7  N1  UNL     1      25.630   7.781  48.796  1.00  0.00     0.055 N 
HETATM    8  C7  UNL     1      26.254   7.899  50.105  1.00  0.00     0.299 C 
HETATM    9  C8  UNL     1      24.595   6.794  49.038  1.00  0.00     0.397 A 
HETATM   10  S1  UNL     1      24.123   7.220  47.562  1.00  0.00     0.140 SA
HETATM   11  O1  UNL     1      24.460   6.024  50.233  1.00  0.00    -0.322 OA
HETATM   12  C9  UNL     1      24.762   4.603  50.003  1.00  0.00     0.095 C 
HETATM   13  C10 UNL     1      23.790   4.220  48.919  1.00  0.00     0.052 C 
ENDROOT
BRANCH  12  14
HETATM   14  C11 UNL     1      24.513   3.904  51.271  1.00  0.00     0.140 C 
BRANCH  14  15
HETATM   15  S2  UNL     1      22.959   2.985  51.191  1.00  0.00    -0.052 SA
BRANCH  15  16
HETATM   16  N2  UNL     1      23.254   1.275  51.484  1.00  0.00    -0.330 N 
HETATM   17  H15 UNL     1      23.834   0.562  50.950  1.00  0.00     0.174 HD
BRANCH  16  18
HETATM   18  C12 UNL     1      22.629   0.655  52.628  1.00  0.00     0.038 A 
HETATM   19  C13 UNL     1      21.375   0.948  53.122  1.00  0.00     0.030 A 
HETATM   20  C14 UNL     1      20.837   0.318  54.222  1.00  0.00     0.002 A 
HETATM   21  C15 UNL     1      21.559  -0.653  54.881  1.00  0.00     0.000 A 
HETATM   22  C16 UNL     1      22.815  -0.998  54.445  1.00  0.00     0.002 A 
HETATM   23  C17 UNL     1      23.299  -0.332  53.340  1.00  0.00     0.030 A 
ENDBRANCH  16  18
ENDBRANCH  15  16
ENDBRANCH  14  15
ENDBRANCH  12  14
TORSDOF 4
ENDMDL
MODEL 7
REMARK VINA RESULT:      -6.8      1.756      2.502
REMARK  4 active torsions:
REMARK  status: ('A' for Active; 'I' for Inactive)
REMARK    1  A    between atoms: C9_12  and  C11_14 
REMARK    2  A    between atoms: C11_14  and  S2_15 
REMARK    3  A    between atoms: S2_15  and  N2_16 
REMARK    4  A    between atoms: N2_16  and  C12_17 
ROOT
HETATM    1  C1  UNL     1      22.363   3.018  49.131  1.00  0.00     0.042 C 
HETATM    2  C2  UNL     1      23.110   4.101  49.270  1.00  0.00    -0.045 C 
HETATM    3  C3  UNL     1      23.131   5.035  48.164  1.00  0.00     0.006 C 
HETATM    4  C4  UNL     1      23.645   6.150  47.713  1.00  0.00     0.002 C 
HETATM    5  C5  UNL     1      24.475   7.298  47.767  1.00  0.00     0.026 C 
HETATM    6  C6  UNL     1      25.387   7.909  48.545  1.00  0.00     0.221 C 
HETATM    7  N1  UNL     1      25.161   6.761  49.424  1.00  0.00     0.055 N 
HETATM    8  C7  UNL     1      26.079   5.760  48.901  1.00  0.00     0.299 C 
HETATM    9  C8  UNL     1      24.587   6.082  50.569  1.00  0.00     0.397 A 
HETATM   10  S1  UNL     1      23.974   7.538  50.872  1.00  0.00     0.140 SA
HETATM   11  O1  UNL     1      24.770   4.701  50.880  1.00  0.00    -0.322 OA
HETATM   12  C9  UNL     1      23.528   3.933  50.705  1.00  0.00     0.095 C 
HETATM   13  C10 UNL     1      22.561   4.640  51.618  1.00  0.00     0.052 C 
ENDROOT
BRANCH  12  14
HETATM   14  C11 UNL     1      23.816   2.556  51.128  1.00  0.00     0.140 C 
BRANCH  14  15
HETATM   15  S2  UNL     1      24.733   2.553  52.686  1.00  0.00    -0.052 SA
BRANCH  15  16
HETATM   16  N2  UNL     1      26.463   2.587  52.367  1.00  0.00    -0.330 N 
HETATM   17  H15 UNL     1      27.080   3.332  51.925  1.00  0.00     0.174 HD
BRANCH  16  18
HETATM   18  C12 UNL     1      27.253   1.436  52.733  1.00  0.00     0.038 A 
HETATM   19  C13 UNL     1      26.900   0.117  52.538  1.00  0.00     0.030 A 
HETATM   20  C14 UNL     1      27.702  -0.937  52.914  1.00  0.00     0.002 A 
HETATM   21  C15 UNL     1      28.918  -0.697  53.514  1.00  0.00     0.000 A 
HETATM   22  C16 UNL     1      29.337   0.591  53.741  1.00  0.00     0.002 A 
HETATM   23  C17 UNL     1      28.490   1.604  53.343  1.00  0.00     0.030 A 
ENDBRANCH  16  18
ENDBRANCH  15  16
ENDBRANCH  14  15
ENDBRANCH  12  14
TORSDOF 4
ENDMDL
MODEL 8
REMARK VINA RESULT:      -6.8      1.889      6.348
REMARK  4 active torsions:
REMARK  status: ('A' for Active; 'I' for Inactive)
REMARK    1  A    between atoms: C9_12  and  C11_14 
REMARK    2  A    between atoms: C11_14  and  S2_15 
REMARK    3  A    between atoms: S2_15  and  N2_16 
REMARK    4  A    between atoms: N2_16  and  C12_17 
ROOT
HETATM    1  C1  UNL     1      21.591   1.567  52.563  1.00  0.00     0.042 C 
HETATM    2  C2  UNL     1      22.912   1.519  52.597  1.00  0.00    -0.045 C 
HETATM    3  C3  UNL     1      23.517   0.305  53.105  1.00  0.00     0.006 C 
HETATM    4  C4  UNL     1      24.644  -0.288  53.402  1.00  0.00     0.002 C 
HETATM    5  C5  UNL     1      26.053  -0.383  53.528  1.00  0.00     0.026 C 
HETATM    6  C6  UNL     1      27.180   0.331  53.359  1.00  0.00     0.221 C 
HETATM    7  N1  UNL     1      26.254   1.386  52.951  1.00  0.00     0.055 N 
HETATM    8  C7  UNL     1      25.888   2.010  54.213  1.00  0.00     0.299 C 
HETATM    9  C8  UNL     1      25.549   2.207  51.986  1.00  0.00     0.397 A 
HETATM   10  S1  UNL     1      26.423   1.367  50.931  1.00  0.00     0.140 SA
HETATM   11  O1  UNL     1      24.580   3.205  52.312  1.00  0.00    -0.322 OA
HETATM   12  C9  UNL     1      23.227   2.810  51.893  1.00  0.00     0.095 C 
HETATM   13  C10 UNL     1      23.385   2.574  50.414  1.00  0.00     0.052 C 
ENDROOT
BRANCH  12  14
HETATM   14  C11 UNL     1      22.339   3.938  52.203  1.00  0.00     0.140 C 
BRANCH  14  15
HETATM   15  S2  UNL     1      22.693   5.338  51.115  1.00  0.00    -0.052 SA
BRANCH  15  16
HETATM   16  N2  UNL     1      24.227   6.075  51.562  1.00  0.00    -0.330 N 
HETATM   17  H15 UNL     1      24.595   6.416  52.501  1.00  0.00     0.174 HD
BRANCH  16  18
HETATM   18  C12 UNL     1      25.211   6.298  50.530  1.00  0.00     0.038 A 
HETATM   19  C13 UNL     1      25.741   7.519  50.168  1.00  0.00     0.030 A 
HETATM   20  C14 UNL     1      26.678   7.663  49.170  1.00  0.00     0.002 A 
HETATM   21  C15 UNL     1      27.128   6.557  48.483  1.00  0.00     0.000 A 
HETATM   22  C16 UNL     1      26.645   5.308  48.788  1.00  0.00     0.002 A 
HETATM   23  C17 UNL     1      25.708   5.228  49.796  1.00  0.00     0.030 A 
ENDBRANCH  16  18
ENDBRANCH  15  16
ENDBRANCH  14  15
ENDBRANCH  12  14
TORSDOF 4
ENDMDL
MODEL 9
REMARK VINA RESULT:      -6.6      3.132      6.690
REMARK  4 active torsions:
REMARK  status: ('A' for Active; 'I' for Inactive)
REMARK    1  A    between atoms: C9_12  and  C11_14 
REMARK    2  A    between atoms: C11_14  and  S2_15 
REMARK    3  A    between atoms: S2_15  and  N2_16 
REMARK    4  A    between atoms: N2_16  and  C12_17 
ROOT
HETATM    1  C1  UNL     1      22.737   2.876  48.200  1.00  0.00     0.042 C 
HETATM    2  C2  UNL     1      22.548   2.536  49.464  1.00  0.00    -0.045 C 
HETATM    3  C3  UNL     1      21.808   1.318  49.718  1.00  0.00     0.006 C 
HETATM    4  C4  UNL     1      21.305   0.542  50.643  1.00  0.00     0.002 C 
HETATM    5  C5  UNL     1      21.007   0.154  51.974  1.00  0.00     0.026 C 
HETATM    6  C6  UNL     1      21.147   0.556  53.249  1.00  0.00     0.221 C 
HETATM    7  N1  UNL     1      21.803   1.712  52.638  1.00  0.00     0.055 N 
HETATM    8  C7  UNL     1      20.692   2.601  52.338  1.00  0.00     0.299 C 
HETATM    9  C8  UNL     1      22.948   2.501  52.227  1.00  0.00     0.397 A 
HETATM   10  S1  UNL     1      23.768   1.323  52.952  1.00  0.00     0.140 SA
HETATM   11  O1  UNL     1      22.879   3.732  51.506  1.00  0.00    -0.322 OA
HETATM   12  C9  UNL     1      23.388   3.589  50.133  1.00  0.00     0.095 C 
HETATM   13  C10 UNL     1      24.791   3.083  50.343  1.00  0.00     0.052 C 
ENDROOT
BRANCH  12  14
HETATM   14  C11 UNL     1      23.343   4.924  49.522  1.00  0.00     0.140 C 
BRANCH  14  15
HETATM   15  S2  UNL     1      24.459   6.053  50.389  1.00  0.00    -0.052 SA
BRANCH  15  16
HETATM   16  N2  UNL     1      25.279   7.095  49.233  1.00  0.00    -0.330 N 
HETATM   17  H15 UNL     1      24.949   7.963  48.714  1.00  0.00     0.174 HD
BRANCH  16  18
HETATM   18  C12 UNL     1      26.638   6.780  48.865  1.00  0.00     0.038 A 
HETATM   19  C13 UNL     1      27.641   7.694  48.616  1.00  0.00     0.030 A 
HETATM   20  C14 UNL     1      28.920   7.326  48.266  1.00  0.00     0.002 A 
HETATM   21  C15 UNL     1      29.247   5.992  48.151  1.00  0.00     0.000 A 
HETATM   22  C16 UNL     1      28.299   5.025  48.384  1.00  0.00     0.002 A 
HETATM   23  C17 UNL     1      27.037   5.456  48.730  1.00  0.00     0.030 A 
ENDBRANCH  16  18
ENDBRANCH  15  16
ENDBRANCH  14  15
ENDBRANCH  12  14
TORSDOF 4
ENDMDL
