MODEL 1
REMARK VINA RESULT:      -9.7      0.000      0.000
REMARK  3 active torsions:
REMARK  status: ('A' for Active; 'I' for Inactive)
REMARK    1  A    between atoms: C4_4  and  C5_5 
REMARK    2  A    between atoms: C9_9  and  O1_10 
REMARK    3  A    between atoms: O1_10  and  C10_11 
ROOT
HETATM    1  C5  UNL     1      23.611   1.332  52.846  1.00  0.00    -0.023 A 
HETATM    2  C6  UNL     1      22.501   0.573  53.156  1.00  0.00     0.012 A 
HETATM    3  C7  UNL     1      22.508  -0.555  53.949  1.00  0.00     0.004 A 
HETATM    4  C8  UNL     1      23.696  -0.992  54.495  1.00  0.00     0.037 A 
HETATM    5  C9  UNL     1      24.829  -0.260  54.207  1.00  0.00     0.076 A 
HETATM    6  C16 UNL     1      24.769   0.861  53.408  1.00  0.00     0.049 A 
ENDROOT
BRANCH   1   7
HETATM    7  C4  UNL     1      23.545   2.497  52.013  1.00  0.00    -0.023 C 
HETATM    8  C3  UNL     1      23.186   2.440  50.739  1.00  0.00     0.021 C 
HETATM    9  C2  UNL     1      23.109   3.612  49.844  1.00  0.00    -0.028 C 
HETATM   10  C1  UNL     1      22.902   3.492  48.544  1.00  0.00     0.021 C 
HETATM   11  C21 UNL     1      23.265   4.937  50.414  1.00  0.00     0.304 C 
HETATM   12  C18 UNL     1      23.760   4.931  51.835  1.00  0.00     0.045 C 
HETATM   13  N3  UNL     1      24.225   5.798  49.804  1.00  0.00     0.120 N 
HETATM   14  C17 UNL     1      23.844   3.823  52.554  1.00  0.00     0.039 C 
HETATM   15  N2  UNL     1      23.972   6.352  52.018  1.00  0.00    -0.362 N 
HETATM   16  C19 UNL     1      24.435   6.897  50.741  1.00  0.00     0.316 C 
HETATM   17  H19 UNL     1      23.799   6.808  52.947  1.00  0.00     0.161 HD
HETATM   18  C20 UNL     1      23.663   8.087  50.284  1.00  0.00     0.066 C 
HETATM   19  H24 UNL     1      23.863   6.174  48.895  1.00  0.00     0.320 HD
ENDBRANCH   1   7
BRANCH   5  20
HETATM   20  O1  UNL     1      26.034  -0.698  54.756  1.00  0.00    -0.315 OA
BRANCH  20  21
HETATM   21  C10 UNL     1      27.241  -0.572  54.086  1.00  0.00     0.057 C 
HETATM   22  C11 UNL     1      28.085   0.322  54.633  1.00  0.00     0.036 C 
HETATM   23  C12 UNL     1      29.409   0.491  53.937  1.00  0.00     0.299 C 
HETATM   24  N1  UNL     1      30.066  -0.788  53.764  1.00  0.00     0.087 N 
HETATM   25  C13 UNL     1      29.149  -1.817  53.322  1.00  0.00     0.280 C 
HETATM   26  H10 UNL     1      30.591  -1.064  54.623  1.00  0.00     0.316 HD
HETATM   27  C14 UNL     1      27.837  -1.217  52.863  1.00  0.00     0.067 C 
HETATM   28  C15 UNL     1      26.969  -2.257  52.252  1.00  0.00     0.018 C 
ENDBRANCH  20  21
ENDBRANCH   5  20
TORSDOF 3
ENDMDL
MODEL 2
REMARK VINA RESULT:      -9.4      2.036      2.964
REMARK  3 active torsions:
REMARK  status: ('A' for Active; 'I' for Inactive)
REMARK    1  A    between atoms: C4_4  and  C5_5 
REMARK    2  A    between atoms: C9_9  and  O1_10 
REMARK    3  A    between atoms: O1_10  and  C10_11 
ROOT
HETATM    1  C5  UNL     1      23.221   0.212  52.979  1.00  0.00    -0.023 A 
HETATM    2  C6  UNL     1      22.302  -0.461  53.757  1.00  0.00     0.012 A 
HETATM    3  C7  UNL     1      22.604  -1.192  54.887  1.00  0.00     0.004 A 
HETATM    4  C8  UNL     1      23.914  -1.281  55.306  1.00  0.00     0.037 A 
HETATM    5  C9  UNL     1      24.863  -0.621  54.553  1.00  0.00     0.076 A 
HETATM    6  C16 UNL     1      24.509   0.096  53.431  1.00  0.00     0.049 A 
ENDROOT
BRANCH   1   7
HETATM    7  C4  UNL     1      22.850   0.956  51.811  1.00  0.00    -0.023 C 
HETATM    8  C3  UNL     1      23.676   1.805  51.217  1.00  0.00     0.021 C 
HETATM    9  C2  UNL     1      23.335   2.596  50.017  1.00  0.00    -0.028 C 
HETATM   10  C1  UNL     1      24.126   3.547  49.553  1.00  0.00     0.021 C 
HETATM   11  C21 UNL     1      22.089   2.315  49.327  1.00  0.00     0.304 C 
HETATM   12  C18 UNL     1      21.161   1.414  50.096  1.00  0.00     0.045 C 
HETATM   13  N3  UNL     1      21.227   3.421  49.066  1.00  0.00     0.120 N 
HETATM   14  C17 UNL     1      21.534   0.779  51.195  1.00  0.00     0.039 C 
HETATM   15  N2  UNL     1      19.993   1.492  49.241  1.00  0.00    -0.362 N 
HETATM   16  C19 UNL     1      19.937   2.850  48.696  1.00  0.00     0.316 C 
HETATM   17  H19 UNL     1      19.364   0.663  49.111  1.00  0.00     0.161 HD
HETATM   18  C20 UNL     1      19.788   2.891  47.213  1.00  0.00     0.066 C 
HETATM   19  H24 UNL     1      21.596   4.002  48.275  1.00  0.00     0.320 HD
ENDBRANCH   1   7
BRANCH   5  20
HETATM   20  O1  UNL     1      26.190  -0.708  54.972  1.00  0.00    -0.315 OA
BRANCH  20  21
HETATM   21  C10 UNL     1      27.249  -0.343  54.155  1.00  0.00     0.057 C 
HETATM   22  C11 UNL     1      27.790   0.852  54.453  1.00  0.00     0.036 C 
HETATM   23  C12 UNL     1      28.944   1.288  53.590  1.00  0.00     0.299 C 
HETATM   24  N1  UNL     1      29.968   0.264  53.545  1.00  0.00     0.087 N 
HETATM   25  C13 UNL     1      29.408  -1.060  53.381  1.00  0.00     0.280 C 
HETATM   26  H10 UNL     1      30.604   0.328  54.370  1.00  0.00     0.316 HD
HETATM   27  C14 UNL     1      27.948  -0.990  52.988  1.00  0.00     0.067 C 
HETATM   28  C15 UNL     1      27.427  -2.341  52.653  1.00  0.00     0.018 C 
ENDBRANCH  20  21
ENDBRANCH   5  20
TORSDOF 3
ENDMDL
MODEL 3
REMARK VINA RESULT:      -9.2      3.098      4.683
REMARK  3 active torsions:
REMARK  status: ('A' for Active; 'I' for Inactive)
REMARK    1  A    between atoms: C4_4  and  C5_5 
REMARK    2  A    between atoms: C9_9  and  O1_10 
REMARK    3  A    between atoms: O1_10  and  C10_11 
ROOT
HETATM    1  C5  UNL     1      24.980   4.109  49.809  1.00  0.00    -0.023 A 
HETATM    2  C6  UNL     1      24.022   3.652  48.927  1.00  0.00     0.012 A 
HETATM    3  C7  UNL     1      23.075   2.692  49.212  1.00  0.00     0.004 A 
HETATM    4  C8  UNL     1      23.048   2.120  50.466  1.00  0.00     0.037 A 
HETATM    5  C9  UNL     1      23.990   2.550  51.377  1.00  0.00     0.076 A 
HETATM    6  C16 UNL     1      24.916   3.514  51.041  1.00  0.00     0.049 A 
ENDROOT
BRANCH   1   7
HETATM    7  C4  UNL     1      25.943   5.111  49.456  1.00  0.00    -0.023 C 
HETATM    8  C3  UNL     1      27.081   4.818  48.845  1.00  0.00     0.021 C 
HETATM    9  C2  UNL     1      28.103   5.815  48.467  1.00  0.00    -0.028 C 
HETATM   10  C1  UNL     1      29.292   5.464  48.006  1.00  0.00     0.021 C 
HETATM   11  C21 UNL     1      27.789   7.224  48.609  1.00  0.00     0.304 C 
HETATM   12  C18 UNL     1      26.529   7.489  49.388  1.00  0.00     0.045 C 
HETATM   13  N3  UNL     1      28.720   8.029  49.330  1.00  0.00     0.120 N 
HETATM   14  C17 UNL     1      25.688   6.526  49.730  1.00  0.00     0.039 C 
HETATM   15  N2  UNL     1      26.615   8.931  49.494  1.00  0.00    -0.362 N 
HETATM   16  C19 UNL     1      28.030   9.281  49.624  1.00  0.00     0.316 C 
HETATM   17  H19 UNL     1      25.750   9.525  49.476  1.00  0.00     0.161 HD
HETATM   18  C20 UNL     1      28.478  10.326  48.660  1.00  0.00     0.066 C 
HETATM   19  H24 UNL     1      29.572   8.222  48.751  1.00  0.00     0.320 HD
ENDBRANCH   1   7
BRANCH   5  20
HETATM   20  O1  UNL     1      23.966   1.974  52.646  1.00  0.00    -0.315 OA
BRANCH  20  21
HETATM   21  C10 UNL     1      24.487   0.714  52.896  1.00  0.00     0.057 C 
HETATM   22  C11 UNL     1      25.765   0.557  52.502  1.00  0.00     0.036 C 
HETATM   23  C12 UNL     1      26.371  -0.798  52.755  1.00  0.00     0.299 C 
HETATM   24  N1  UNL     1      26.217  -1.180  54.143  1.00  0.00     0.087 N 
HETATM   25  C13 UNL     1      24.894  -0.880  54.648  1.00  0.00     0.280 C 
HETATM   26  H10 UNL     1      26.972  -0.769  54.735  1.00  0.00     0.316 HD
HETATM   27  C14 UNL     1      23.943  -0.544  53.518  1.00  0.00     0.067 C 
HETATM   28  C15 UNL     1      22.553  -0.408  54.024  1.00  0.00     0.018 C 
ENDBRANCH  20  21
ENDBRANCH   5  20
TORSDOF 3
ENDMDL
MODEL 4
REMARK VINA RESULT:      -9.1      4.170      5.757
REMARK  3 active torsions:
REMARK  status: ('A' for Active; 'I' for Inactive)
REMARK    1  A    between atoms: C4_4  and  C5_5 
REMARK    2  A    between atoms: C9_9  and  O1_10 
REMARK    3  A    between atoms: O1_10  and  C10_11 
ROOT
HETATM    1  C5  UNL     1      21.863  -0.662  53.555  1.00  0.00    -0.023 A 
HETATM    2  C6  UNL     1      21.996  -1.054  54.872  1.00  0.00     0.012 A 
HETATM    3  C7  UNL     1      23.195  -1.247  55.524  1.00  0.00     0.004 A 
HETATM    4  C8  UNL     1      24.376  -1.041  54.845  1.00  0.00     0.037 A 
HETATM    5  C9  UNL     1      24.286  -0.648  53.526  1.00  0.00     0.076 A 
HETATM    6  C16 UNL     1      23.062  -0.470  52.919  1.00  0.00     0.049 A 
ENDROOT
BRANCH   1   7
HETATM    7  C4  UNL     1      20.588  -0.479  52.926  1.00  0.00    -0.023 C 
HETATM    8  C3  UNL     1      20.450   0.162  51.775  1.00  0.00     0.021 C 
HETATM    9  C2  UNL     1      19.157   0.378  51.093  1.00  0.00    -0.028 C 
HETATM   10  C1  UNL     1      19.043   1.158  50.033  1.00  0.00     0.021 C 
HETATM   11  C21 UNL     1      17.976  -0.290  51.608  1.00  0.00     0.304 C 
HETATM   12  C18 UNL     1      18.179  -0.922  52.959  1.00  0.00     0.045 C 
HETATM   13  N3  UNL     1      16.831   0.520  51.864  1.00  0.00     0.120 N 
HETATM   14  C17 UNL     1      19.372  -1.032  53.522  1.00  0.00     0.039 C 
HETATM   15  N2  UNL     1      16.814  -1.317  53.243  1.00  0.00    -0.362 N 
HETATM   16  C19 UNL     1      15.933  -0.295  52.676  1.00  0.00     0.316 C 
HETATM   17  H19 UNL     1      16.607  -2.198  53.774  1.00  0.00     0.161 HD
HETATM   18  C20 UNL     1      14.855  -0.850  51.808  1.00  0.00     0.066 C 
HETATM   19  H24 UNL     1      16.355   0.785  50.969  1.00  0.00     0.320 HD
ENDBRANCH   1   7
BRANCH   5  20
HETATM   20  O1  UNL     1      25.478  -0.439  52.834  1.00  0.00    -0.315 OA
BRANCH  20  21
HETATM   21  C10 UNL     1      26.545   0.248  53.392  1.00  0.00     0.057 C 
HETATM   22  C11 UNL     1      27.659  -0.491  53.544  1.00  0.00     0.036 C 
HETATM   23  C12 UNL     1      28.844   0.216  54.147  1.00  0.00     0.299 C 
HETATM   24  N1  UNL     1      29.138   1.435  53.422  1.00  0.00     0.087 N 
HETATM   25  C13 UNL     1      27.941   2.183  53.104  1.00  0.00     0.280 C 
HETATM   26  H10 UNL     1      29.724   1.243  52.580  1.00  0.00     0.316 HD
HETATM   27  C14 UNL     1      26.750   1.659  53.877  1.00  0.00     0.067 C 
HETATM   28  C15 UNL     1      25.567   2.537  53.679  1.00  0.00     0.018 C 
ENDBRANCH  20  21
ENDBRANCH   5  20
TORSDOF 3
ENDMDL
MODEL 5
REMARK VINA RESULT:      -8.9      3.014      7.136
REMARK  3 active torsions:
REMARK  status: ('A' for Active; 'I' for Inactive)
REMARK    1  A    between atoms: C4_4  and  C5_5 
REMARK    2  A    between atoms: C9_9  and  O1_10 
REMARK    3  A    between atoms: O1_10  and  C10_11 
ROOT
HETATM    1  C5  UNL     1      22.634  -0.138  53.214  1.00  0.00    -0.023 A 
HETATM    2  C6  UNL     1      22.116  -0.854  54.274  1.00  0.00     0.012 A 
HETATM    3  C7  UNL     1      20.786  -1.174  54.441  1.00  0.00     0.004 A 
HETATM    4  C8  UNL     1      19.868  -0.767  53.496  1.00  0.00     0.037 A 
HETATM    5  C9  UNL     1      20.347  -0.048  52.421  1.00  0.00     0.076 A 
HETATM    6  C16 UNL     1      21.687   0.246  52.301  1.00  0.00     0.049 A 
ENDROOT
BRANCH   1   7
HETATM    7  C4  UNL     1      24.029   0.169  53.093  1.00  0.00    -0.023 C 
HETATM    8  C3  UNL     1      24.486   1.076  52.243  1.00  0.00     0.021 C 
HETATM    9  C2  UNL     1      25.913   1.420  52.081  1.00  0.00    -0.028 C 
HETATM   10  C1  UNL     1      26.341   2.211  51.112  1.00  0.00     0.021 C 
HETATM   11  C21 UNL     1      26.875   0.870  53.018  1.00  0.00     0.304 C 
HETATM   12  C18 UNL     1      26.312  -0.217  53.895  1.00  0.00     0.045 C 
HETATM   13  N3  UNL     1      28.011   0.205  52.469  1.00  0.00     0.120 N 
HETATM   14  C17 UNL     1      25.019  -0.494  53.943  1.00  0.00     0.039 C 
HETATM   15  N2  UNL     1      27.532  -0.651  54.546  1.00  0.00    -0.362 N 
HETATM   16  C19 UNL     1      28.617  -0.536  53.571  1.00  0.00     0.316 C 
HETATM   17  H19 UNL     1      27.524  -0.976  55.544  1.00  0.00     0.161 HD
HETATM   18  C20 UNL     1      29.798   0.218  54.079  1.00  0.00     0.066 C 
HETATM   19  H24 UNL     1      28.699   0.898  52.088  1.00  0.00     0.320 HD
ENDBRANCH   1   7
BRANCH   5  20
HETATM   20  O1  UNL     1      19.422   0.366  51.462  1.00  0.00    -0.315 OA
BRANCH  20  21
HETATM   21  C10 UNL     1      19.435   1.644  50.927  1.00  0.00     0.057 C 
HETATM   22  C11 UNL     1      18.726   2.545  51.632  1.00  0.00     0.036 C 
HETATM   23  C12 UNL     1      18.713   3.948  51.086  1.00  0.00     0.299 C 
HETATM   24  N1  UNL     1      20.062   4.426  50.864  1.00  0.00     0.087 N 
HETATM   25  C13 UNL     1      20.901   3.422  50.244  1.00  0.00     0.280 C 
HETATM   26  H10 UNL     1      20.479   4.807  51.742  1.00  0.00     0.316 HD
HETATM   27  C14 UNL     1      20.072   2.271  49.715  1.00  0.00     0.067 C 
HETATM   28  C15 UNL     1      20.917   1.332  48.931  1.00  0.00     0.018 C 
ENDBRANCH  20  21
ENDBRANCH   5  20
TORSDOF 3
ENDMDL
MODEL 6
REMARK VINA RESULT:      -8.7      3.113      5.136
REMARK  3 active torsions:
REMARK  status: ('A' for Active; 'I' for Inactive)
REMARK    1  A    between atoms: C4_4  and  C5_5 
REMARK    2  A    between atoms: C9_9  and  O1_10 
REMARK    3  A    between atoms: O1_10  and  C10_11 
ROOT
HETATM    1  C5  UNL     1      25.575   2.694  51.134  1.00  0.00    -0.023 A 
HETATM    2  C6  UNL     1      26.425   1.612  51.240  1.00  0.00     0.012 A 
HETATM    3  C7  UNL     1      26.195   0.495  52.014  1.00  0.00     0.004 A 
HETATM    4  C8  UNL     1      25.036   0.413  52.756  1.00  0.00     0.037 A 
HETATM    5  C9  UNL     1      24.159   1.475  52.677  1.00  0.00     0.076 A 
HETATM    6  C16 UNL     1      24.437   2.569  51.887  1.00  0.00     0.049 A 
ENDROOT
BRANCH   1   7
HETATM    7  C4  UNL     1      25.867   3.832  50.312  1.00  0.00    -0.023 C 
HETATM    8  C3  UNL     1      26.995   3.943  49.628  1.00  0.00     0.021 C 
HETATM    9  C2  UNL     1      27.339   5.098  48.774  1.00  0.00    -0.028 C 
HETATM   10  C1  UNL     1      28.539   5.244  48.238  1.00  0.00     0.021 C 
HETATM   11  C21 UNL     1      26.325   6.103  48.517  1.00  0.00     0.304 C 
HETATM   12  C18 UNL     1      25.106   5.970  49.389  1.00  0.00     0.045 C 
HETATM   13  N3  UNL     1      26.679   7.463  48.763  1.00  0.00     0.120 N 
HETATM   14  C17 UNL     1      24.898   4.919  50.166  1.00  0.00     0.039 C 
HETATM   15  N2  UNL     1      24.413   7.187  49.016  1.00  0.00    -0.362 N 
HETATM   16  C19 UNL     1      25.428   8.213  48.767  1.00  0.00     0.316 C 
HETATM   17  H19 UNL     1      23.366   7.219  48.969  1.00  0.00     0.161 HD
HETATM   18  C20 UNL     1      25.267   8.906  47.457  1.00  0.00     0.066 C 
HETATM   19  H24 UNL     1      27.307   7.826  48.007  1.00  0.00     0.320 HD
ENDBRANCH   1   7
BRANCH   5  20
HETATM   20  O1  UNL     1      22.985   1.396  53.425  1.00  0.00    -0.315 OA
BRANCH  20  21
HETATM   21  C10 UNL     1      22.098   0.339  53.299  1.00  0.00     0.057 C 
HETATM   22  C11 UNL     1      21.992  -0.427  54.400  1.00  0.00     0.036 C 
HETATM   23  C12 UNL     1      21.038  -1.588  54.307  1.00  0.00     0.299 C 
HETATM   24  N1  UNL     1      19.731  -1.146  53.869  1.00  0.00     0.087 N 
HETATM   25  C13 UNL     1      19.813  -0.195  52.780  1.00  0.00     0.280 C 
HETATM   26  H10 UNL     1      19.164  -0.787  54.669  1.00  0.00     0.316 HD
HETATM   27  C14 UNL     1      21.208  -0.160  52.192  1.00  0.00     0.067 C 
HETATM   28  C15 UNL     1      21.242   0.685  50.970  1.00  0.00     0.018 C 
ENDBRANCH  20  21
ENDBRANCH   5  20
TORSDOF 3
ENDMDL
MODEL 7
REMARK VINA RESULT:      -8.6      2.446      7.079
REMARK  3 active torsions:
REMARK  status: ('A' for Active; 'I' for Inactive)
REMARK    1  A    between atoms: C4_4  and  C5_5 
REMARK    2  A    between atoms: C9_9  and  O1_10 
REMARK    3  A    between atoms: O1_10  and  C10_11 
ROOT
HETATM    1  C5  UNL     1      23.399   3.037  52.437  1.00  0.00    -0.023 A 
HETATM    2  C6  UNL     1      22.046   2.775  52.377  1.00  0.00     0.012 A 
HETATM    3  C7  UNL     1      21.084   3.663  51.946  1.00  0.00     0.004 A 
HETATM    4  C8  UNL     1      21.463   4.922  51.531  1.00  0.00     0.037 A 
HETATM    5  C9  UNL     1      22.808   5.223  51.576  1.00  0.00     0.076 A 
HETATM    6  C16 UNL     1      23.730   4.299  52.016  1.00  0.00     0.049 A 
ENDROOT
BRANCH   1   7
HETATM    7  C4  UNL     1      24.356   2.074  52.897  1.00  0.00    -0.023 C 
HETATM    8  C3  UNL     1      23.998   0.934  53.468  1.00  0.00     0.021 C 
HETATM    9  C2  UNL     1      24.948  -0.084  53.961  1.00  0.00    -0.028 C 
HETATM   10  C1  UNL     1      24.555  -1.129  54.668  1.00  0.00     0.021 C 
HETATM   11  C21 UNL     1      26.358   0.073  53.658  1.00  0.00     0.304 C 
HETATM   12  C18 UNL     1      26.710   1.422  53.092  1.00  0.00     0.045 C 
HETATM   13  N3  UNL     1      27.271  -0.002  54.751  1.00  0.00     0.120 N 
HETATM   14  C17 UNL     1      25.792   2.299  52.719  1.00  0.00     0.039 C 
HETATM   15  N2  UNL     1      28.155   1.306  53.083  1.00  0.00    -0.362 N 
HETATM   16  C19 UNL     1      28.541   0.518  54.254  1.00  0.00     0.316 C 
HETATM   17  H19 UNL     1      28.726   1.752  52.325  1.00  0.00     0.161 HD
HETATM   18  C20 UNL     1      29.447  -0.621  53.935  1.00  0.00     0.066 C 
HETATM   19  H24 UNL     1      27.394  -0.994  55.066  1.00  0.00     0.320 HD
ENDBRANCH   1   7
BRANCH   5  20
HETATM   20  O1  UNL     1      23.196   6.496  51.157  1.00  0.00    -0.315 OA
BRANCH  20  21
HETATM   21  C10 UNL     1      24.254   6.696  50.285  1.00  0.00     0.057 C 
HETATM   22  C11 UNL     1      25.208   7.521  50.753  1.00  0.00     0.036 C 
HETATM   23  C12 UNL     1      26.377   7.767  49.837  1.00  0.00     0.299 C 
HETATM   24  N1  UNL     1      26.959   6.515  49.400  1.00  0.00     0.087 N 
HETATM   25  C13 UNL     1      25.951   5.543  49.032  1.00  0.00     0.280 C 
HETATM   26  H10 UNL     1      27.633   6.143  50.105  1.00  0.00     0.316 HD
HETATM   27  C14 UNL     1      24.590   6.193  48.905  1.00  0.00     0.067 C 
HETATM   28  C15 UNL     1      23.596   5.230  48.362  1.00  0.00     0.018 C 
ENDBRANCH  20  21
ENDBRANCH   5  20
TORSDOF 3
ENDMDL
MODEL 8
REMARK VINA RESULT:      -8.6      3.965      5.438
REMARK  3 active torsions:
REMARK  status: ('A' for Active; 'I' for Inactive)
REMARK    1  A    between atoms: C4_4  and  C5_5 
REMARK    2  A    between atoms: C9_9  and  O1_10 
REMARK    3  A    between atoms: O1_10  and  C10_11 
ROOT
HETATM    1  C5  UNL     1      26.217   4.615  49.402  1.00  0.00    -0.023 A 
HETATM    2  C6  UNL     1      24.852   4.710  49.586  1.00  0.00     0.012 A 
HETATM    3  C7  UNL     1      24.075   3.785  50.249  1.00  0.00     0.004 A 
HETATM    4  C8  UNL     1      24.669   2.663  50.787  1.00  0.00     0.037 A 
HETATM    5  C9  UNL     1      26.032   2.531  50.624  1.00  0.00     0.076 A 
HETATM    6  C16 UNL     1      26.764   3.485  49.952  1.00  0.00     0.049 A 
ENDROOT
BRANCH   1   7
HETATM    7  C4  UNL     1      26.976   5.609  48.701  1.00  0.00    -0.023 C 
HETATM    8  C3  UNL     1      28.265   5.461  48.434  1.00  0.00     0.021 C 
HETATM    9  C2  UNL     1      29.086   6.459  47.719  1.00  0.00    -0.028 C 
HETATM   10  C1  UNL     1      30.399   6.345  47.616  1.00  0.00     0.021 C 
HETATM   11  C21 UNL     1      28.427   7.601  47.113  1.00  0.00     0.304 C 
HETATM   12  C18 UNL     1      26.988   7.759  47.526  1.00  0.00     0.045 C 
HETATM   13  N3  UNL     1      28.938   8.893  47.433  1.00  0.00     0.120 N 
HETATM   14  C17 UNL     1      26.338   6.832  48.212  1.00  0.00     0.039 C 
HETATM   15  N2  UNL     1      26.706   9.042  46.914  1.00  0.00    -0.362 N 
HETATM   16  C19 UNL     1      27.925   9.848  46.997  1.00  0.00     0.316 C 
HETATM   17  H19 UNL     1      25.758   9.252  46.516  1.00  0.00     0.161 HD
HETATM   18  C20 UNL     1      28.338  10.443  45.694  1.00  0.00     0.066 C 
HETATM   19  H24 UNL     1      29.836   9.074  46.924  1.00  0.00     0.320 HD
ENDBRANCH   1   7
BRANCH   5  20
HETATM   20  O1  UNL     1      26.637   1.398  51.165  1.00  0.00    -0.315 OA
BRANCH  20  21
HETATM   21  C10 UNL     1      26.552   1.088  52.514  1.00  0.00     0.057 C 
HETATM   22  C11 UNL     1      25.603   0.181  52.813  1.00  0.00     0.036 C 
HETATM   23  C12 UNL     1      25.475  -0.185  54.267  1.00  0.00     0.299 C 
HETATM   24  N1  UNL     1      26.755  -0.593  54.809  1.00  0.00     0.087 N 
HETATM   25  C13 UNL     1      27.831   0.275  54.379  1.00  0.00     0.280 C 
HETATM   26  H10 UNL     1      26.950  -1.599  54.607  1.00  0.00     0.316 HD
HETATM   27  C14 UNL     1      27.290   1.539  53.746  1.00  0.00     0.067 C 
HETATM   28  C15 UNL     1      28.390   2.499  53.465  1.00  0.00     0.018 C 
ENDBRANCH  20  21
ENDBRANCH   5  20
TORSDOF 3
ENDMDL
MODEL 9
REMARK VINA RESULT:      -8.6      3.231      5.274
REMARK  3 active torsions:
REMARK  status: ('A' for Active; 'I' for Inactive)
REMARK    1  A    between atoms: C4_4  and  C5_5 
REMARK    2  A    between atoms: C9_9  and  O1_10 
REMARK    3  A    between atoms: O1_10  and  C10_11 
ROOT
HETATM    1  C5  UNL     1      23.823   1.772  51.415  1.00  0.00    -0.023 A 
HETATM    2  C6  UNL     1      23.916   2.689  50.388  1.00  0.00     0.012 A 
HETATM    3  C7  UNL     1      25.093   3.223  49.906  1.00  0.00     0.004 A 
HETATM    4  C8  UNL     1      26.291   2.835  50.466  1.00  0.00     0.037 A 
HETATM    5  C9  UNL     1      26.239   1.919  51.496  1.00  0.00     0.076 A 
HETATM    6  C16 UNL     1      25.037   1.416  51.941  1.00  0.00     0.049 A 
ENDROOT
BRANCH   1   7
HETATM    7  C4  UNL     1      22.570   1.251  51.877  1.00  0.00    -0.023 C 
HETATM    8  C3  UNL     1      22.441   0.644  53.047  1.00  0.00     0.021 C 
HETATM    9  C2  UNL     1      21.173   0.088  53.561  1.00  0.00    -0.028 C 
HETATM   10  C1  UNL     1      21.120  -0.650  54.657  1.00  0.00     0.021 C 
HETATM   11  C21 UNL     1      19.946   0.364  52.837  1.00  0.00     0.304 C 
HETATM   12  C18 UNL     1      20.168   0.975  51.479  1.00  0.00     0.045 C 
HETATM   13  N3  UNL     1      19.128  -0.753  52.494  1.00  0.00     0.120 N 
HETATM   14  C17 UNL     1      21.354   1.404  51.077  1.00  0.00     0.039 C 
HETATM   15  N2  UNL     1      18.808   0.945  50.981  1.00  0.00    -0.362 N 
HETATM   16  C19 UNL     1      18.173  -0.266  51.504  1.00  0.00     0.316 C 
HETATM   17  H19 UNL     1      18.446   1.706  50.357  1.00  0.00     0.161 HD
HETATM   18  C20 UNL     1      16.862  -0.014  52.168  1.00  0.00     0.066 C 
HETATM   19  H24 UNL     1      18.614  -1.109  53.335  1.00  0.00     0.320 HD
ENDBRANCH   1   7
BRANCH   5  20
HETATM   20  O1  UNL     1      27.449   1.524  52.065  1.00  0.00    -0.315 OA
BRANCH  20  21
HETATM   21  C10 UNL     1      27.595   0.314  52.727  1.00  0.00     0.057 C 
HETATM   22  C11 UNL     1      26.975  -0.720  52.129  1.00  0.00     0.036 C 
HETATM   23  C12 UNL     1      27.107  -2.054  52.815  1.00  0.00     0.299 C 
HETATM   24  N1  UNL     1      28.499  -2.370  53.062  1.00  0.00     0.087 N 
HETATM   25  C13 UNL     1      29.236  -1.229  53.562  1.00  0.00     0.280 C 
HETATM   26  H10 UNL     1      28.946  -2.796  52.220  1.00  0.00     0.316 HD
HETATM   27  C14 UNL     1      28.300  -0.118  53.986  1.00  0.00     0.067 C 
HETATM   28  C15 UNL     1      29.051   0.976  54.656  1.00  0.00     0.018 C 
ENDBRANCH  20  21
ENDBRANCH   5  20
TORSDOF 3
ENDMDL
