MODEL 1
REMARK VINA RESULT:      -7.3      0.000      0.000
REMARK  8 active torsions:
REMARK  status: ('A' for Active; 'I' for Inactive)
REMARK    1  A    between atoms: C8_8  and  C9_9 
REMARK    2  A    between atoms: C9_9  and  N1_10 
REMARK    3  A    between atoms: N1_10  and  C10_11 
REMARK    4  A    between atoms: N1_10  and  C13_15 
REMARK    5  A    between atoms: C10_11  and  C11_12 
REMARK    6  A    between atoms: C11_12  and  C12_13 
REMARK    7  A    between atoms: C13_15  and  N2_17 
REMARK    8  A    between atoms: N2_17  and  C15_18 
ROOT
HETATM    1  N1  UNL     1      26.312   0.700  52.841  1.00  0.00    -0.388 N 
ENDROOT
BRANCH   1   2
HETATM    2  C9  UNL     1      25.187   0.690  53.665  1.00  0.00     0.158 C 
BRANCH   2   3
HETATM    3  C8  UNL     1      23.845   0.479  53.114  1.00  0.00    -0.034 A 
HETATM    4  C6  UNL     1      22.951  -0.375  53.799  1.00  0.00    -0.048 A 
HETATM    5  C4  UNL     1      21.640  -0.634  53.390  1.00  0.00    -0.055 A 
HETATM    6  C7  UNL     1      23.387  -1.092  55.051  1.00  0.00     0.049 C 
HETATM    7  C3  UNL     1      21.174  -0.019  52.242  1.00  0.00     0.014 A 
HETATM    8  C5  UNL     1      20.768  -1.562  54.147  1.00  0.00     0.049 C 
HETATM    9  C2  UNL     1      22.020   0.817  51.563  1.00  0.00    -0.061 A 
HETATM   10  C1  UNL     1      21.538   1.510  50.327  1.00  0.00     0.048 C 
HETATM   11  C19 UNL     1      23.332   1.079  51.964  1.00  0.00     0.016 A 
ENDBRANCH   2   3
ENDBRANCH   1   2
BRANCH   1  12
HETATM   12  C10 UNL     1      26.765  -0.311  52.034  1.00  0.00     0.126 C 
BRANCH  12  13
HETATM   13  C11 UNL     1      26.981  -1.655  52.728  1.00  0.00     0.089 C 
BRANCH  13  14
HETATM   14  C12 UNL     1      28.403  -1.720  53.123  1.00  0.00     0.232 C 
HETATM   15  O1  UNL     1      28.935  -2.800  53.417  1.00  0.00    -0.307 OA
ENDBRANCH  13  14
ENDBRANCH  12  13
ENDBRANCH   1  12
BRANCH   1  16
HETATM   16  C13 UNL     1      26.736   2.061  52.630  1.00  0.00     0.175 C 
HETATM   17  C14 UNL     1      28.135   2.244  53.269  1.00  0.00     0.055 C 
BRANCH  16  18
HETATM   18  N2  UNL     1      26.859   2.276  51.203  1.00  0.00    -0.369 N 
HETATM   19  H22 UNL     1      27.503   1.726  50.557  1.00  0.00     0.161 HD
BRANCH  18  20
HETATM   20  C15 UNL     1      26.063   3.296  50.559  1.00  0.00     0.029 A 
HETATM   21  C16 UNL     1      25.017   4.087  50.288  1.00  0.00     0.029 A 
HETATM   22  C17 UNL     1      25.735   4.765  49.197  1.00  0.00     0.004 A 
HETATM   23  C18 UNL     1      26.763   3.987  49.461  1.00  0.00     0.029 A 
ENDBRANCH  18  20
ENDBRANCH  16  18
ENDBRANCH   1  16
TORSDOF 8
ENDMDL
MODEL 2
REMARK VINA RESULT:      -7.1      2.721      4.885
REMARK  8 active torsions:
REMARK  status: ('A' for Active; 'I' for Inactive)
REMARK    1  A    between atoms: C8_8  and  C9_9 
REMARK    2  A    between atoms: C9_9  and  N1_10 
REMARK    3  A    between atoms: N1_10  and  C10_11 
REMARK    4  A    between atoms: N1_10  and  C13_15 
REMARK    5  A    between atoms: C10_11  and  C11_12 
REMARK    6  A    between atoms: C11_12  and  C12_13 
REMARK    7  A    between atoms: C13_15  and  N2_17 
REMARK    8  A    between atoms: N2_17  and  C15_18 
ROOT
HETATM    1  N1  UNL     1      24.158   2.613  51.660  1.00  0.00    -0.388 N 
ENDROOT
BRANCH   1   2
HETATM    2  C9  UNL     1      23.399   1.490  51.332  1.00  0.00     0.158 C 
BRANCH   2   3
HETATM    3  C8  UNL     1      22.760   0.676  52.370  1.00  0.00    -0.034 A 
HETATM    4  C6  UNL     1      21.368   0.441  52.295  1.00  0.00    -0.048 A 
HETATM    5  C4  UNL     1      20.651  -0.337  53.206  1.00  0.00    -0.055 A 
HETATM    6  C7  UNL     1      20.548   1.056  51.189  1.00  0.00     0.049 C 
HETATM    7  C3  UNL     1      21.335  -0.924  54.255  1.00  0.00     0.014 A 
HETATM    8  C5  UNL     1      19.187  -0.518  53.077  1.00  0.00     0.049 C 
HETATM    9  C2  UNL     1      22.686  -0.715  54.347  1.00  0.00    -0.061 A 
HETATM   10  C1  UNL     1      23.457  -1.351  55.461  1.00  0.00     0.048 C 
HETATM   11  C19 UNL     1      23.410   0.064  53.441  1.00  0.00     0.016 A 
ENDBRANCH   2   3
ENDBRANCH   1   2
BRANCH   1  12
HETATM   12  C10 UNL     1      23.843   3.600  52.557  1.00  0.00     0.126 C 
BRANCH  12  13
HETATM   13  C11 UNL     1      22.530   4.335  52.288  1.00  0.00     0.089 C 
BRANCH  13  14
HETATM   14  C12 UNL     1      22.842   5.480  51.408  1.00  0.00     0.232 C 
HETATM   15  O1  UNL     1      23.868   6.154  51.579  1.00  0.00    -0.307 OA
ENDBRANCH  13  14
ENDBRANCH  12  13
ENDBRANCH   1  12
BRANCH   1  16
HETATM   16  C13 UNL     1      25.518   2.412  51.228  1.00  0.00     0.175 C 
HETATM   17  C14 UNL     1      25.906   3.569  50.273  1.00  0.00     0.055 C 
BRANCH  16  18
HETATM   18  N2  UNL     1      26.373   2.482  52.395  1.00  0.00    -0.369 N 
HETATM   19  H22 UNL     1      26.712   3.385  52.849  1.00  0.00     0.161 HD
BRANCH  18  20
HETATM   20  C15 UNL     1      26.822   1.265  53.031  1.00  0.00     0.029 A 
HETATM   21  C16 UNL     1      27.287   0.442  53.980  1.00  0.00     0.029 A 
HETATM   22  C17 UNL     1      27.248  -0.720  53.077  1.00  0.00     0.004 A 
HETATM   23  C18 UNL     1      26.793   0.089  52.144  1.00  0.00     0.029 A 
ENDBRANCH  18  20
ENDBRANCH  16  18
ENDBRANCH   1  16
TORSDOF 8
ENDMDL
MODEL 3
REMARK VINA RESULT:      -7.0      3.148      5.047
REMARK  8 active torsions:
REMARK  status: ('A' for Active; 'I' for Inactive)
REMARK    1  A    between atoms: C8_8  and  C9_9 
REMARK    2  A    between atoms: C9_9  and  N1_10 
REMARK    3  A    between atoms: N1_10  and  C10_11 
REMARK    4  A    between atoms: N1_10  and  C13_15 
REMARK    5  A    between atoms: C10_11  and  C11_12 
REMARK    6  A    between atoms: C11_12  and  C12_13 
REMARK    7  A    between atoms: C13_15  and  N2_17 
REMARK    8  A    between atoms: N2_17  and  C15_18 
ROOT
HETATM    1  N1  UNL     1      23.395   2.999  51.058  1.00  0.00    -0.388 N 
ENDROOT
BRANCH   1   2
HETATM    2  C9  UNL     1      23.252   1.614  51.139  1.00  0.00     0.158 C 
BRANCH   2   3
HETATM    3  C8  UNL     1      23.955   0.838  52.165  1.00  0.00    -0.034 A 
HETATM    4  C6  UNL     1      23.200   0.194  53.172  1.00  0.00    -0.048 A 
HETATM    5  C4  UNL     1      23.750  -0.594  54.186  1.00  0.00    -0.055 A 
HETATM    6  C7  UNL     1      21.700   0.342  53.215  1.00  0.00     0.049 C 
HETATM    7  C3  UNL     1      25.122  -0.766  54.217  1.00  0.00     0.014 A 
HETATM    8  C5  UNL     1      22.897  -1.218  55.223  1.00  0.00     0.049 C 
HETATM    9  C2  UNL     1      25.875  -0.155  53.248  1.00  0.00    -0.061 A 
HETATM   10  C1  UNL     1      27.361  -0.336  53.246  1.00  0.00     0.048 C 
HETATM   11  C19 UNL     1      25.333   0.636  52.233  1.00  0.00     0.016 A 
ENDBRANCH   2   3
ENDBRANCH   1   2
BRANCH   1  12
HETATM   12  C10 UNL     1      23.204   3.918  52.057  1.00  0.00     0.126 C 
BRANCH  12  13
HETATM   13  C11 UNL     1      21.747   4.276  52.347  1.00  0.00     0.089 C 
BRANCH  13  14
HETATM   14  C12 UNL     1      21.295   5.177  51.267  1.00  0.00     0.232 C 
HETATM   15  O1  UNL     1      21.952   6.182  50.958  1.00  0.00    -0.307 OA
ENDBRANCH  13  14
ENDBRANCH  12  13
ENDBRANCH   1  12
BRANCH   1  16
HETATM   16  C13 UNL     1      24.163   3.331  49.885  1.00  0.00     0.175 C 
HETATM   17  C14 UNL     1      23.239   3.220  48.646  1.00  0.00     0.055 C 
BRANCH  16  18
HETATM   18  N2  UNL     1      24.594   4.709  50.006  1.00  0.00    -0.369 N 
HETATM   19  H22 UNL     1      24.083   5.461  50.561  1.00  0.00     0.161 HD
BRANCH  18  20
HETATM   20  C15 UNL     1      25.806   5.142  49.349  1.00  0.00     0.029 A 
HETATM   21  C16 UNL     1      26.671   5.943  48.713  1.00  0.00     0.029 A 
HETATM   22  C17 UNL     1      27.690   4.883  48.639  1.00  0.00     0.004 A 
HETATM   23  C18 UNL     1      26.838   4.095  49.262  1.00  0.00     0.029 A 
ENDBRANCH  18  20
ENDBRANCH  16  18
ENDBRANCH   1  16
TORSDOF 8
ENDMDL
MODEL 4
REMARK VINA RESULT:      -7.0      3.118      5.284
REMARK  8 active torsions:
REMARK  status: ('A' for Active; 'I' for Inactive)
REMARK    1  A    between atoms: C8_8  and  C9_9 
REMARK    2  A    between atoms: C9_9  and  N1_10 
REMARK    3  A    between atoms: N1_10  and  C10_11 
REMARK    4  A    between atoms: N1_10  and  C13_15 
REMARK    5  A    between atoms: C10_11  and  C11_12 
REMARK    6  A    between atoms: C11_12  and  C12_13 
REMARK    7  A    between atoms: C13_15  and  N2_17 
REMARK    8  A    between atoms: N2_17  and  C15_18 
ROOT
HETATM    1  N1  UNL     1      23.425   3.337  50.692  1.00  0.00    -0.388 N 
ENDROOT
BRANCH   1   2
HETATM    2  C9  UNL     1      24.183   3.100  51.839  1.00  0.00     0.158 C 
BRANCH   2   3
HETATM    3  C8  UNL     1      24.311   1.751  52.398  1.00  0.00    -0.034 A 
HETATM    4  C6  UNL     1      25.547   1.077  52.285  1.00  0.00    -0.048 A 
HETATM    5  C4  UNL     1      25.800  -0.197  52.799  1.00  0.00    -0.055 A 
HETATM    6  C7  UNL     1      26.703   1.719  51.560  1.00  0.00     0.049 C 
HETATM    7  C3  UNL     1      24.783  -0.852  53.468  1.00  0.00     0.014 A 
HETATM    8  C5  UNL     1      27.117  -0.851  52.620  1.00  0.00     0.049 C 
HETATM    9  C2  UNL     1      23.575  -0.218  53.595  1.00  0.00    -0.061 A 
HETATM   10  C1  UNL     1      22.459  -0.894  54.328  1.00  0.00     0.048 C 
HETATM   11  C19 UNL     1      23.314   1.055  53.081  1.00  0.00     0.016 A 
ENDBRANCH   2   3
ENDBRANCH   1   2
BRANCH   1  12
HETATM   12  C10 UNL     1      22.062   3.457  50.603  1.00  0.00     0.126 C 
BRANCH  12  13
HETATM   13  C11 UNL     1      21.379   4.077  51.821  1.00  0.00     0.089 C 
BRANCH  13  14
HETATM   14  C12 UNL     1      20.297   3.158  52.230  1.00  0.00     0.232 C 
HETATM   15  O1  UNL     1      19.112   3.521  52.215  1.00  0.00    -0.307 OA
ENDBRANCH  13  14
ENDBRANCH  12  13
ENDBRANCH   1  12
BRANCH   1  16
HETATM   16  C13 UNL     1      24.282   3.841  49.650  1.00  0.00     0.175 C 
HETATM   17  C14 UNL     1      23.419   4.664  48.660  1.00  0.00     0.055 C 
BRANCH  16  18
HETATM   18  N2  UNL     1      25.249   4.733  50.257  1.00  0.00    -0.369 N 
HETATM   19  H22 UNL     1      25.293   4.969  51.294  1.00  0.00     0.161 HD
BRANCH  18  20
HETATM   20  C15 UNL     1      26.254   5.369  49.435  1.00  0.00     0.029 A 
HETATM   21  C16 UNL     1      26.898   6.328  48.757  1.00  0.00     0.029 A 
HETATM   22  C17 UNL     1      27.956   5.398  48.329  1.00  0.00     0.004 A 
HETATM   23  C18 UNL     1      27.322   4.455  48.994  1.00  0.00     0.029 A 
ENDBRANCH  18  20
ENDBRANCH  16  18
ENDBRANCH   1  16
TORSDOF 8
ENDMDL
MODEL 5
REMARK VINA RESULT:      -6.7      1.657      5.544
REMARK  8 active torsions:
REMARK  status: ('A' for Active; 'I' for Inactive)
REMARK    1  A    between atoms: C8_8  and  C9_9 
REMARK    2  A    between atoms: C9_9  and  N1_10 
REMARK    3  A    between atoms: N1_10  and  C10_11 
REMARK    4  A    between atoms: N1_10  and  C13_15 
REMARK    5  A    between atoms: C10_11  and  C11_12 
REMARK    6  A    between atoms: C11_12  and  C12_13 
REMARK    7  A    between atoms: C13_15  and  N2_17 
REMARK    8  A    between atoms: N2_17  and  C15_18 
ROOT
HETATM    1  N1  UNL     1      25.611   1.072  52.584  1.00  0.00    -0.388 N 
ENDROOT
BRANCH   1   2
HETATM    2  C9  UNL     1      24.792   1.607  51.590  1.00  0.00     0.158 C 
BRANCH   2   3
HETATM    3  C8  UNL     1      25.099   2.898  50.967  1.00  0.00    -0.034 A 
HETATM    4  C6  UNL     1      24.290   4.015  51.274  1.00  0.00    -0.048 A 
HETATM    5  C4  UNL     1      24.497   5.300  50.766  1.00  0.00    -0.055 A 
HETATM    6  C7  UNL     1      23.103   3.870  52.192  1.00  0.00     0.049 C 
HETATM    7  C3  UNL     1      25.562   5.506  49.907  1.00  0.00     0.014 A 
HETATM    8  C5  UNL     1      23.591   6.419  51.113  1.00  0.00     0.049 C 
HETATM    9  C2  UNL     1      26.363   4.439  49.598  1.00  0.00    -0.061 A 
HETATM   10  C1  UNL     1      27.533   4.635  48.685  1.00  0.00     0.048 C 
HETATM   11  C19 UNL     1      26.161   3.151  50.099  1.00  0.00     0.016 A 
ENDBRANCH   2   3
ENDBRANCH   1   2
BRANCH   1  12
HETATM   12  C10 UNL     1      26.300   1.752  53.554  1.00  0.00     0.126 C 
BRANCH  12  13
HETATM   13  C11 UNL     1      27.719   2.175  53.175  1.00  0.00     0.089 C 
BRANCH  13  14
HETATM   14  C12 UNL     1      28.645   1.448  54.067  1.00  0.00     0.232 C 
HETATM   15  O1  UNL     1      29.572   0.768  53.605  1.00  0.00    -0.307 OA
ENDBRANCH  13  14
ENDBRANCH  12  13
ENDBRANCH   1  12
BRANCH   1  16
HETATM   16  C13 UNL     1      25.337  -0.336  52.721  1.00  0.00     0.175 C 
HETATM   17  C14 UNL     1      26.653  -1.118  52.487  1.00  0.00     0.055 C 
BRANCH  16  18
HETATM   18  N2  UNL     1      24.903  -0.577  54.082  1.00  0.00    -0.369 N 
HETATM   19  H22 UNL     1      25.544  -0.594  54.932  1.00  0.00     0.161 HD
BRANCH  18  20
HETATM   20  C15 UNL     1      23.504  -0.811  54.359  1.00  0.00     0.029 A 
HETATM   21  C16 UNL     1      22.372  -0.966  55.058  1.00  0.00     0.029 A 
HETATM   22  C17 UNL     1      21.580  -1.197  53.838  1.00  0.00     0.004 A 
HETATM   23  C18 UNL     1      22.693  -1.046  53.151  1.00  0.00     0.029 A 
ENDBRANCH  18  20
ENDBRANCH  16  18
ENDBRANCH   1  16
TORSDOF 8
ENDMDL
MODEL 6
REMARK VINA RESULT:      -6.6      2.909      4.685
REMARK  8 active torsions:
REMARK  status: ('A' for Active; 'I' for Inactive)
REMARK    1  A    between atoms: C8_8  and  C9_9 
REMARK    2  A    between atoms: C9_9  and  N1_10 
REMARK    3  A    between atoms: N1_10  and  C10_11 
REMARK    4  A    between atoms: N1_10  and  C13_15 
REMARK    5  A    between atoms: C10_11  and  C11_12 
REMARK    6  A    between atoms: C11_12  and  C12_13 
REMARK    7  A    between atoms: C13_15  and  N2_17 
REMARK    8  A    between atoms: N2_17  and  C15_18 
ROOT
HETATM    1  N1  UNL     1      21.801   3.172  50.892  1.00  0.00    -0.388 N 
ENDROOT
BRANCH   1   2
HETATM    2  C9  UNL     1      22.184   2.972  52.218  1.00  0.00     0.158 C 
BRANCH   2   3
HETATM    3  C8  UNL     1      22.910   1.765  52.625  1.00  0.00    -0.034 A 
HETATM    4  C6  UNL     1      22.219   0.760  53.339  1.00  0.00    -0.048 A 
HETATM    5  C4  UNL     1      22.792  -0.444  53.757  1.00  0.00    -0.055 A 
HETATM    6  C7  UNL     1      20.772   0.948  53.715  1.00  0.00     0.049 C 
HETATM    7  C3  UNL     1      24.121  -0.681  53.456  1.00  0.00     0.014 A 
HETATM    8  C5  UNL     1      22.011  -1.441  54.524  1.00  0.00     0.049 C 
HETATM    9  C2  UNL     1      24.811   0.277  52.761  1.00  0.00    -0.061 A 
HETATM   10  C1  UNL     1      26.246   0.042  52.407  1.00  0.00     0.048 C 
HETATM   11  C19 UNL     1      24.246   1.483  52.342  1.00  0.00     0.016 A 
ENDBRANCH   2   3
ENDBRANCH   1   2
BRANCH   1  12
HETATM   12  C10 UNL     1      20.635   2.777  50.291  1.00  0.00     0.126 C 
BRANCH  12  13
HETATM   13  C11 UNL     1      20.505   1.276  50.038  1.00  0.00     0.089 C 
BRANCH  13  14
HETATM   14  C12 UNL     1      21.522   0.912  49.031  1.00  0.00     0.232 C 
HETATM   15  O1  UNL     1      21.674   1.590  48.004  1.00  0.00    -0.307 OA
ENDBRANCH  13  14
ENDBRANCH  12  13
ENDBRANCH   1  12
BRANCH   1  16
HETATM   16  C13 UNL     1      22.619   4.206  50.311  1.00  0.00     0.175 C 
HETATM   17  C14 UNL     1      23.293   5.002  51.457  1.00  0.00     0.055 C 
BRANCH  16  18
HETATM   18  N2  UNL     1      23.660   3.569  49.530  1.00  0.00    -0.369 N 
HETATM   19  H22 UNL     1      23.570   2.621  49.053  1.00  0.00     0.161 HD
BRANCH  18  20
HETATM   20  C15 UNL     1      24.930   4.233  49.349  1.00  0.00     0.029 A 
HETATM   21  C16 UNL     1      25.811   5.214  49.108  1.00  0.00     0.029 A 
HETATM   22  C17 UNL     1      26.958   4.306  49.276  1.00  0.00     0.004 A 
HETATM   23  C18 UNL     1      26.092   3.342  49.511  1.00  0.00     0.029 A 
ENDBRANCH  18  20
ENDBRANCH  16  18
ENDBRANCH   1  16
TORSDOF 8
ENDMDL
MODEL 7
REMARK VINA RESULT:      -6.6      2.407      5.344
REMARK  8 active torsions:
REMARK  status: ('A' for Active; 'I' for Inactive)
REMARK    1  A    between atoms: C8_8  and  C9_9 
REMARK    2  A    between atoms: C9_9  and  N1_10 
REMARK    3  A    between atoms: N1_10  and  C10_11 
REMARK    4  A    between atoms: N1_10  and  C13_15 
REMARK    5  A    between atoms: C10_11  and  C11_12 
REMARK    6  A    between atoms: C11_12  and  C12_13 
REMARK    7  A    between atoms: C13_15  and  N2_17 
REMARK    8  A    between atoms: N2_17  and  C15_18 
ROOT
HETATM    1  N1  UNL     1      24.437   0.831  52.475  1.00  0.00    -0.388 N 
ENDROOT
BRANCH   1   2
HETATM    2  C9  UNL     1      25.655   0.687  51.810  1.00  0.00     0.158 C 
BRANCH   2   3
HETATM    3  C8  UNL     1      26.902   0.472  52.549  1.00  0.00    -0.034 A 
HETATM    4  C6  UNL     1      27.434  -0.834  52.628  1.00  0.00    -0.048 A 
HETATM    5  C4  UNL     1      28.626  -1.161  53.279  1.00  0.00    -0.055 A 
HETATM    6  C7  UNL     1      26.706  -1.995  52.000  1.00  0.00     0.049 C 
HETATM    7  C3  UNL     1      29.344  -0.148  53.889  1.00  0.00     0.014 A 
HETATM    8  C5  UNL     1      29.109  -2.560  53.342  1.00  0.00     0.049 C 
HETATM    9  C2  UNL     1      28.851   1.128  53.822  1.00  0.00    -0.061 A 
HETATM   10  C1  UNL     1      29.613   2.248  54.458  1.00  0.00     0.048 C 
HETATM   11  C19 UNL     1      27.659   1.462  53.175  1.00  0.00     0.016 A 
ENDBRANCH   2   3
ENDBRANCH   1   2
BRANCH   1  12
HETATM   12  C10 UNL     1      23.976   0.102  53.540  1.00  0.00     0.126 C 
BRANCH  12  13
HETATM   13  C11 UNL     1      22.486  -0.235  53.507  1.00  0.00     0.089 C 
BRANCH  13  14
HETATM   14  C12 UNL     1      22.300  -1.473  54.291  1.00  0.00     0.232 C 
HETATM   15  O1  UNL     1      21.456  -1.534  55.197  1.00  0.00    -0.307 OA
ENDBRANCH  13  14
ENDBRANCH  12  13
ENDBRANCH   1  12
BRANCH   1  16
HETATM   16  C13 UNL     1      23.871   2.117  52.159  1.00  0.00     0.175 C 
HETATM   17  C14 UNL     1      24.360   3.142  53.213  1.00  0.00     0.055 C 
BRANCH  16  18
HETATM   18  N2  UNL     1      24.377   2.524  50.864  1.00  0.00    -0.369 N 
HETATM   19  H22 UNL     1      25.407   2.656  50.626  1.00  0.00     0.161 HD
BRANCH  18  20
HETATM   20  C15 UNL     1      23.455   2.775  49.779  1.00  0.00     0.029 A 
HETATM   21  C16 UNL     1      23.007   3.155  48.576  1.00  0.00     0.029 A 
HETATM   22  C17 UNL     1      21.621   2.787  48.909  1.00  0.00     0.004 A 
HETATM   23  C18 UNL     1      22.061   2.415  50.092  1.00  0.00     0.029 A 
ENDBRANCH  18  20
ENDBRANCH  16  18
ENDBRANCH   1  16
TORSDOF 8
ENDMDL
MODEL 8
REMARK VINA RESULT:      -6.6      2.129      3.431
REMARK  8 active torsions:
REMARK  status: ('A' for Active; 'I' for Inactive)
REMARK    1  A    between atoms: C8_8  and  C9_9 
REMARK    2  A    between atoms: C9_9  and  N1_10 
REMARK    3  A    between atoms: N1_10  and  C10_11 
REMARK    4  A    between atoms: N1_10  and  C13_15 
REMARK    5  A    between atoms: C10_11  and  C11_12 
REMARK    6  A    between atoms: C11_12  and  C12_13 
REMARK    7  A    between atoms: C13_15  and  N2_17 
REMARK    8  A    between atoms: N2_17  and  C15_18 
ROOT
HETATM    1  N1  UNL     1      23.895   2.592  51.904  1.00  0.00    -0.388 N 
ENDROOT
BRANCH   1   2
HETATM    2  C9  UNL     1      23.403   1.337  51.544  1.00  0.00     0.158 C 
BRANCH   2   3
HETATM    3  C8  UNL     1      22.652   0.514  52.497  1.00  0.00    -0.034 A 
HETATM    4  C6  UNL     1      21.266   0.329  52.298  1.00  0.00    -0.048 A 
HETATM    5  C4  UNL     1      20.449  -0.452  53.120  1.00  0.00    -0.055 A 
HETATM    6  C7  UNL     1      20.562   1.004  51.148  1.00  0.00     0.049 C 
HETATM    7  C3  UNL     1      21.024  -1.094  54.202  1.00  0.00     0.014 A 
HETATM    8  C5  UNL     1      18.997  -0.580  52.862  1.00  0.00     0.049 C 
HETATM    9  C2  UNL     1      22.368  -0.933  54.414  1.00  0.00    -0.061 A 
HETATM   10  C1  UNL     1      23.022  -1.629  55.567  1.00  0.00     0.048 C 
HETATM   11  C19 UNL     1      23.190  -0.152  53.598  1.00  0.00     0.016 A 
ENDBRANCH   2   3
ENDBRANCH   1   2
BRANCH   1  12
HETATM   12  C10 UNL     1      24.953   2.868  52.730  1.00  0.00     0.126 C 
BRANCH  12  13
HETATM   13  C11 UNL     1      26.181   1.977  52.540  1.00  0.00     0.089 C 
BRANCH  13  14
HETATM   14  C12 UNL     1      26.789   1.782  53.872  1.00  0.00     0.232 C 
HETATM   15  O1  UNL     1      27.817   2.393  54.200  1.00  0.00    -0.307 OA
ENDBRANCH  13  14
ENDBRANCH  12  13
ENDBRANCH   1  12
BRANCH   1  16
HETATM   16  C13 UNL     1      23.400   3.580  50.981  1.00  0.00     0.175 C 
HETATM   17  C14 UNL     1      23.780   4.985  51.515  1.00  0.00     0.055 C 
BRANCH  16  18
HETATM   18  N2  UNL     1      24.068   3.383  49.711  1.00  0.00    -0.369 N 
HETATM   19  H22 UNL     1      23.772   2.677  48.970  1.00  0.00     0.161 HD
BRANCH  18  20
HETATM   20  C15 UNL     1      25.222   4.185  49.374  1.00  0.00     0.029 A 
HETATM   21  C16 UNL     1      25.949   5.258  49.037  1.00  0.00     0.029 A 
HETATM   22  C17 UNL     1      27.200   4.482  49.033  1.00  0.00     0.004 A 
HETATM   23  C18 UNL     1      26.485   3.428  49.362  1.00  0.00     0.029 A 
ENDBRANCH  18  20
ENDBRANCH  16  18
ENDBRANCH   1  16
TORSDOF 8
ENDMDL
MODEL 9
REMARK VINA RESULT:      -6.6      2.928      4.629
REMARK  8 active torsions:
REMARK  status: ('A' for Active; 'I' for Inactive)
REMARK    1  A    between atoms: C8_8  and  C9_9 
REMARK    2  A    between atoms: C9_9  and  N1_10 
REMARK    3  A    between atoms: N1_10  and  C10_11 
REMARK    4  A    between atoms: N1_10  and  C13_15 
REMARK    5  A    between atoms: C10_11  and  C11_12 
REMARK    6  A    between atoms: C11_12  and  C12_13 
REMARK    7  A    between atoms: C13_15  and  N2_17 
REMARK    8  A    between atoms: N2_17  and  C15_18 
ROOT
HETATM    1  N1  UNL     1      24.428   2.419  51.910  1.00  0.00    -0.388 N 
ENDROOT
BRANCH   1   2
HETATM    2  C9  UNL     1      23.749   1.351  51.325  1.00  0.00     0.158 C 
BRANCH   2   3
HETATM    3  C8  UNL     1      22.585   0.744  51.978  1.00  0.00    -0.034 A 
HETATM    4  C6  UNL     1      22.788  -0.096  53.096  1.00  0.00    -0.048 A 
HETATM    5  C4  UNL     1      21.761  -0.709  53.817  1.00  0.00    -0.055 A 
HETATM    6  C7  UNL     1      24.184  -0.397  53.581  1.00  0.00     0.049 C 
HETATM    7  C3  UNL     1      20.454  -0.487  53.422  1.00  0.00     0.014 A 
HETATM    8  C5  UNL     1      22.053  -1.598  54.965  1.00  0.00     0.049 C 
HETATM    9  C2  UNL     1      20.231   0.326  52.343  1.00  0.00    -0.061 A 
HETATM   10  C1  UNL     1      18.827   0.599  51.902  1.00  0.00     0.048 C 
HETATM   11  C19 UNL     1      21.253   0.941  51.616  1.00  0.00     0.016 A 
ENDBRANCH   2   3
ENDBRANCH   1   2
BRANCH   1  12
HETATM   12  C10 UNL     1      23.915   3.381  52.741  1.00  0.00     0.126 C 
BRANCH  12  13
HETATM   13  C11 UNL     1      23.541   4.699  52.064  1.00  0.00     0.089 C 
BRANCH  13  14
HETATM   14  C12 UNL     1      22.068   4.727  51.945  1.00  0.00     0.232 C 
HETATM   15  O1  UNL     1      21.483   5.727  51.505  1.00  0.00    -0.307 OA
ENDBRANCH  13  14
ENDBRANCH  12  13
ENDBRANCH   1  12
BRANCH   1  16
HETATM   16  C13 UNL     1      25.846   2.170  51.855  1.00  0.00     0.175 C 
HETATM   17  C14 UNL     1      26.442   2.977  50.674  1.00  0.00     0.055 C 
BRANCH  16  18
HETATM   18  N2  UNL     1      26.436   2.663  53.083  1.00  0.00    -0.369 N 
HETATM   19  H22 UNL     1      25.957   3.323  53.767  1.00  0.00     0.161 HD
BRANCH  18  20
HETATM   20  C15 UNL     1      27.770   2.250  53.454  1.00  0.00     0.029 A 
HETATM   21  C16 UNL     1      29.049   2.339  53.844  1.00  0.00     0.029 A 
HETATM   22  C17 UNL     1      29.228   0.878  53.795  1.00  0.00     0.004 A 
HETATM   23  C18 UNL     1      27.972   0.791  53.411  1.00  0.00     0.029 A 
ENDBRANCH  18  20
ENDBRANCH  16  18
ENDBRANCH   1  16
TORSDOF 8
ENDMDL
