MODEL 1
REMARK VINA RESULT:      -8.3      0.000      0.000
REMARK  4 active torsions:
REMARK  status: ('A' for Active; 'I' for Inactive)
REMARK    1  A    between atoms: N1_6  and  C6_7 
REMARK    2  A    between atoms: C10_14  and  C11_15 
REMARK    3  A    between atoms: C11_15  and  N5_16 
REMARK    4  A    between atoms: C14_19  and  N6_20 
ROOT
HETATM    1  C6  UNL     1      24.799  -0.470  54.176  1.00  0.00     0.157 A 
HETATM    2  N2  UNL     1      24.890  -1.257  55.283  1.00  0.00    -0.220 NA
HETATM    3  C7  UNL     1      23.755  -1.674  55.871  1.00  0.00     0.258 A 
HETATM    4  N3  UNL     1      22.578  -1.299  55.346  1.00  0.00    -0.161 NA
HETATM    5  N4  UNL     1      22.444  -0.537  54.276  1.00  0.00    -0.240 N 
HETATM    6  C8  UNL     1      21.429  -0.014  53.567  1.00  0.00     0.119 A 
HETATM    7  C9  UNL     1      21.938   0.734  52.527  1.00  0.00     0.030 A 
HETATM    8  C10 UNL     1      23.340   0.682  52.580  1.00  0.00    -0.007 A 
HETATM    9  C17 UNL     1      23.566  -0.115  53.680  1.00  0.00     0.111 A 
ENDROOT
BRANCH   8  10
HETATM   10  C11 UNL     1      24.202   1.340  51.604  1.00  0.00     0.158 C 
BRANCH  10  11
HETATM   11  N5  UNL     1      24.788   2.573  51.986  1.00  0.00    -0.408 N 
HETATM   12  C12 UNL     1      24.205   3.233  53.097  1.00  0.00     0.119 C 
HETATM   13  C13 UNL     1      23.127   4.154  52.560  1.00  0.00     0.055 C 
HETATM   14  C14 UNL     1      23.854   5.233  51.782  1.00  0.00     0.221 C 
HETATM   15  C15 UNL     1      24.561   4.612  50.629  1.00  0.00     0.055 C 
HETATM   16  C16 UNL     1      25.345   3.375  50.973  1.00  0.00     0.119 C 
BRANCH  14  17
HETATM   17  N6  UNL     1      22.965   6.257  51.306  1.00  0.00     0.083 N 
HETATM   18  H19 UNL     1      22.088   5.780  50.959  1.00  0.00     0.313 HD
HETATM   19  H20 UNL     1      23.410   6.745  50.486  1.00  0.00     0.313 HD
ENDBRANCH  14  17
ENDBRANCH  10  11
ENDBRANCH   8  10
BRANCH   1  20
HETATM   20  N1  UNL     1      26.112  -0.129  53.682  1.00  0.00    -0.360 N 
HETATM   21  C5  UNL     1      27.023  -0.421  52.596  1.00  0.00     0.151 C 
HETATM   22  C4  UNL     1      28.308  -0.989  53.103  1.00  0.00    -0.011 C 
HETATM   23  C3  UNL     1      28.848  -0.174  54.001  1.00  0.00    -0.023 C 
HETATM   24  C2  UNL     1      28.156   1.102  54.358  1.00  0.00     0.022 C 
HETATM   25  C1  UNL     1      28.486   2.095  53.298  1.00  0.00     0.016 C 
HETATM   26  C18 UNL     1      26.707   0.833  54.571  1.00  0.00     0.133 C 
ENDBRANCH   1  20
TORSDOF 4
ENDMDL
MODEL 2
REMARK VINA RESULT:      -8.2      1.288      1.680
REMARK  4 active torsions:
REMARK  status: ('A' for Active; 'I' for Inactive)
REMARK    1  A    between atoms: N1_6  and  C6_7 
REMARK    2  A    between atoms: C10_14  and  C11_15 
REMARK    3  A    between atoms: C11_15  and  N5_16 
REMARK    4  A    between atoms: C14_19  and  N6_20 
ROOT
HETATM    1  C6  UNL     1      24.130  -0.391  53.846  1.00  0.00     0.157 A 
HETATM    2  N2  UNL     1      24.395  -1.075  54.992  1.00  0.00    -0.220 NA
HETATM    3  C7  UNL     1      23.362  -1.549  55.711  1.00  0.00     0.258 A 
HETATM    4  N3  UNL     1      22.113  -1.330  55.273  1.00  0.00    -0.161 NA
HETATM    5  N4  UNL     1      21.812  -0.671  54.169  1.00  0.00    -0.240 N 
HETATM    6  C8  UNL     1      20.691  -0.305  53.522  1.00  0.00     0.119 A 
HETATM    7  C9  UNL     1      21.032   0.403  52.389  1.00  0.00     0.030 A 
HETATM    8  C10 UNL     1      22.430   0.488  52.315  1.00  0.00    -0.007 A 
HETATM    9  C17 UNL     1      22.830  -0.194  53.442  1.00  0.00     0.111 A 
ENDROOT
BRANCH   8  10
HETATM   10  C11 UNL     1      23.135   1.145  51.218  1.00  0.00     0.158 C 
BRANCH  10  11
HETATM   11  N5  UNL     1      22.771   2.483  50.926  1.00  0.00    -0.408 N 
HETATM   12  C12 UNL     1      23.034   2.937  49.609  1.00  0.00     0.119 C 
HETATM   13  C13 UNL     1      24.426   3.539  49.608  1.00  0.00     0.055 C 
HETATM   14  C14 UNL     1      24.335   4.791  50.459  1.00  0.00     0.221 C 
HETATM   15  C15 UNL     1      23.988   4.409  51.854  1.00  0.00     0.055 C 
HETATM   16  C16 UNL     1      22.854   3.426  51.966  1.00  0.00     0.119 C 
BRANCH  14  17
HETATM   17  N6  UNL     1      25.561   5.542  50.458  1.00  0.00     0.083 N 
HETATM   18  H19 UNL     1      26.162   5.168  49.674  1.00  0.00     0.313 HD
HETATM   19  H20 UNL     1      26.071   5.370  51.363  1.00  0.00     0.313 HD
ENDBRANCH  14  17
ENDBRANCH  10  11
ENDBRANCH   8  10
BRANCH   1  20
HETATM   20  N1  UNL     1      25.354   0.033  53.209  1.00  0.00    -0.360 N 
HETATM   21  C5  UNL     1      26.359  -0.422  52.271  1.00  0.00     0.151 C 
HETATM   22  C4  UNL     1      27.713  -0.458  52.900  1.00  0.00    -0.011 C 
HETATM   23  C3  UNL     1      28.012   0.729  53.413  1.00  0.00    -0.023 C 
HETATM   24  C2  UNL     1      27.035   1.854  53.302  1.00  0.00     0.022 C 
HETATM   25  C1  UNL     1      27.183   2.436  51.939  1.00  0.00     0.016 C 
HETATM   26  C18 UNL     1      25.675   1.362  53.657  1.00  0.00     0.133 C 
ENDBRANCH   1  20
TORSDOF 4
ENDMDL
MODEL 3
REMARK VINA RESULT:      -8.1      1.835      2.625
REMARK  4 active torsions:
REMARK  status: ('A' for Active; 'I' for Inactive)
REMARK    1  A    between atoms: N1_6  and  C6_7 
REMARK    2  A    between atoms: C10_14  and  C11_15 
REMARK    3  A    between atoms: C11_15  and  N5_16 
REMARK    4  A    between atoms: C14_19  and  N6_20 
ROOT
HETATM    1  C6  UNL     1      23.769   0.596  52.942  1.00  0.00     0.157 A 
HETATM    2  N2  UNL     1      23.380  -0.621  53.409  1.00  0.00    -0.220 NA
HETATM    3  C7  UNL     1      22.067  -0.855  53.579  1.00  0.00     0.258 A 
HETATM    4  N3  UNL     1      21.191   0.119  53.283  1.00  0.00    -0.161 NA
HETATM    5  N4  UNL     1      21.526   1.313  52.829  1.00  0.00    -0.240 N 
HETATM    6  C8  UNL     1      20.885   2.440  52.476  1.00  0.00     0.119 A 
HETATM    7  C9  UNL     1      21.810   3.384  52.082  1.00  0.00     0.030 A 
HETATM    8  C10 UNL     1      23.093   2.828  52.189  1.00  0.00    -0.007 A 
HETATM    9  C17 UNL     1      22.830   1.560  52.654  1.00  0.00     0.111 A 
ENDROOT
BRANCH   8  10
HETATM   10  C11 UNL     1      24.310   3.546  51.820  1.00  0.00     0.158 C 
BRANCH  10  11
HETATM   11  N5  UNL     1      24.414   3.992  50.479  1.00  0.00    -0.408 N 
HETATM   12  C12 UNL     1      25.170   3.177  49.598  1.00  0.00     0.119 C 
HETATM   13  C13 UNL     1      26.605   3.666  49.649  1.00  0.00     0.055 C 
HETATM   14  C14 UNL     1      26.595   5.045  49.020  1.00  0.00     0.221 C 
HETATM   15  C15 UNL     1      25.757   5.954  49.848  1.00  0.00     0.055 C 
HETATM   16  C16 UNL     1      24.426   5.380  50.250  1.00  0.00     0.119 C 
BRANCH  14  17
HETATM   17  N6  UNL     1      27.916   5.595  48.889  1.00  0.00     0.083 N 
HETATM   18  H19 UNL     1      27.817   6.644  48.807  1.00  0.00     0.313 HD
HETATM   19  H20 UNL     1      28.349   5.244  47.996  1.00  0.00     0.313 HD
ENDBRANCH  14  17
ENDBRANCH  10  11
ENDBRANCH   8  10
BRANCH   1  20
HETATM   20  N1  UNL     1      25.206   0.661  52.818  1.00  0.00    -0.360 N 
HETATM   21  C5  UNL     1      26.274   0.400  51.877  1.00  0.00     0.151 C 
HETATM   22  C4  UNL     1      27.229  -0.618  52.408  1.00  0.00    -0.011 C 
HETATM   23  C3  UNL     1      27.692  -0.238  53.593  1.00  0.00    -0.023 C 
HETATM   24  C2  UNL     1      27.234   1.052  54.191  1.00  0.00     0.022 C 
HETATM   25  C1  UNL     1      28.033   2.140  53.561  1.00  0.00     0.016 C 
HETATM   26  C18 UNL     1      25.756   1.163  54.049  1.00  0.00     0.133 C 
ENDBRANCH   1  20
TORSDOF 4
ENDMDL
MODEL 4
REMARK VINA RESULT:      -8.0      1.680      5.339
REMARK  4 active torsions:
REMARK  status: ('A' for Active; 'I' for Inactive)
REMARK    1  A    between atoms: N1_6  and  C6_7 
REMARK    2  A    between atoms: C10_14  and  C11_15 
REMARK    3  A    between atoms: C11_15  and  N5_16 
REMARK    4  A    between atoms: C14_19  and  N6_20 
ROOT
HETATM    1  C6  UNL     1      22.219   2.007  52.228  1.00  0.00     0.157 A 
HETATM    2  N2  UNL     1      20.998   2.502  51.888  1.00  0.00    -0.220 NA
HETATM    3  C7  UNL     1      19.900   1.849  52.306  1.00  0.00     0.258 A 
HETATM    4  N3  UNL     1      20.048   0.735  53.040  1.00  0.00    -0.161 NA
HETATM    5  N4  UNL     1      21.212   0.221  53.392  1.00  0.00    -0.240 N 
HETATM    6  C8  UNL     1      21.641  -0.849  54.085  1.00  0.00     0.119 A 
HETATM    7  C9  UNL     1      23.020  -0.859  54.098  1.00  0.00     0.030 A 
HETATM    8  C10 UNL     1      23.485   0.254  53.382  1.00  0.00    -0.007 A 
HETATM    9  C17 UNL     1      22.315   0.861  52.983  1.00  0.00     0.111 A 
ENDROOT
BRANCH   8  10
HETATM   10  C11 UNL     1      24.901   0.570  53.224  1.00  0.00     0.158 C 
BRANCH  10  11
HETATM   11  N5  UNL     1      25.829  -0.286  53.868  1.00  0.00    -0.408 N 
HETATM   12  C12 UNL     1      26.518   0.252  54.984  1.00  0.00     0.119 C 
HETATM   13  C13 UNL     1      27.791   0.892  54.464  1.00  0.00     0.055 C 
HETATM   14  C14 UNL     1      28.654  -0.251  53.966  1.00  0.00     0.221 C 
HETATM   15  C15 UNL     1      27.967  -0.923  52.831  1.00  0.00     0.055 C 
HETATM   16  C16 UNL     1      26.513  -1.225  53.074  1.00  0.00     0.119 C 
BRANCH  14  17
HETATM   17  N6  UNL     1      29.956   0.191  53.546  1.00  0.00     0.083 N 
HETATM   18  H19 UNL     1      30.383   0.730  54.348  1.00  0.00     0.313 HD
HETATM   19  H20 UNL     1      29.849   0.856  52.735  1.00  0.00     0.313 HD
ENDBRANCH  14  17
ENDBRANCH  10  11
ENDBRANCH   8  10
BRANCH   1  20
HETATM   20  N1  UNL     1      23.274   2.839  51.699  1.00  0.00    -0.360 N 
HETATM   21  C5  UNL     1      24.137   3.941  52.067  1.00  0.00     0.151 C 
HETATM   22  C4  UNL     1      23.937   5.113  51.162  1.00  0.00    -0.011 C 
HETATM   23  C3  UNL     1      24.105   4.749  49.896  1.00  0.00    -0.023 C 
HETATM   24  C2  UNL     1      24.444   3.331  49.569  1.00  0.00     0.022 C 
HETATM   25  C1  UNL     1      25.910   3.167  49.782  1.00  0.00     0.016 C 
HETATM   26  C18 UNL     1      23.566   2.421  50.354  1.00  0.00     0.133 C 
ENDBRANCH   1  20
TORSDOF 4
ENDMDL
MODEL 5
REMARK VINA RESULT:      -7.5      1.988      5.204
REMARK  4 active torsions:
REMARK  status: ('A' for Active; 'I' for Inactive)
REMARK    1  A    between atoms: N1_6  and  C6_7 
REMARK    2  A    between atoms: C10_14  and  C11_15 
REMARK    3  A    between atoms: C11_15  and  N5_16 
REMARK    4  A    between atoms: C14_19  and  N6_20 
ROOT
HETATM    1  C6  UNL     1      20.980   0.938  52.068  1.00  0.00     0.157 A 
HETATM    2  N2  UNL     1      19.689   0.956  51.636  1.00  0.00    -0.220 NA
HETATM    3  C7  UNL     1      18.816   0.091  52.181  1.00  0.00     0.258 A 
HETATM    4  N3  UNL     1      19.249  -0.757  53.127  1.00  0.00    -0.161 NA
HETATM    5  N4  UNL     1      20.491  -0.809  53.574  1.00  0.00    -0.240 N 
HETATM    6  C8  UNL     1      21.179  -1.538  54.470  1.00  0.00     0.119 A 
HETATM    7  C9  UNL     1      22.493  -1.120  54.482  1.00  0.00     0.030 A 
HETATM    8  C10 UNL     1      22.643  -0.079  53.552  1.00  0.00    -0.007 A 
HETATM    9  C17 UNL     1      21.371   0.048  53.041  1.00  0.00     0.111 A 
ENDROOT
BRANCH   8  10
HETATM   10  C11 UNL     1      23.905   0.621  53.331  1.00  0.00     0.158 C 
BRANCH  10  11
HETATM   11  N5  UNL     1      25.078  -0.170  53.261  1.00  0.00    -0.408 N 
HETATM   12  C12 UNL     1      25.552  -0.709  54.484  1.00  0.00     0.119 C 
HETATM   13  C13 UNL     1      26.519   0.297  55.077  1.00  0.00     0.055 C 
HETATM   14  C14 UNL     1      27.718   0.314  54.149  1.00  0.00     0.221 C 
HETATM   15  C15 UNL     1      27.292   0.803  52.809  1.00  0.00     0.055 C 
HETATM   16  C16 UNL     1      26.035   0.164  52.285  1.00  0.00     0.119 C 
BRANCH  14  17
HETATM   17  N6  UNL     1      28.782   1.143  54.646  1.00  0.00     0.083 N 
HETATM   18  H19 UNL     1      28.381   2.105  54.821  1.00  0.00     0.313 HD
HETATM   19  H20 UNL     1      29.523   1.235  53.903  1.00  0.00     0.313 HD
ENDBRANCH  14  17
ENDBRANCH  10  11
ENDBRANCH   8  10
BRANCH   1  20
HETATM   20  N1  UNL     1      21.764   1.935  51.378  1.00  0.00    -0.360 N 
HETATM   21  C5  UNL     1      22.602   2.108  50.211  1.00  0.00     0.151 C 
HETATM   22  C4  UNL     1      23.983   2.529  50.592  1.00  0.00    -0.011 C 
HETATM   23  C3  UNL     1      23.939   3.626  51.340  1.00  0.00    -0.023 C 
HETATM   24  C2  UNL     1      22.620   4.244  51.675  1.00  0.00     0.022 C 
HETATM   25  C1  UNL     1      22.203   5.060  50.501  1.00  0.00     0.016 C 
HETATM   26  C18 UNL     1      21.670   3.178  52.097  1.00  0.00     0.133 C 
ENDBRANCH   1  20
TORSDOF 4
ENDMDL
MODEL 6
REMARK VINA RESULT:      -7.3      2.515      5.055
REMARK  4 active torsions:
REMARK  status: ('A' for Active; 'I' for Inactive)
REMARK    1  A    between atoms: N1_6  and  C6_7 
REMARK    2  A    between atoms: C10_14  and  C11_15 
REMARK    3  A    between atoms: C11_15  and  N5_16 
REMARK    4  A    between atoms: C14_19  and  N6_20 
ROOT
HETATM    1  C6  UNL     1      24.556   0.216  52.647  1.00  0.00     0.157 A 
HETATM    2  N2  UNL     1      25.357  -0.773  53.130  1.00  0.00    -0.220 NA
HETATM    3  C7  UNL     1      26.688  -0.656  52.976  1.00  0.00     0.258 A 
HETATM    4  N3  UNL     1      27.175   0.428  52.353  1.00  0.00    -0.161 NA
HETATM    5  N4  UNL     1      26.435   1.409  51.870  1.00  0.00    -0.240 N 
HETATM    6  C8  UNL     1      26.647   2.563  51.213  1.00  0.00     0.119 A 
HETATM    7  C9  UNL     1      25.435   3.169  50.957  1.00  0.00     0.030 A 
HETATM    8  C10 UNL     1      24.411   2.363  51.476  1.00  0.00    -0.007 A 
HETATM    9  C17 UNL     1      25.108   1.307  52.017  1.00  0.00     0.111 A 
ENDROOT
BRANCH   8  10
HETATM   10  C11 UNL     1      22.997   2.723  51.409  1.00  0.00     0.158 C 
BRANCH  10  11
HETATM   11  N5  UNL     1      22.455   2.972  50.124  1.00  0.00    -0.408 N 
HETATM   12  C12 UNL     1      21.417   3.936  50.050  1.00  0.00     0.119 C 
HETATM   13  C13 UNL     1      20.103   3.200  50.230  1.00  0.00     0.055 C 
HETATM   14  C14 UNL     1      19.942   2.334  48.996  1.00  0.00     0.221 C 
HETATM   15  C15 UNL     1      21.041   1.332  48.955  1.00  0.00     0.055 C 
HETATM   16  C16 UNL     1      22.410   1.899  49.213  1.00  0.00     0.119 C 
BRANCH  14  17
HETATM   17  N6  UNL     1      18.674   1.657  48.966  1.00  0.00     0.083 N 
HETATM   18  H19 UNL     1      18.709   0.950  48.181  1.00  0.00     0.313 HD
HETATM   19  H20 UNL     1      17.918   2.353  48.736  1.00  0.00     0.313 HD
ENDBRANCH  14  17
ENDBRANCH  10  11
ENDBRANCH   8  10
BRANCH   1  20
HETATM   20  N1  UNL     1      23.167  -0.077  52.908  1.00  0.00    -0.360 N 
HETATM   21  C5  UNL     1      21.866  -0.053  52.274  1.00  0.00     0.151 C 
HETATM   22  C4  UNL     1      20.922   0.843  53.005  1.00  0.00    -0.011 C 
HETATM   23  C3  UNL     1      20.846   0.485  54.282  1.00  0.00    -0.023 C 
HETATM   24  C2  UNL     1      21.650  -0.672  54.778  1.00  0.00     0.022 C 
HETATM   25  C1  UNL     1      20.911  -1.913  54.415  1.00  0.00     0.016 C 
HETATM   26  C18 UNL     1      23.041  -0.565  54.256  1.00  0.00     0.133 C 
ENDBRANCH   1  20
TORSDOF 4
ENDMDL
MODEL 7
REMARK VINA RESULT:      -7.2      1.602      4.529
REMARK  4 active torsions:
REMARK  status: ('A' for Active; 'I' for Inactive)
REMARK    1  A    between atoms: N1_6  and  C6_7 
REMARK    2  A    between atoms: C10_14  and  C11_15 
REMARK    3  A    between atoms: C11_15  and  N5_16 
REMARK    4  A    between atoms: C14_19  and  N6_20 
ROOT
HETATM    1  C6  UNL     1      24.588   0.349  53.102  1.00  0.00     0.157 A 
HETATM    2  N2  UNL     1      25.278  -0.332  54.057  1.00  0.00    -0.220 NA
HETATM    3  C7  UNL     1      26.597  -0.104  54.183  1.00  0.00     0.258 A 
HETATM    4  N3  UNL     1      27.183   0.784  53.364  1.00  0.00    -0.161 NA
HETATM    5  N4  UNL     1      26.551   1.464  52.425  1.00  0.00    -0.240 N 
HETATM    6  C8  UNL     1      26.876   2.372  51.488  1.00  0.00     0.119 A 
HETATM    7  C9  UNL     1      25.747   2.712  50.774  1.00  0.00     0.030 A 
HETATM    8  C10 UNL     1      24.658   1.988  51.282  1.00  0.00    -0.007 A 
HETATM    9  C17 UNL     1      25.237   1.248  52.289  1.00  0.00     0.111 A 
ENDROOT
BRANCH   8  10
HETATM   10  C11 UNL     1      23.296   2.130  50.776  1.00  0.00     0.158 C 
BRANCH  10  11
HETATM   11  N5  UNL     1      22.591   3.304  51.139  1.00  0.00    -0.408 N 
HETATM   12  C12 UNL     1      22.433   4.285  50.127  1.00  0.00     0.119 C 
HETATM   13  C13 UNL     1      23.621   5.224  50.219  1.00  0.00     0.055 C 
HETATM   14  C14 UNL     1      23.463   5.965  51.532  1.00  0.00     0.221 C 
HETATM   15  C15 UNL     1      23.543   4.992  52.655  1.00  0.00     0.055 C 
HETATM   16  C16 UNL     1      22.709   3.755  52.467  1.00  0.00     0.119 C 
BRANCH  14  17
HETATM   17  N6  UNL     1      24.460   6.985  51.708  1.00  0.00     0.083 N 
HETATM   18  H19 UNL     1      24.884   7.182  50.760  1.00  0.00     0.313 HD
HETATM   19  H20 UNL     1      25.226   6.614  52.329  1.00  0.00     0.313 HD
ENDBRANCH  14  17
ENDBRANCH  10  11
ENDBRANCH   8  10
BRANCH   1  20
HETATM   20  N1  UNL     1      23.192  -0.019  53.120  1.00  0.00    -0.360 N 
HETATM   21  C5  UNL     1      22.029  -0.090  52.261  1.00  0.00     0.151 C 
HETATM   22  C4  UNL     1      20.921   0.768  52.775  1.00  0.00    -0.011 C 
HETATM   23  C3  UNL     1      20.633   0.444  54.030  1.00  0.00    -0.023 C 
HETATM   24  C2  UNL     1      21.394  -0.649  54.708  1.00  0.00     0.022 C 
HETATM   25  C1  UNL     1      20.800  -1.942  54.266  1.00  0.00     0.016 C 
HETATM   26  C18 UNL     1      22.849  -0.475  54.441  1.00  0.00     0.133 C 
ENDBRANCH   1  20
TORSDOF 4
ENDMDL
MODEL 8
REMARK VINA RESULT:      -7.1      2.616      5.031
REMARK  4 active torsions:
REMARK  status: ('A' for Active; 'I' for Inactive)
REMARK    1  A    between atoms: N1_6  and  C6_7 
REMARK    2  A    between atoms: C10_14  and  C11_15 
REMARK    3  A    between atoms: C11_15  and  N5_16 
REMARK    4  A    between atoms: C14_19  and  N6_20 
ROOT
HETATM    1  C6  UNL     1      23.703   1.299  52.888  1.00  0.00     0.157 A 
HETATM    2  N2  UNL     1      24.989   0.868  53.006  1.00  0.00    -0.220 NA
HETATM    3  C7  UNL     1      25.230  -0.257  53.701  1.00  0.00     0.258 A 
HETATM    4  N3  UNL     1      24.196  -0.912  54.252  1.00  0.00    -0.161 NA
HETATM    5  N4  UNL     1      22.935  -0.530  54.163  1.00  0.00    -0.240 N 
HETATM    6  C8  UNL     1      21.745  -0.969  54.610  1.00  0.00     0.119 A 
HETATM    7  C9  UNL     1      20.755  -0.107  54.187  1.00  0.00     0.030 A 
HETATM    8  C10 UNL     1      21.345   0.923  53.438  1.00  0.00    -0.007 A 
HETATM    9  C17 UNL     1      22.680   0.589  53.473  1.00  0.00     0.111 A 
ENDROOT
BRANCH   8  10
HETATM   10  C11 UNL     1      20.579   1.995  52.809  1.00  0.00     0.158 C 
BRANCH  10  11
HETATM   11  N5  UNL     1      19.492   1.613  51.984  1.00  0.00    -0.408 N 
HETATM   12  C12 UNL     1      19.733   0.558  51.068  1.00  0.00     0.119 C 
HETATM   13  C13 UNL     1      20.220   1.183  49.775  1.00  0.00     0.055 C 
HETATM   14  C14 UNL     1      19.036   1.947  49.214  1.00  0.00     0.221 C 
HETATM   15  C15 UNL     1      18.667   3.038  50.156  1.00  0.00     0.055 C 
HETATM   16  C16 UNL     1      18.581   2.614  51.596  1.00  0.00     0.119 C 
BRANCH  14  17
HETATM   17  N6  UNL     1      19.310   2.504  47.918  1.00  0.00     0.083 N 
HETATM   18  H19 UNL     1      19.647   1.717  47.298  1.00  0.00     0.313 HD
HETATM   19  H20 UNL     1      20.094   3.202  48.001  1.00  0.00     0.313 HD
ENDBRANCH  14  17
ENDBRANCH  10  11
ENDBRANCH   8  10
BRANCH   1  20
HETATM   20  N1  UNL     1      23.639   2.511  52.107  1.00  0.00    -0.360 N 
HETATM   21  C5  UNL     1      23.599   3.951  52.254  1.00  0.00     0.151 C 
HETATM   22  C4  UNL     1      22.356   4.523  51.656  1.00  0.00    -0.011 C 
HETATM   23  C3  UNL     1      22.242   4.148  50.387  1.00  0.00    -0.023 C 
HETATM   24  C2  UNL     1      23.287   3.274  49.774  1.00  0.00     0.022 C 
HETATM   25  C1  UNL     1      24.426   4.152  49.384  1.00  0.00     0.016 C 
HETATM   26  C18 UNL     1      23.613   2.164  50.712  1.00  0.00     0.133 C 
ENDBRANCH   1  20
TORSDOF 4
ENDMDL
MODEL 9
REMARK VINA RESULT:      -7.0      7.088     10.369
REMARK  4 active torsions:
REMARK  status: ('A' for Active; 'I' for Inactive)
REMARK    1  A    between atoms: N1_6  and  C6_7 
REMARK    2  A    between atoms: C10_14  and  C11_15 
REMARK    3  A    between atoms: C11_15  and  N5_16 
REMARK    4  A    between atoms: C14_19  and  N6_20 
ROOT
HETATM    1  C6  UNL     1      27.545   8.462  48.653  1.00  0.00     0.157 A 
HETATM    2  N2  UNL     1      26.453   9.179  49.033  1.00  0.00    -0.220 NA
HETATM    3  C7  UNL     1      25.351   8.515  49.425  1.00  0.00     0.258 A 
HETATM    4  N3  UNL     1      25.369   7.173  49.426  1.00  0.00    -0.161 NA
HETATM    5  N4  UNL     1      26.406   6.439  49.065  1.00  0.00    -0.240 N 
HETATM    6  C8  UNL     1      26.687   5.129  48.959  1.00  0.00     0.119 A 
HETATM    7  C9  UNL     1      27.978   4.977  48.497  1.00  0.00     0.030 A 
HETATM    8  C10 UNL     1      28.538   6.249  48.303  1.00  0.00    -0.007 A 
HETATM    9  C17 UNL     1      27.510   7.086  48.673  1.00  0.00     0.111 A 
ENDROOT
BRANCH   8  10
HETATM   10  C11 UNL     1      29.910   6.459  47.850  1.00  0.00     0.158 C 
BRANCH  10  11
HETATM   11  N5  UNL     1      30.896   5.569  48.343  1.00  0.00    -0.408 N 
HETATM   12  C12 UNL     1      31.710   6.049  49.400  1.00  0.00     0.119 C 
HETATM   13  C13 UNL     1      32.922   6.710  48.774  1.00  0.00     0.055 C 
HETATM   14  C14 UNL     1      33.715   5.591  48.126  1.00  0.00     0.221 C 
HETATM   15  C15 UNL     1      32.900   4.978  47.043  1.00  0.00     0.055 C 
HETATM   16  C16 UNL     1      31.480   4.669  47.432  1.00  0.00     0.119 C 
BRANCH  14  17
HETATM   17  N6  UNL     1      34.965   6.049  47.586  1.00  0.00     0.083 N 
HETATM   18  H19 UNL     1      35.139   7.021  47.965  1.00  0.00     0.313 HD
HETATM   19  H20 UNL     1      34.881   6.125  46.539  1.00  0.00     0.313 HD
ENDBRANCH  14  17
ENDBRANCH  10  11
ENDBRANCH   8  10
BRANCH   1  20
HETATM   20  N1  UNL     1      28.627   9.339  48.274  1.00  0.00    -0.360 N 
HETATM   21  C5  UNL     1      29.186  10.015  47.123  1.00  0.00     0.151 C 
HETATM   22  C4  UNL     1      30.593   9.584  46.870  1.00  0.00    -0.011 C 
HETATM   23  C3  UNL     1      31.331   9.764  47.960  1.00  0.00    -0.023 C 
HETATM   24  C2  UNL     1      30.707  10.328  49.195  1.00  0.00     0.022 C 
HETATM   25  C1  UNL     1      30.647  11.806  49.024  1.00  0.00     0.016 C 
HETATM   26  C18 UNL     1      29.406   9.647  49.444  1.00  0.00     0.133 C 
ENDBRANCH   1  20
TORSDOF 4
ENDMDL
