MODEL 1
REMARK VINA RESULT:      -9.7      0.000      0.000
REMARK  2 active torsions:
REMARK  status: ('A' for Active; 'I' for Inactive)
REMARK    1  A    between atoms: C7_8  and  N1_9 
REMARK       I    between atoms: N1_9  and  C8_10 
REMARK       I    between atoms: C8_10  and  N2_12 
REMARK    2  A    between atoms: N3_21  and  C17_22 
ROOT
HETATM    1  N1  UNL     1      18.145   3.769  50.635  1.00  0.00    -0.308 N 
HETATM    2  C8  UNL     1      19.411   3.695  51.256  1.00  0.00     0.323 C 
HETATM    3  O1  UNL     1      19.279   3.326  52.471  1.00  0.00    -0.247 OA
HETATM    4  N2  UNL     1      20.626   3.997  50.581  1.00  0.00    -0.329 N 
HETATM    5  C9  UNL     1      20.435   4.396  49.195  1.00  0.00     0.154 C 
HETATM    6  C10 UNL     1      20.215   3.117  48.470  1.00  0.00    -0.007 C 
HETATM    7  C11 UNL     1      20.778   1.923  48.410  1.00  0.00    -0.003 C 
HETATM    8  C12 UNL     1      21.942   1.399  49.120  1.00  0.00    -0.003 C 
HETATM    9  C13 UNL     1      22.484   1.677  50.319  1.00  0.00    -0.014 C 
HETATM   10  C14 UNL     1      22.368   2.496  51.522  1.00  0.00     0.011 C 
HETATM   11  C15 UNL     1      21.777   1.726  52.695  1.00  0.00     0.036 C 
HETATM   12  C16 UNL     1      22.971   0.831  53.075  1.00  0.00     0.118 C 
HETATM   13  N3  UNL     1      24.090   1.700  52.978  1.00  0.00    -0.405 N 
HETATM   14  C23 UNL     1      23.805   2.716  52.027  1.00  0.00     0.132 C 
HETATM   15  C24 UNL     1      21.795   3.853  51.376  1.00  0.00     0.143 C 
HETATM   16  H7  UNL     1      18.032   4.051  49.636  1.00  0.00     0.170 HD
ENDROOT
BRANCH   1  17
HETATM   17  C7  UNL     1      16.969   3.450  51.384  1.00  0.00     0.045 A 
HETATM   18  C2  UNL     1      16.449   2.161  51.244  1.00  0.00    -0.035 A 
HETATM   19  C1  UNL     1      17.150   1.197  50.324  1.00  0.00     0.050 C 
HETATM   20  C3  UNL     1      15.324   1.706  51.897  1.00  0.00     0.012 A 
HETATM   21  C4  UNL     1      14.663   2.585  52.753  1.00  0.00     0.043 A 
HETATM   22  C5  UNL     1      15.170   3.853  52.894  1.00  0.00     0.118 A 
HETATM   23  F1  UNL     1      14.519   4.702  53.727  1.00  0.00    -0.206 F 
HETATM   24  C6  UNL     1      16.287   4.292  52.239  1.00  0.00     0.072 A 
ENDBRANCH   1  17
BRANCH  13  25
HETATM   25  C17 UNL     1      25.381   1.128  52.958  1.00  0.00     0.107 C 
HETATM   26  C18 UNL     1      25.476  -0.350  53.121  1.00  0.00     0.029 C 
HETATM   27  C19 UNL     1      26.961  -0.718  52.980  1.00  0.00     0.037 C 
HETATM   28  C20 UNL     1      27.772  -0.140  54.094  1.00  0.00     0.216 C 
HETATM   29  C21 UNL     1      29.052   0.450  53.546  1.00  0.00     0.042 C 
HETATM   30  N4  UNL     1      26.990   0.840  54.811  1.00  0.00     0.089 N 
HETATM   31  C22 UNL     1      26.335   1.776  53.948  1.00  0.00     0.294 C 
HETATM   32  H27 UNL     1      26.385   0.435  55.548  1.00  0.00     0.316 HD
ENDBRANCH  13  25
TORSDOF 2
ENDMDL
MODEL 2
REMARK VINA RESULT:      -8.9      4.725      6.328
REMARK  2 active torsions:
REMARK  status: ('A' for Active; 'I' for Inactive)
REMARK    1  A    between atoms: C7_8  and  N1_9 
REMARK       I    between atoms: N1_9  and  C8_10 
REMARK       I    between atoms: C8_10  and  N2_12 
REMARK    2  A    between atoms: N3_21  and  C17_22 
ROOT
HETATM    1  N1  UNL     1      21.116   1.096  52.003  1.00  0.00    -0.308 N 
HETATM    2  C8  UNL     1      21.873   2.275  51.819  1.00  0.00     0.323 C 
HETATM    3  O1  UNL     1      22.862   2.287  52.626  1.00  0.00    -0.247 OA
HETATM    4  N2  UNL     1      21.539   3.270  50.861  1.00  0.00    -0.329 N 
HETATM    5  C9  UNL     1      20.341   2.960  50.096  1.00  0.00     0.154 C 
HETATM    6  C10 UNL     1      20.796   1.973  49.082  1.00  0.00    -0.007 C 
HETATM    7  C11 UNL     1      21.793   1.847  48.225  1.00  0.00    -0.003 C 
HETATM    8  C12 UNL     1      22.915   2.742  47.955  1.00  0.00    -0.003 C 
HETATM    9  C13 UNL     1      23.581   3.630  48.715  1.00  0.00    -0.014 C 
HETATM   10  C14 UNL     1      23.679   4.232  50.041  1.00  0.00     0.011 C 
HETATM   11  C15 UNL     1      24.825   3.653  50.858  1.00  0.00     0.036 C 
HETATM   12  C16 UNL     1      26.030   4.311  50.159  1.00  0.00     0.118 C 
HETATM   13  N3  UNL     1      25.603   5.647  49.936  1.00  0.00    -0.405 N 
HETATM   14  C23 UNL     1      24.187   5.667  49.821  1.00  0.00     0.132 C 
HETATM   15  C24 UNL     1      22.430   4.377  50.823  1.00  0.00     0.143 C 
HETATM   16  H7  UNL     1      20.263   0.891  51.437  1.00  0.00     0.170 HD
ENDROOT
BRANCH   1  17
HETATM   17  C7  UNL     1      21.518   0.143  52.990  1.00  0.00     0.045 A 
HETATM   18  C2  UNL     1      20.535  -0.707  53.500  1.00  0.00    -0.035 A 
HETATM   19  C1  UNL     1      19.127  -0.572  52.984  1.00  0.00     0.050 C 
HETATM   20  C3  UNL     1      20.767  -1.673  54.454  1.00  0.00     0.012 A 
HETATM   21  C4  UNL     1      22.066  -1.813  54.943  1.00  0.00     0.043 A 
HETATM   22  C5  UNL     1      23.036  -0.979  54.445  1.00  0.00     0.118 A 
HETATM   23  F1  UNL     1      24.295  -1.121  54.927  1.00  0.00    -0.206 F 
HETATM   24  C6  UNL     1      22.791  -0.023  53.498  1.00  0.00     0.072 A 
ENDBRANCH   1  17
BRANCH  13  25
HETATM   25  C17 UNL     1      26.344   6.444  49.036  1.00  0.00     0.107 C 
HETATM   26  C18 UNL     1      27.614   5.874  48.505  1.00  0.00     0.029 C 
HETATM   27  C19 UNL     1      28.172   6.893  47.499  1.00  0.00     0.037 C 
HETATM   28  C20 UNL     1      28.559   8.168  48.175  1.00  0.00     0.216 C 
HETATM   29  C21 UNL     1      28.084   9.349  47.356  1.00  0.00     0.042 C 
HETATM   30  N4  UNL     1      28.023   8.192  49.516  1.00  0.00     0.089 N 
HETATM   31  C22 UNL     1      26.637   7.835  49.574  1.00  0.00     0.294 C 
HETATM   32  H27 UNL     1      28.622   7.717  50.214  1.00  0.00     0.316 HD
ENDBRANCH  13  25
TORSDOF 2
ENDMDL
MODEL 3
REMARK VINA RESULT:      -8.8      1.585      2.301
REMARK  2 active torsions:
REMARK  status: ('A' for Active; 'I' for Inactive)
REMARK    1  A    between atoms: C7_8  and  N1_9 
REMARK       I    between atoms: N1_9  and  C8_10 
REMARK       I    between atoms: C8_10  and  N2_12 
REMARK    2  A    between atoms: N3_21  and  C17_22 
ROOT
HETATM    1  N1  UNL     1      19.949   4.509  50.555  1.00  0.00    -0.308 N 
HETATM    2  C8  UNL     1      20.911   4.019  51.467  1.00  0.00     0.323 C 
HETATM    3  O1  UNL     1      20.445   3.006  52.089  1.00  0.00    -0.247 OA
HETATM    4  N2  UNL     1      22.195   4.606  51.629  1.00  0.00    -0.329 N 
HETATM    5  C9  UNL     1      22.418   5.760  50.772  1.00  0.00     0.154 C 
HETATM    6  C10 UNL     1      22.725   5.176  49.440  1.00  0.00    -0.007 C 
HETATM    7  C11 UNL     1      23.503   4.227  48.949  1.00  0.00    -0.003 C 
HETATM    8  C12 UNL     1      24.431   3.329  49.631  1.00  0.00    -0.003 C 
HETATM    9  C13 UNL     1      24.458   2.813  50.873  1.00  0.00    -0.014 C 
HETATM   10  C14 UNL     1      23.771   2.759  52.160  1.00  0.00     0.011 C 
HETATM   11  C15 UNL     1      22.980   1.471  52.343  1.00  0.00     0.036 C 
HETATM   12  C16 UNL     1      24.124   0.470  52.590  1.00  0.00     0.118 C 
HETATM   13  N3  UNL     1      25.008   1.172  53.453  1.00  0.00    -0.405 N 
HETATM   14  C23 UNL     1      24.870   2.567  53.221  1.00  0.00     0.132 C 
HETATM   15  C24 UNL     1      23.022   3.962  52.589  1.00  0.00     0.143 C 
HETATM   16  H7  UNL     1      20.134   5.334  49.945  1.00  0.00     0.170 HD
ENDROOT
BRANCH   1  17
HETATM   17  C7  UNL     1      18.677   3.862  50.452  1.00  0.00     0.045 A 
HETATM   18  C2  UNL     1      18.481   3.001  49.371  1.00  0.00    -0.035 A 
HETATM   19  C1  UNL     1      19.606   2.807  48.390  1.00  0.00     0.050 C 
HETATM   20  C3  UNL     1      17.313   2.309  49.135  1.00  0.00     0.012 A 
HETATM   21  C4  UNL     1      16.259   2.476  50.034  1.00  0.00     0.043 A 
HETATM   22  C5  UNL     1      16.449   3.322  51.099  1.00  0.00     0.118 A 
HETATM   23  F1  UNL     1      15.418   3.480  51.966  1.00  0.00    -0.206 F 
HETATM   24  C6  UNL     1      17.613   4.003  51.320  1.00  0.00     0.072 A 
ENDBRANCH   1  17
BRANCH  13  25
HETATM   25  C17 UNL     1      26.313   0.664  53.629  1.00  0.00     0.107 C 
HETATM   26  C18 UNL     1      26.864   0.659  55.014  1.00  0.00     0.029 C 
HETATM   27  C19 UNL     1      28.244  -0.011  54.941  1.00  0.00     0.037 C 
HETATM   28  C20 UNL     1      29.202   0.803  54.133  1.00  0.00     0.216 C 
HETATM   29  C21 UNL     1      29.992  -0.099  53.210  1.00  0.00     0.042 C 
HETATM   30  N4  UNL     1      28.484   1.823  53.406  1.00  0.00     0.089 N 
HETATM   31  C22 UNL     1      27.336   1.318  52.715  1.00  0.00     0.294 C 
HETATM   32  H27 UNL     1      28.314   2.686  53.953  1.00  0.00     0.316 HD
ENDBRANCH  13  25
TORSDOF 2
ENDMDL
MODEL 4
REMARK VINA RESULT:      -8.7      2.242      3.792
REMARK  2 active torsions:
REMARK  status: ('A' for Active; 'I' for Inactive)
REMARK    1  A    between atoms: C7_8  and  N1_9 
REMARK       I    between atoms: N1_9  and  C8_10 
REMARK       I    between atoms: C8_10  and  N2_12 
REMARK    2  A    between atoms: N3_21  and  C17_22 
ROOT
HETATM    1  N1  UNL     1      15.067   1.425  51.417  1.00  0.00    -0.308 N 
HETATM    2  C8  UNL     1      16.408   1.647  51.034  1.00  0.00     0.323 C 
HETATM    3  O1  UNL     1      16.690   2.888  51.135  1.00  0.00    -0.247 OA
HETATM    4  N2  UNL     1      17.275   0.605  50.606  1.00  0.00    -0.329 N 
HETATM    5  C9  UNL     1      16.645  -0.706  50.594  1.00  0.00     0.154 C 
HETATM    6  C10 UNL     1      16.650  -1.130  52.019  1.00  0.00    -0.007 C 
HETATM    7  C11 UNL     1      17.513  -1.172  53.019  1.00  0.00    -0.003 C 
HETATM    8  C12 UNL     1      18.915  -0.768  53.065  1.00  0.00    -0.003 C 
HETATM    9  C13 UNL     1      19.622   0.161  52.395  1.00  0.00    -0.014 C 
HETATM   10  C14 UNL     1      19.561   1.204  51.376  1.00  0.00     0.011 C 
HETATM   11  C15 UNL     1      19.529   2.602  51.978  1.00  0.00     0.036 C 
HETATM   12  C16 UNL     1      20.991   2.743  52.441  1.00  0.00     0.118 C 
HETATM   13  N3  UNL     1      21.740   2.189  51.370  1.00  0.00    -0.405 N 
HETATM   14  C23 UNL     1      20.943   1.221  50.701  1.00  0.00     0.132 C 
HETATM   15  C24 UNL     1      18.590   1.030  50.272  1.00  0.00     0.143 C 
HETATM   16  H7  UNL     1      14.638   0.474  51.408  1.00  0.00     0.170 HD
ENDROOT
BRANCH   1  17
HETATM   17  C7  UNL     1      14.258   2.528  51.835  1.00  0.00     0.045 A 
HETATM   18  C2  UNL     1      13.381   3.074  50.896  1.00  0.00    -0.035 A 
HETATM   19  C1  UNL     1      13.339   2.474  49.515  1.00  0.00     0.050 C 
HETATM   20  C3  UNL     1      12.542   4.137  51.147  1.00  0.00     0.012 A 
HETATM   21  C4  UNL     1      12.567   4.705  52.421  1.00  0.00     0.043 A 
HETATM   22  C5  UNL     1      13.428   4.172  53.348  1.00  0.00     0.118 A 
HETATM   23  F1  UNL     1      13.447   4.732  54.582  1.00  0.00    -0.206 F 
HETATM   24  C6  UNL     1      14.257   3.117  53.084  1.00  0.00     0.072 A 
ENDBRANCH   1  17
BRANCH  13  25
HETATM   25  C17 UNL     1      23.098   1.875  51.596  1.00  0.00     0.107 C 
HETATM   26  C18 UNL     1      23.407   0.951  52.723  1.00  0.00     0.029 C 
HETATM   27  C19 UNL     1      24.925   0.712  52.699  1.00  0.00     0.037 C 
HETATM   28  C20 UNL     1      25.677   1.968  52.995  1.00  0.00     0.216 C 
HETATM   29  C21 UNL     1      26.844   2.105  52.042  1.00  0.00     0.042 C 
HETATM   30  N4  UNL     1      24.785   3.102  52.921  1.00  0.00     0.089 N 
HETATM   31  C22 UNL     1      23.979   3.105  51.737  1.00  0.00     0.294 C 
HETATM   32  H27 UNL     1      24.266   3.283  53.798  1.00  0.00     0.316 HD
ENDBRANCH  13  25
TORSDOF 2
ENDMDL
MODEL 5
REMARK VINA RESULT:      -8.6      4.468      7.452
REMARK  2 active torsions:
REMARK  status: ('A' for Active; 'I' for Inactive)
REMARK    1  A    between atoms: C7_8  and  N1_9 
REMARK       I    between atoms: N1_9  and  C8_10 
REMARK       I    between atoms: C8_10  and  N2_12 
REMARK    2  A    between atoms: N3_21  and  C17_22 
ROOT
HETATM    1  N1  UNL     1      22.092   0.680  52.333  1.00  0.00    -0.308 N 
HETATM    2  C8  UNL     1      22.273   2.048  52.027  1.00  0.00     0.323 C 
HETATM    3  O1  UNL     1      23.257   2.516  52.693  1.00  0.00    -0.247 OA
HETATM    4  N2  UNL     1      21.452   2.753  51.105  1.00  0.00    -0.329 N 
HETATM    5  C9  UNL     1      20.406   1.932  50.515  1.00  0.00     0.154 C 
HETATM    6  C10 UNL     1      21.105   1.142  49.467  1.00  0.00    -0.007 C 
HETATM    7  C11 UNL     1      21.959   1.369  48.485  1.00  0.00    -0.003 C 
HETATM    8  C12 UNL     1      22.576   2.619  48.050  1.00  0.00    -0.003 C 
HETATM    9  C13 UNL     1      22.904   3.752  48.697  1.00  0.00    -0.014 C 
HETATM   10  C14 UNL     1      22.900   4.435  49.987  1.00  0.00     0.011 C 
HETATM   11  C15 UNL     1      24.270   4.428  50.652  1.00  0.00     0.036 C 
HETATM   12  C16 UNL     1      25.009   5.464  49.785  1.00  0.00     0.118 C 
HETATM   13  N3  UNL     1      24.051   6.495  49.598  1.00  0.00    -0.405 N 
HETATM   14  C23 UNL     1      22.747   5.934  49.675  1.00  0.00     0.132 C 
HETATM   15  C24 UNL     1      21.801   4.119  50.928  1.00  0.00     0.143 C 
HETATM   16  H7  UNL     1      21.339   0.109  51.891  1.00  0.00     0.170 HD
ENDROOT
BRANCH   1  17
HETATM   17  C7  UNL     1      22.961   0.044  53.273  1.00  0.00     0.045 A 
HETATM   18  C2  UNL     1      22.372  -0.551  54.391  1.00  0.00    -0.035 A 
HETATM   19  C1  UNL     1      20.875  -0.488  54.536  1.00  0.00     0.050 C 
HETATM   20  C3  UNL     1      23.075  -1.199  55.383  1.00  0.00     0.012 A 
HETATM   21  C4  UNL     1      24.463  -1.267  55.265  1.00  0.00     0.043 A 
HETATM   22  C5  UNL     1      25.046  -0.684  54.168  1.00  0.00     0.118 A 
HETATM   23  F1  UNL     1      26.396  -0.754  54.062  1.00  0.00    -0.206 F 
HETATM   24  C6  UNL     1      24.336  -0.043  53.191  1.00  0.00     0.072 A 
ENDBRANCH   1  17
BRANCH  13  25
HETATM   25  C17 UNL     1      24.291   7.456  48.592  1.00  0.00     0.107 C 
HETATM   26  C18 UNL     1      23.829   7.133  47.213  1.00  0.00     0.029 C 
HETATM   27  C19 UNL     1      24.133   8.362  46.343  1.00  0.00     0.037 C 
HETATM   28  C20 UNL     1      25.604   8.595  46.227  1.00  0.00     0.216 C 
HETATM   29  C21 UNL     1      25.906  10.069  46.389  1.00  0.00     0.042 C 
HETATM   30  N4  UNL     1      26.305   7.791  47.201  1.00  0.00     0.089 N 
HETATM   31  C22 UNL     1      25.746   7.888  48.515  1.00  0.00     0.294 C 
HETATM   32  H27 UNL     1      26.499   6.825  46.883  1.00  0.00     0.316 HD
ENDBRANCH  13  25
TORSDOF 2
ENDMDL
MODEL 6
REMARK VINA RESULT:      -8.6      4.307      7.099
REMARK  2 active torsions:
REMARK  status: ('A' for Active; 'I' for Inactive)
REMARK    1  A    between atoms: C7_8  and  N1_9 
REMARK       I    between atoms: N1_9  and  C8_10 
REMARK       I    between atoms: C8_10  and  N2_12 
REMARK    2  A    between atoms: N3_21  and  C17_22 
ROOT
HETATM    1  N1  UNL     1      21.397   0.756  51.719  1.00  0.00    -0.308 N 
HETATM    2  C8  UNL     1      21.446   2.167  51.680  1.00  0.00     0.323 C 
HETATM    3  O1  UNL     1      22.060   2.610  52.708  1.00  0.00    -0.247 OA
HETATM    4  N2  UNL     1      20.880   2.935  50.626  1.00  0.00    -0.329 N 
HETATM    5  C9  UNL     1      20.240   2.127  49.599  1.00  0.00     0.154 C 
HETATM    6  C10 UNL     1      21.368   1.616  48.777  1.00  0.00    -0.007 C 
HETATM    7  C11 UNL     1      22.454   2.104  48.203  1.00  0.00    -0.003 C 
HETATM    8  C12 UNL     1      22.970   3.469  48.184  1.00  0.00    -0.003 C 
HETATM    9  C13 UNL     1      22.874   4.496  49.048  1.00  0.00    -0.014 C 
HETATM   10  C14 UNL     1      22.327   4.933  50.329  1.00  0.00     0.011 C 
HETATM   11  C15 UNL     1      23.375   4.953  51.432  1.00  0.00     0.036 C 
HETATM   12  C16 UNL     1      24.185   6.199  51.030  1.00  0.00     0.118 C 
HETATM   13  N3  UNL     1      23.192   7.140  50.648  1.00  0.00    -0.405 N 
HETATM   14  C23 UNL     1      22.047   6.439  50.180  1.00  0.00     0.132 C 
HETATM   15  C24 UNL     1      21.042   4.340  50.765  1.00  0.00     0.143 C 
HETATM   16  H7  UNL     1      20.938   0.196  50.967  1.00  0.00     0.170 HD
ENDROOT
BRANCH   1  17
HETATM   17  C7  UNL     1      21.990   0.057  52.817  1.00  0.00     0.045 A 
HETATM   18  C2  UNL     1      21.130  -0.591  53.705  1.00  0.00    -0.035 A 
HETATM   19  C1  UNL     1      19.647  -0.518  53.457  1.00  0.00     0.050 C 
HETATM   20  C3  UNL     1      21.550  -1.302  54.808  1.00  0.00     0.012 A 
HETATM   21  C4  UNL     1      22.921  -1.382  55.054  1.00  0.00     0.043 A 
HETATM   22  C5  UNL     1      23.770  -0.746  54.182  1.00  0.00     0.118 A 
HETATM   23  F1  UNL     1      25.101  -0.827  54.430  1.00  0.00    -0.206 F 
HETATM   24  C6  UNL     1      23.339  -0.042  53.092  1.00  0.00     0.072 A 
ENDBRANCH   1  17
BRANCH  13  25
HETATM   25  C17 UNL     1      23.596   8.286  49.929  1.00  0.00     0.107 C 
HETATM   26  C18 UNL     1      22.839   8.618  48.690  1.00  0.00     0.029 C 
HETATM   27  C19 UNL     1      23.419   9.936  48.155  1.00  0.00     0.037 C 
HETATM   28  C20 UNL     1      24.839   9.769  47.722  1.00  0.00     0.216 C 
HETATM   29  C21 UNL     1      25.667  10.938  48.207  1.00  0.00     0.042 C 
HETATM   30  N4  UNL     1      25.352   8.508  48.205  1.00  0.00     0.089 N 
HETATM   31  C22 UNL     1      25.079   8.285  49.593  1.00  0.00     0.294 C 
HETATM   32  H27 UNL     1      25.137   7.705  47.587  1.00  0.00     0.316 HD
ENDBRANCH  13  25
TORSDOF 2
ENDMDL
MODEL 7
REMARK VINA RESULT:      -8.4      4.993      6.485
REMARK  2 active torsions:
REMARK  status: ('A' for Active; 'I' for Inactive)
REMARK    1  A    between atoms: C7_8  and  N1_9 
REMARK       I    between atoms: N1_9  and  C8_10 
REMARK       I    between atoms: C8_10  and  N2_12 
REMARK    2  A    between atoms: N3_21  and  C17_22 
ROOT
HETATM    1  N1  UNL     1      20.509   3.257  50.991  1.00  0.00    -0.308 N 
HETATM    2  C8  UNL     1      21.401   4.348  51.093  1.00  0.00     0.323 C 
HETATM    3  O1  UNL     1      22.351   4.060  51.895  1.00  0.00    -0.247 OA
HETATM    4  N2  UNL     1      21.221   5.567  50.383  1.00  0.00    -0.329 N 
HETATM    5  C9  UNL     1      20.028   5.582  49.551  1.00  0.00     0.154 C 
HETATM    6  C10 UNL     1      20.409   4.802  48.345  1.00  0.00    -0.007 C 
HETATM    7  C11 UNL     1      21.420   4.755  47.496  1.00  0.00    -0.003 C 
HETATM    8  C12 UNL     1      22.646   5.548  47.453  1.00  0.00    -0.003 C 
HETATM    9  C13 UNL     1      23.376   6.155  48.406  1.00  0.00    -0.014 C 
HETATM   10  C14 UNL     1      23.487   6.426  49.836  1.00  0.00     0.011 C 
HETATM   11  C15 UNL     1      24.527   5.546  50.515  1.00  0.00     0.036 C 
HETATM   12  C16 UNL     1      25.825   6.196  50.001  1.00  0.00     0.118 C 
HETATM   13  N3  UNL     1      25.562   7.589  50.084  1.00  0.00    -0.405 N 
HETATM   14  C23 UNL     1      24.163   7.803  49.957  1.00  0.00     0.132 C 
HETATM   15  C24 UNL     1      22.232   6.539  50.612  1.00  0.00     0.143 C 
HETATM   16  H7  UNL     1      19.662   3.288  50.382  1.00  0.00     0.170 HD
ENDROOT
BRANCH   1  17
HETATM   17  C7  UNL     1      20.761   2.065  51.740  1.00  0.00     0.045 A 
HETATM   18  C2  UNL     1      21.276   0.968  51.045  1.00  0.00    -0.035 A 
HETATM   19  C1  UNL     1      21.535   1.106  49.569  1.00  0.00     0.050 C 
HETATM   20  C3  UNL     1      21.568  -0.247  51.626  1.00  0.00     0.012 A 
HETATM   21  C4  UNL     1      21.336  -0.393  52.993  1.00  0.00     0.043 A 
HETATM   22  C5  UNL     1      20.829   0.683  53.679  1.00  0.00     0.118 A 
HETATM   23  F1  UNL     1      20.605   0.531  55.008  1.00  0.00    -0.206 F 
HETATM   24  C6  UNL     1      20.543   1.883  53.090  1.00  0.00     0.072 A 
ENDBRANCH   1  17
BRANCH  13  25
HETATM   25  C17 UNL     1      26.424   8.474  49.401  1.00  0.00     0.107 C 
HETATM   26  C18 UNL     1      27.319   7.891  48.362  1.00  0.00     0.029 C 
HETATM   27  C19 UNL     1      28.081   9.062  47.723  1.00  0.00     0.037 C 
HETATM   28  C20 UNL     1      28.990   9.722  48.708  1.00  0.00     0.216 C 
HETATM   29  C21 UNL     1      28.883  11.225  48.581  1.00  0.00     0.042 C 
HETATM   30  N4  UNL     1      28.673   9.270  50.043  1.00  0.00     0.089 N 
HETATM   31  C22 UNL     1      27.273   9.320  50.336  1.00  0.00     0.294 C 
HETATM   32  H27 UNL     1      29.139   8.383  50.306  1.00  0.00     0.316 HD
ENDBRANCH  13  25
TORSDOF 2
ENDMDL
MODEL 8
REMARK VINA RESULT:      -8.3      5.149      7.574
REMARK  2 active torsions:
REMARK  status: ('A' for Active; 'I' for Inactive)
REMARK    1  A    between atoms: C7_8  and  N1_9 
REMARK       I    between atoms: N1_9  and  C8_10 
REMARK       I    between atoms: C8_10  and  N2_12 
REMARK    2  A    between atoms: N3_21  and  C17_22 
ROOT
HETATM    1  N1  UNL     1      24.779   7.934  47.432  1.00  0.00    -0.308 N 
HETATM    2  C8  UNL     1      24.273   7.228  48.547  1.00  0.00     0.323 C 
HETATM    3  O1  UNL     1      23.046   6.932  48.353  1.00  0.00    -0.247 OA
HETATM    4  N2  UNL     1      25.056   6.919  49.691  1.00  0.00    -0.329 N 
HETATM    5  C9  UNL     1      26.425   7.406  49.605  1.00  0.00     0.154 C 
HETATM    6  C10 UNL     1      27.111   6.423  48.727  1.00  0.00    -0.007 C 
HETATM    7  C11 UNL     1      27.206   5.108  48.625  1.00  0.00    -0.003 C 
HETATM    8  C12 UNL     1      26.596   4.059  49.436  1.00  0.00    -0.003 C 
HETATM    9  C13 UNL     1      25.453   3.997  50.143  1.00  0.00    -0.014 C 
HETATM   10  C14 UNL     1      24.255   4.728  50.545  1.00  0.00     0.011 C 
HETATM   11  C15 UNL     1      23.025   4.308  49.753  1.00  0.00     0.036 C 
HETATM   12  C16 UNL     1      22.741   2.931  50.381  1.00  0.00     0.118 C 
HETATM   13  N3  UNL     1      22.948   3.143  51.770  1.00  0.00    -0.405 N 
HETATM   14  C23 UNL     1      23.884   4.199  51.942  1.00  0.00     0.132 C 
HETATM   15  C24 UNL     1      24.367   6.195  50.702  1.00  0.00     0.143 C 
HETATM   16  H7  UNL     1      25.767   8.267  47.389  1.00  0.00     0.170 HD
ENDROOT
BRANCH   1  17
HETATM   17  C7  UNL     1      23.924   8.207  46.318  1.00  0.00     0.045 A 
HETATM   18  C2  UNL     1      23.417   9.502  46.201  1.00  0.00    -0.035 A 
HETATM   19  C1  UNL     1      23.797  10.523  47.241  1.00  0.00     0.050 C 
HETATM   20  C3  UNL     1      22.581   9.916  45.187  1.00  0.00     0.012 A 
HETATM   21  C4  UNL     1      22.219   8.985  44.214  1.00  0.00     0.043 A 
HETATM   22  C5  UNL     1      22.716   7.710  44.326  1.00  0.00     0.118 A 
HETATM   23  F1  UNL     1      22.357   6.810  43.377  1.00  0.00    -0.206 F 
HETATM   24  C6  UNL     1      23.544   7.312  45.339  1.00  0.00     0.072 A 
ENDBRANCH   1  17
BRANCH  13  25
HETATM   25  C17 UNL     1      23.076   2.013  52.607  1.00  0.00     0.107 C 
HETATM   26  C18 UNL     1      24.157   1.041  52.284  1.00  0.00     0.029 C 
HETATM   27  C19 UNL     1      24.131  -0.034  53.381  1.00  0.00     0.037 C 
HETATM   28  C20 UNL     1      22.862  -0.821  53.342  1.00  0.00     0.216 C 
HETATM   29  C21 UNL     1      22.333  -1.013  54.746  1.00  0.00     0.042 C 
HETATM   30  N4  UNL     1      21.902  -0.158  52.490  1.00  0.00     0.089 N 
HETATM   31  C22 UNL     1      21.776   1.241  52.768  1.00  0.00     0.294 C 
HETATM   32  H27 UNL     1      22.001  -0.392  51.487  1.00  0.00     0.316 HD
ENDBRANCH  13  25
TORSDOF 2
ENDMDL
MODEL 9
REMARK VINA RESULT:      -8.2      9.606     13.651
REMARK  2 active torsions:
REMARK  status: ('A' for Active; 'I' for Inactive)
REMARK    1  A    between atoms: C7_8  and  N1_9 
REMARK       I    between atoms: N1_9  and  C8_10 
REMARK       I    between atoms: C8_10  and  N2_12 
REMARK    2  A    between atoms: N3_21  and  C17_22 
ROOT
HETATM    1  N1  UNL     1      32.986   6.979  46.418  1.00  0.00    -0.308 N 
HETATM    2  C8  UNL     1      31.574   6.963  46.391  1.00  0.00     0.323 C 
HETATM    3  O1  UNL     1      31.152   5.758  46.389  1.00  0.00    -0.247 OA
HETATM    4  N2  UNL     1      30.784   8.145  46.369  1.00  0.00    -0.329 N 
HETATM    5  C9  UNL     1      31.572   9.368  46.371  1.00  0.00     0.154 C 
HETATM    6  C10 UNL     1      31.991   9.535  47.787  1.00  0.00    -0.007 C 
HETATM    7  C11 UNL     1      31.427   9.487  48.981  1.00  0.00    -0.003 C 
HETATM    8  C12 UNL     1      30.040   9.224  49.353  1.00  0.00    -0.003 C 
HETATM    9  C13 UNL     1      29.060   8.502  48.778  1.00  0.00    -0.014 C 
HETATM   10  C14 UNL     1      28.710   7.652  47.645  1.00  0.00     0.011 C 
HETATM   11  C15 UNL     1      28.694   6.174  48.011  1.00  0.00     0.036 C 
HETATM   12  C16 UNL     1      27.394   6.101  48.833  1.00  0.00     0.118 C 
HETATM   13  N3  UNL     1      26.483   6.907  48.099  1.00  0.00    -0.405 N 
HETATM   14  C23 UNL     1      27.213   7.892  47.380  1.00  0.00     0.132 C 
HETATM   15  C24 UNL     1      29.381   7.919  46.353  1.00  0.00     0.143 C 
HETATM   16  H7  UNL     1      33.530   7.869  46.426  1.00  0.00     0.170 HD
ENDROOT
BRANCH   1  17
HETATM   17  C7  UNL     1      33.708   5.744  46.437  1.00  0.00     0.045 A 
HETATM   18  C2  UNL     1      34.172   5.253  45.215  1.00  0.00    -0.035 A 
HETATM   19  C1  UNL     1      33.890   6.044  43.965  1.00  0.00     0.050 C 
HETATM   20  C3  UNL     1      34.879   4.079  45.072  1.00  0.00     0.012 A 
HETATM   21  C4  UNL     1      35.151   3.334  46.218  1.00  0.00     0.043 A 
HETATM   22  C5  UNL     1      34.696   3.813  47.422  1.00  0.00     0.118 A 
HETATM   23  F1  UNL     1      34.963   3.080  48.531  1.00  0.00    -0.206 F 
HETATM   24  C6  UNL     1      33.994   4.979  47.549  1.00  0.00     0.072 A 
ENDBRANCH   1  17
BRANCH  13  25
HETATM   25  C17 UNL     1      25.287   7.311  48.732  1.00  0.00     0.107 C 
HETATM   26  C18 UNL     1      25.306   7.428  50.217  1.00  0.00     0.029 C 
HETATM   27  C19 UNL     1      23.926   7.956  50.638  1.00  0.00     0.037 C 
HETATM   28  C20 UNL     1      22.848   6.969  50.329  1.00  0.00     0.216 C 
HETATM   29  C21 UNL     1      21.658   7.679  49.723  1.00  0.00     0.042 C 
HETATM   30  N4  UNL     1      23.364   5.939  49.457  1.00  0.00     0.089 N 
HETATM   31  C22 UNL     1      24.089   6.462  48.338  1.00  0.00     0.294 C 
HETATM   32  H27 UNL     1      23.838   5.167  49.957  1.00  0.00     0.316 HD
ENDBRANCH  13  25
TORSDOF 2
ENDMDL
