MODEL 1
REMARK VINA RESULT:      -6.0      0.000      0.000
REMARK  6 active torsions:
REMARK  status: ('A' for Active; 'I' for Inactive)
REMARK    1  A    between atoms: C1_2  and  P1_3 
REMARK    2  A    between atoms: P1_3  and  C2_4 
REMARK    3  A    between atoms: C3_5  and  C4_6 
REMARK    4  A    between atoms: C5_7  and  C6_8 
REMARK    5  A    between atoms: C9_13  and  C10_14 
REMARK    6  A    between atoms: C10_14  and  P2_15 
ROOT
HETATM    1  C6  UNL     1      23.718   1.370  53.078  1.00  0.00     0.269 C 
HETATM    2  N1  UNL     1      22.537   0.523  53.159  1.00  0.00    -0.249 NA
HETATM    3  C7  UNL     1      21.875   0.303  52.047  1.00  0.00     0.204 C 
HETATM    4  N2  UNL     1      22.511   0.985  50.978  1.00  0.00    -0.351 N 
HETATM    5  C8  UNL     1      22.526   2.074  50.021  1.00  0.00     0.030 C 
HETATM    6  C9  UNL     1      22.053   1.949  48.794  1.00  0.00     0.007 C 
HETATM    7  C11 UNL     1      23.028   3.397  50.388  1.00  0.00     0.051 C 
HETATM    8  C12 UNL     1      23.570   4.372  51.127  1.00  0.00     0.037 C 
HETATM    9 CL1  UNL     1      24.062   6.032  51.220  1.00  0.00    -0.087 Cl
HETATM   10  C13 UNL     1      23.959   3.619  52.393  1.00  0.00     0.222 C 
HETATM   11  O1  UNL     1      23.610   2.340  52.157  1.00  0.00    -0.356 OA
HETATM   12  H10 UNL     1      23.406   0.718  50.515  1.00  0.00     0.166 HD
ENDROOT
BRANCH   1  13
HETATM   13  C5  UNL     1      24.839   0.407  52.774  1.00  0.00     0.028 C 
HETATM   14  C4  UNL     1      26.041  -0.106  52.783  1.00  0.00     0.000 C 
BRANCH  14  15
HETATM   15  C3  UNL     1      27.109  -1.037  52.486  1.00  0.00     0.001 C 
HETATM   16  C2  UNL     1      28.180  -0.985  53.227  1.00  0.00     0.006 C 
BRANCH  16  17
HETATM   17  P1  UNL     1      28.291   0.234  54.583  1.00  0.00    -0.076 P 
HETATM   18  H3  UNL     1      28.956  -0.330  55.738  1.00  0.00     0.064 HD
BRANCH  17  19
HETATM   19  C1  UNL     1      29.042   1.812  54.014  1.00  0.00     0.256 C 
HETATM   20  F1  UNL     1      28.035   2.724  53.787  1.00  0.00    -0.251 F 
ENDBRANCH  17  19
ENDBRANCH  16  17
ENDBRANCH  14  15
ENDBRANCH   1  13
BRANCH   6  21
HETATM   21  C10 UNL     1      21.870   2.718  47.573  1.00  0.00     0.057 C 
BRANCH  21  22
HETATM   22  P2  UNL     1      20.077   3.266  47.499  1.00  0.00    -0.138 P 
HETATM   23  H14 UNL     1      19.502   3.030  48.833  1.00  0.00     0.054 HD
HETATM   24  H15 UNL     1      20.062   4.704  47.303  1.00  0.00     0.054 HD
ENDBRANCH  21  22
ENDBRANCH   6  21
TORSDOF 6
ENDMDL
MODEL 2
REMARK VINA RESULT:      -5.9      2.973      6.672
REMARK  6 active torsions:
REMARK  status: ('A' for Active; 'I' for Inactive)
REMARK    1  A    between atoms: C1_2  and  P1_3 
REMARK    2  A    between atoms: P1_3  and  C2_4 
REMARK    3  A    between atoms: C3_5  and  C4_6 
REMARK    4  A    between atoms: C5_7  and  C6_8 
REMARK    5  A    between atoms: C9_13  and  C10_14 
REMARK    6  A    between atoms: C10_14  and  P2_15 
ROOT
HETATM    1  C6  UNL     1      22.514   2.260  51.871  1.00  0.00     0.269 C 
HETATM    2  N1  UNL     1      23.413   3.398  51.988  1.00  0.00    -0.249 NA
HETATM    3  C7  UNL     1      24.701   3.148  52.023  1.00  0.00     0.204 C 
HETATM    4  N2  UNL     1      24.911   1.748  51.932  1.00  0.00    -0.351 N 
HETATM    5  C8  UNL     1      25.283   0.496  52.561  1.00  0.00     0.030 C 
HETATM    6  C9  UNL     1      26.516   0.022  52.526  1.00  0.00     0.007 C 
HETATM    7  C11 UNL     1      24.309  -0.292  53.315  1.00  0.00     0.051 C 
HETATM    8  C12 UNL     1      23.141  -0.659  53.854  1.00  0.00     0.037 C 
HETATM    9 CL1  UNL     1      22.275  -1.811  54.816  1.00  0.00    -0.087 Cl
HETATM   10  C13 UNL     1      22.196   0.393  53.286  1.00  0.00     0.222 C 
HETATM   11  O1  UNL     1      22.968   1.161  52.494  1.00  0.00    -0.356 OA
HETATM   12  H10 UNL     1      24.804   1.157  51.081  1.00  0.00     0.166 HD
ENDROOT
BRANCH   1  13
HETATM   13  C5  UNL     1      22.366   2.062  50.382  1.00  0.00     0.028 C 
HETATM   14  C4  UNL     1      22.516   2.280  49.103  1.00  0.00     0.000 C 
BRANCH  14  15
HETATM   15  C3  UNL     1      22.368   2.080  47.677  1.00  0.00     0.001 C 
HETATM   16  C2  UNL     1      21.979   3.098  46.961  1.00  0.00     0.006 C 
BRANCH  16  17
HETATM   17  P1  UNL     1      21.643   4.702  47.766  1.00  0.00    -0.076 P 
HETATM   18  H3  UNL     1      21.027   4.515  49.063  1.00  0.00     0.064 HD
BRANCH  17  19
HETATM   19  C1  UNL     1      23.146   5.758  47.824  1.00  0.00     0.256 C 
HETATM   20  F1  UNL     1      24.153   5.058  48.451  1.00  0.00    -0.251 F 
ENDBRANCH  17  19
ENDBRANCH  16  17
ENDBRANCH  14  15
ENDBRANCH   1  13
BRANCH   6  21
HETATM   21  C10 UNL     1      27.300  -1.114  52.986  1.00  0.00     0.057 C 
BRANCH  21  22
HETATM   22  P2  UNL     1      28.887  -0.454  53.737  1.00  0.00    -0.138 P 
HETATM   23  H14 UNL     1      28.661   0.970  54.034  1.00  0.00     0.054 HD
HETATM   24  H15 UNL     1      29.074  -1.107  55.019  1.00  0.00     0.054 HD
ENDBRANCH  21  22
ENDBRANCH   6  21
TORSDOF 6
ENDMDL
MODEL 3
REMARK VINA RESULT:      -5.7      4.494      6.298
REMARK  6 active torsions:
REMARK  status: ('A' for Active; 'I' for Inactive)
REMARK    1  A    between atoms: C1_2  and  P1_3 
REMARK    2  A    between atoms: P1_3  and  C2_4 
REMARK    3  A    between atoms: C3_5  and  C4_6 
REMARK    4  A    between atoms: C5_7  and  C6_8 
REMARK    5  A    between atoms: C9_13  and  C10_14 
REMARK    6  A    between atoms: C10_14  and  P2_15 
ROOT
HETATM    1  C6  UNL     1      24.281   5.224  49.385  1.00  0.00     0.269 C 
HETATM    2  N1  UNL     1      24.138   6.117  50.525  1.00  0.00    -0.249 NA
HETATM    3  C7  UNL     1      24.190   5.580  51.722  1.00  0.00     0.204 C 
HETATM    4  N2  UNL     1      24.385   4.180  51.601  1.00  0.00    -0.351 N 
HETATM    5  C8  UNL     1      23.862   2.831  51.699  1.00  0.00     0.030 C 
HETATM    6  C9  UNL     1      23.995   2.095  52.788  1.00  0.00     0.007 C 
HETATM    7  C11 UNL     1      23.110   2.229  50.600  1.00  0.00     0.051 C 
HETATM    8  C12 UNL     1      22.533   2.095  49.400  1.00  0.00     0.037 C 
HETATM    9 CL1  UNL     1      21.603   1.098  48.330  1.00  0.00    -0.087 Cl
HETATM   10  C13 UNL     1      22.978   3.374  48.701  1.00  0.00     0.222 C 
HETATM   11  O1  UNL     1      23.758   4.007  49.598  1.00  0.00    -0.356 OA
HETATM   12  H10 UNL     1      25.267   3.696  51.329  1.00  0.00     0.166 HD
ENDROOT
BRANCH   1  13
HETATM   13  C5  UNL     1      25.769   5.180  49.138  1.00  0.00     0.028 C 
HETATM   14  C4  UNL     1      26.933   5.511  48.646  1.00  0.00     0.000 C 
BRANCH  14  15
HETATM   15  C3  UNL     1      28.362   5.459  48.417  1.00  0.00     0.001 C 
HETATM   16  C2  UNL     1      28.972   6.580  48.148  1.00  0.00     0.006 C 
BRANCH  16  17
HETATM   17  P1  UNL     1      28.022   8.138  48.070  1.00  0.00    -0.076 P 
HETATM   18  H3  UNL     1      26.606   7.877  47.916  1.00  0.00     0.064 HD
BRANCH  17  19
HETATM   19  C1  UNL     1      28.404   9.235  49.494  1.00  0.00     0.256 C 
HETATM   20  F1  UNL     1      27.496   8.986  50.499  1.00  0.00    -0.251 F 
ENDBRANCH  17  19
ENDBRANCH  16  17
ENDBRANCH  14  15
ENDBRANCH   1  13
BRANCH   6  21
HETATM   21  C10 UNL     1      23.655   0.780  53.307  1.00  0.00     0.057 C 
BRANCH  21  22
HETATM   22  P2  UNL     1      25.257  -0.124  53.683  1.00  0.00    -0.138 P 
HETATM   23  H14 UNL     1      25.171  -0.586  55.077  1.00  0.00     0.054 HD
HETATM   24  H15 UNL     1      25.291  -1.320  52.863  1.00  0.00     0.054 HD
ENDBRANCH  21  22
ENDBRANCH   6  21
TORSDOF 6
ENDMDL
MODEL 4
REMARK VINA RESULT:      -5.7      3.923      5.210
REMARK  6 active torsions:
REMARK  status: ('A' for Active; 'I' for Inactive)
REMARK    1  A    between atoms: C1_2  and  P1_3 
REMARK    2  A    between atoms: P1_3  and  C2_4 
REMARK    3  A    between atoms: C3_5  and  C4_6 
REMARK    4  A    between atoms: C5_7  and  C6_8 
REMARK    5  A    between atoms: C9_13  and  C10_14 
REMARK    6  A    between atoms: C10_14  and  P2_15 
ROOT
HETATM    1  C6  UNL     1      24.826   2.568  51.663  1.00  0.00     0.269 C 
HETATM    2  N1  UNL     1      24.446   2.976  53.007  1.00  0.00    -0.249 NA
HETATM    3  C7  UNL     1      23.896   4.160  53.146  1.00  0.00     0.204 C 
HETATM    4  N2  UNL     1      23.803   4.787  51.877  1.00  0.00    -0.351 N 
HETATM    5  C8  UNL     1      24.263   5.797  50.944  1.00  0.00     0.030 C 
HETATM    6  C9  UNL     1      23.691   6.984  50.844  1.00  0.00     0.007 C 
HETATM    7  C11 UNL     1      25.427   5.567  50.092  1.00  0.00     0.051 C 
HETATM    8  C12 UNL     1      26.466   4.938  49.531  1.00  0.00     0.037 C 
HETATM    9 CL1  UNL     1      27.787   5.011  48.411  1.00  0.00    -0.087 Cl
HETATM   10  C13 UNL     1      26.337   3.541  50.126  1.00  0.00     0.222 C 
HETATM   11  O1  UNL     1      25.233   3.593  50.896  1.00  0.00    -0.356 OA
HETATM   12  H10 UNL     1      23.135   4.550  51.113  1.00  0.00     0.166 HD
ENDROOT
BRANCH   1  13
HETATM   13  C5  UNL     1      23.589   1.895  51.120  1.00  0.00     0.028 C 
HETATM   14  C4  UNL     1      22.373   1.419  51.094  1.00  0.00     0.000 C 
BRANCH  14  15
HETATM   15  C3  UNL     1      21.192   0.772  50.562  1.00  0.00     0.001 C 
HETATM   16  C2  UNL     1      20.344   0.268  51.415  1.00  0.00     0.006 C 
BRANCH  16  17
HETATM   17  P1  UNL     1      20.670   0.393  53.207  1.00  0.00    -0.076 P 
HETATM   18  H3  UNL     1      19.479   0.792  53.927  1.00  0.00     0.064 HD
BRANCH  17  19
HETATM   19  C1  UNL     1      21.432  -1.144  53.865  1.00  0.00     0.256 C 
HETATM   20  F1  UNL     1      22.532  -1.455  53.097  1.00  0.00    -0.251 F 
ENDBRANCH  17  19
ENDBRANCH  16  17
ENDBRANCH  14  15
ENDBRANCH   1  13
BRANCH   6  21
HETATM   21  C10 UNL     1      23.803   8.230  50.102  1.00  0.00     0.057 C 
BRANCH  21  22
HETATM   22  P2  UNL     1      22.691   8.107  48.595  1.00  0.00    -0.138 P 
HETATM   23  H14 UNL     1      23.553   8.256  47.413  1.00  0.00     0.054 HD
HETATM   24  H15 UNL     1      22.167   6.755  48.543  1.00  0.00     0.054 HD
ENDBRANCH  21  22
ENDBRANCH   6  21
TORSDOF 6
ENDMDL
MODEL 5
REMARK VINA RESULT:      -5.5      2.266      2.893
REMARK  6 active torsions:
REMARK  status: ('A' for Active; 'I' for Inactive)
REMARK    1  A    between atoms: C1_2  and  P1_3 
REMARK    2  A    between atoms: P1_3  and  C2_4 
REMARK    3  A    between atoms: C3_5  and  C4_6 
REMARK    4  A    between atoms: C5_7  and  C6_8 
REMARK    5  A    between atoms: C9_13  and  C10_14 
REMARK    6  A    between atoms: C10_14  and  P2_15 
ROOT
HETATM    1  C6  UNL     1      23.219   3.957  52.244  1.00  0.00     0.269 C 
HETATM    2  N1  UNL     1      21.832   4.379  52.371  1.00  0.00    -0.249 NA
HETATM    3  C7  UNL     1      21.051   4.207  51.331  1.00  0.00     0.204 C 
HETATM    4  N2  UNL     1      21.795   3.617  50.277  1.00  0.00    -0.351 N 
HETATM    5  C8  UNL     1      22.446   3.735  48.986  1.00  0.00     0.030 C 
HETATM    6  C9  UNL     1      21.841   3.425  47.854  1.00  0.00     0.007 C 
HETATM    7  C11 UNL     1      23.807   4.255  48.869  1.00  0.00     0.051 C 
HETATM    8  C12 UNL     1      25.001   4.738  49.233  1.00  0.00     0.037 C 
HETATM    9 CL1  UNL     1      26.557   5.316  48.733  1.00  0.00    -0.087 Cl
HETATM   10  C13 UNL     1      24.914   4.659  50.753  1.00  0.00     0.222 C 
HETATM   11  O1  UNL     1      23.708   4.116  51.004  1.00  0.00    -0.356 OA
HETATM   12  H10 UNL     1      22.116   2.627  50.219  1.00  0.00     0.166 HD
ENDROOT
BRANCH   1  13
HETATM   13  C5  UNL     1      23.205   2.513  52.680  1.00  0.00     0.028 C 
HETATM   14  C4  UNL     1      23.556   1.256  52.745  1.00  0.00     0.000 C 
BRANCH  14  15
HETATM   15  C3  UNL     1      23.533  -0.128  53.171  1.00  0.00     0.001 C 
HETATM   16  C2  UNL     1      24.600  -0.598  53.753  1.00  0.00     0.006 C 
BRANCH  16  17
HETATM   17  P1  UNL     1      26.052   0.482  54.004  1.00  0.00    -0.076 P 
HETATM   18  H3  UNL     1      26.614   0.301  55.326  1.00  0.00     0.064 HD
BRANCH  17  19
HETATM   19  C1  UNL     1      27.287   0.277  52.659  1.00  0.00     0.256 C 
HETATM   20  F1  UNL     1      26.652  -0.240  51.551  1.00  0.00    -0.251 F 
ENDBRANCH  17  19
ENDBRANCH  16  17
ENDBRANCH  14  15
ENDBRANCH   1  13
BRANCH   6  21
HETATM   21  C10 UNL     1      22.082   3.388  46.420  1.00  0.00     0.057 C 
BRANCH  21  22
HETATM   22  P2  UNL     1      21.473   5.006  45.690  1.00  0.00    -0.138 P 
HETATM   23  H14 UNL     1      22.365   5.330  44.565  1.00  0.00     0.054 HD
HETATM   24  H15 UNL     1      20.165   4.763  45.110  1.00  0.00     0.054 HD
ENDBRANCH  21  22
ENDBRANCH   6  21
TORSDOF 6
ENDMDL
MODEL 6
REMARK VINA RESULT:      -5.3      4.012      5.597
REMARK  6 active torsions:
REMARK  status: ('A' for Active; 'I' for Inactive)
REMARK    1  A    between atoms: C1_2  and  P1_3 
REMARK    2  A    between atoms: P1_3  and  C2_4 
REMARK    3  A    between atoms: C3_5  and  C4_6 
REMARK    4  A    between atoms: C5_7  and  C6_8 
REMARK    5  A    between atoms: C9_13  and  C10_14 
REMARK    6  A    between atoms: C10_14  and  P2_15 
ROOT
HETATM    1  C6  UNL     1      24.762   2.573  51.538  1.00  0.00     0.269 C 
HETATM    2  N1  UNL     1      24.296   2.983  52.855  1.00  0.00    -0.249 NA
HETATM    3  C7  UNL     1      23.698   4.148  52.947  1.00  0.00     0.204 C 
HETATM    4  N2  UNL     1      23.650   4.755  51.666  1.00  0.00    -0.351 N 
HETATM    5  C8  UNL     1      24.123   5.770  50.744  1.00  0.00     0.030 C 
HETATM    6  C9  UNL     1      23.516   6.934  50.596  1.00  0.00     0.007 C 
HETATM    7  C11 UNL     1      25.339   5.572  49.958  1.00  0.00     0.051 C 
HETATM    8  C12 UNL     1      26.429   4.973  49.463  1.00  0.00     0.037 C 
HETATM    9 CL1  UNL     1      27.805   5.081  48.413  1.00  0.00    -0.087 Cl
HETATM   10  C13 UNL     1      26.318   3.580  50.071  1.00  0.00     0.222 C 
HETATM   11  O1  UNL     1      25.173   3.601  50.780  1.00  0.00    -0.356 OA
HETATM   12  H10 UNL     1      23.033   4.484  50.871  1.00  0.00     0.166 HD
ENDROOT
BRANCH   1  13
HETATM   13  C5  UNL     1      23.582   1.848  50.940  1.00  0.00     0.028 C 
HETATM   14  C4  UNL     1      22.368   1.376  50.834  1.00  0.00     0.000 C 
BRANCH  14  15
HETATM   15  C3  UNL     1      21.241   0.678  50.250  1.00  0.00     0.001 C 
HETATM   16  C2  UNL     1      20.552   1.303  49.337  1.00  0.00     0.006 C 
BRANCH  16  17
HETATM   17  P1  UNL     1      21.022   2.996  48.839  1.00  0.00    -0.076 P 
HETATM   18  H3  UNL     1      21.451   3.774  49.982  1.00  0.00     0.064 HD
BRANCH  17  19
HETATM   19  C1  UNL     1      22.247   2.983  47.470  1.00  0.00     0.256 C 
HETATM   20  F1  UNL     1      22.742   1.705  47.332  1.00  0.00    -0.251 F 
ENDBRANCH  17  19
ENDBRANCH  16  17
ENDBRANCH  14  15
ENDBRANCH   1  13
BRANCH   6  21
HETATM   21  C10 UNL     1      23.623   8.173  49.843  1.00  0.00     0.057 C 
BRANCH  21  22
HETATM   22  P2  UNL     1      22.633   7.975  48.261  1.00  0.00    -0.138 P 
HETATM   23  H14 UNL     1      21.987   9.270  47.996  1.00  0.00     0.054 HD
HETATM   24  H15 UNL     1      23.573   7.765  47.175  1.00  0.00     0.054 HD
ENDBRANCH  21  22
ENDBRANCH   6  21
TORSDOF 6
ENDMDL
MODEL 7
REMARK VINA RESULT:      -5.3      4.557      6.969
REMARK  6 active torsions:
REMARK  status: ('A' for Active; 'I' for Inactive)
REMARK    1  A    between atoms: C1_2  and  P1_3 
REMARK    2  A    between atoms: P1_3  and  C2_4 
REMARK    3  A    between atoms: C3_5  and  C4_6 
REMARK    4  A    between atoms: C5_7  and  C6_8 
REMARK    5  A    between atoms: C9_13  and  C10_14 
REMARK    6  A    between atoms: C10_14  and  P2_15 
ROOT
HETATM    1  C6  UNL     1      20.503   1.573  52.767  1.00  0.00     0.269 C 
HETATM    2  N1  UNL     1      20.152   2.983  52.834  1.00  0.00    -0.249 NA
HETATM    3  C7  UNL     1      20.816   3.808  52.058  1.00  0.00     0.204 C 
HETATM    4  N2  UNL     1      21.768   3.078  51.301  1.00  0.00    -0.351 N 
HETATM    5  C8  UNL     1      23.148   2.712  51.045  1.00  0.00     0.030 C 
HETATM    6  C9  UNL     1      23.896   3.341  50.156  1.00  0.00     0.007 C 
HETATM    7  C11 UNL     1      23.802   1.645  51.801  1.00  0.00     0.051 C 
HETATM    8  C12 UNL     1      23.964   0.648  52.677  1.00  0.00     0.037 C 
HETATM    9 CL1  UNL     1      25.036  -0.521  53.377  1.00  0.00    -0.087 Cl
HETATM   10  C13 UNL     1      22.547   0.469  53.206  1.00  0.00     0.222 C 
HETATM   11  O1  UNL     1      21.806   1.364  52.524  1.00  0.00    -0.356 OA
HETATM   12  H10 UNL     1      21.571   2.451  50.492  1.00  0.00     0.166 HD
ENDROOT
BRANCH   1  13
HETATM   13  C5  UNL     1      19.616   1.026  51.675  1.00  0.00     0.028 C 
HETATM   14  C4  UNL     1      18.520   0.673  51.057  1.00  0.00     0.000 C 
BRANCH  14  15
HETATM   15  C3  UNL     1      17.679   0.147  50.002  1.00  0.00     0.001 C 
HETATM   16  C2  UNL     1      16.559  -0.422  50.350  1.00  0.00     0.006 C 
BRANCH  16  17
HETATM   17  P1  UNL     1      16.102  -0.531  52.115  1.00  0.00    -0.076 P 
HETATM   18  H3  UNL     1      14.675  -0.370  52.295  1.00  0.00     0.064 HD
BRANCH  17  19
HETATM   19  C1  UNL     1      16.760  -2.062  52.890  1.00  0.00     0.256 C 
HETATM   20  F1  UNL     1      17.680  -1.709  53.854  1.00  0.00    -0.251 F 
ENDBRANCH  17  19
ENDBRANCH  16  17
ENDBRANCH  14  15
ENDBRANCH   1  13
BRANCH   6  21
HETATM   21  C10 UNL     1      25.240   3.324  49.600  1.00  0.00     0.057 C 
BRANCH  21  22
HETATM   22  P2  UNL     1      25.797   5.102  49.380  1.00  0.00    -0.138 P 
HETATM   23  H14 UNL     1      27.167   5.059  48.846  1.00  0.00     0.054 HD
HETATM   24  H15 UNL     1      24.978   5.696  48.340  1.00  0.00     0.054 HD
ENDBRANCH  21  22
ENDBRANCH   6  21
TORSDOF 6
ENDMDL
MODEL 8
REMARK VINA RESULT:      -5.3      3.351      4.071
REMARK  6 active torsions:
REMARK  status: ('A' for Active; 'I' for Inactive)
REMARK    1  A    between atoms: C1_2  and  P1_3 
REMARK    2  A    between atoms: P1_3  and  C2_4 
REMARK    3  A    between atoms: C3_5  and  C4_6 
REMARK    4  A    between atoms: C5_7  and  C6_8 
REMARK    5  A    between atoms: C9_13  and  C10_14 
REMARK    6  A    between atoms: C10_14  and  P2_15 
ROOT
HETATM    1  C6  UNL     1      23.502   4.600  52.149  1.00  0.00     0.269 C 
HETATM    2  N1  UNL     1      22.074   4.593  52.429  1.00  0.00    -0.249 NA
HETATM    3  C7  UNL     1      21.277   4.138  51.489  1.00  0.00     0.204 C 
HETATM    4  N2  UNL     1      22.050   3.743  50.367  1.00  0.00    -0.351 N 
HETATM    5  C8  UNL     1      22.495   3.983  49.008  1.00  0.00     0.030 C 
HETATM    6  C9  UNL     1      21.897   3.445  47.960  1.00  0.00     0.007 C 
HETATM    7  C11 UNL     1      23.613   4.880  48.724  1.00  0.00     0.051 C 
HETATM    8  C12 UNL     1      24.634   5.718  48.937  1.00  0.00     0.037 C 
HETATM    9 CL1  UNL     1      25.879   6.709  48.248  1.00  0.00    -0.087 Cl
HETATM   10  C13 UNL     1      24.735   5.698  50.457  1.00  0.00     0.222 C 
HETATM   11  O1  UNL     1      23.785   4.832  50.857  1.00  0.00    -0.356 OA
HETATM   12  H10 UNL     1      22.649   2.894  50.292  1.00  0.00     0.166 HD
ENDROOT
BRANCH   1  13
HETATM   13  C5  UNL     1      23.973   3.244  52.611  1.00  0.00     0.028 C 
HETATM   14  C4  UNL     1      23.955   1.955  52.825  1.00  0.00     0.000 C 
BRANCH  14  15
HETATM   15  C3  UNL     1      24.418   0.658  53.271  1.00  0.00     0.001 C 
HETATM   16  C2  UNL     1      23.554  -0.319  53.290  1.00  0.00     0.006 C 
BRANCH  16  17
HETATM   17  P1  UNL     1      21.830  -0.020  52.765  1.00  0.00    -0.076 P 
HETATM   18  H3  UNL     1      21.348  -1.095  51.924  1.00  0.00     0.064 HD
BRANCH  17  19
HETATM   19  C1  UNL     1      20.736   0.322  54.201  1.00  0.00     0.256 C 
HETATM   20  F1  UNL     1      21.339  -0.162  55.341  1.00  0.00    -0.251 F 
ENDBRANCH  17  19
ENDBRANCH  16  17
ENDBRANCH  14  15
ENDBRANCH   1  13
BRANCH   6  21
HETATM   21  C10 UNL     1      21.986   3.406  46.509  1.00  0.00     0.057 C 
BRANCH  21  22
HETATM   22  P2  UNL     1      20.904   4.779  45.826  1.00  0.00    -0.138 P 
HETATM   23  H14 UNL     1      19.725   4.870  46.701  1.00  0.00     0.054 HD
HETATM   24  H15 UNL     1      21.623   6.029  45.988  1.00  0.00     0.054 HD
ENDBRANCH  21  22
ENDBRANCH   6  21
TORSDOF 6
ENDMDL
MODEL 9
REMARK VINA RESULT:      -5.1     10.004     11.469
REMARK  6 active torsions:
REMARK  status: ('A' for Active; 'I' for Inactive)
REMARK    1  A    between atoms: C1_2  and  P1_3 
REMARK    2  A    between atoms: P1_3  and  C2_4 
REMARK    3  A    between atoms: C3_5  and  C4_6 
REMARK    4  A    between atoms: C5_7  and  C6_8 
REMARK    5  A    between atoms: C9_13  and  C10_14 
REMARK    6  A    between atoms: C10_14  and  P2_15 
ROOT
HETATM    1  C6  UNL     1      33.030   6.285  48.796  1.00  0.00     0.269 C 
HETATM    2  N1  UNL     1      34.123   7.218  48.568  1.00  0.00    -0.249 NA
HETATM    3  C7  UNL     1      34.341   7.601  47.331  1.00  0.00     0.204 C 
HETATM    4  N2  UNL     1      33.402   6.974  46.472  1.00  0.00    -0.351 N 
HETATM    5  C8  UNL     1      33.104   5.984  45.455  1.00  0.00     0.030 C 
HETATM    6  C9  UNL     1      33.110   6.268  44.165  1.00  0.00     0.007 C 
HETATM    7  C11 UNL     1      32.826   4.594  45.809  1.00  0.00     0.051 C 
HETATM    8  C12 UNL     1      32.625   3.509  46.565  1.00  0.00     0.037 C 
HETATM    9 CL1  UNL     1      32.276   1.811  46.620  1.00  0.00    -0.087 Cl
HETATM   10  C13 UNL     1      32.670   4.099  47.969  1.00  0.00     0.222 C 
HETATM   11  O1  UNL     1      32.853   5.421  47.784  1.00  0.00    -0.356 OA
HETATM   12  H10 UNL     1      32.390   7.205  46.381  1.00  0.00     0.166 HD
ENDROOT
BRANCH   1  13
HETATM   13  C5  UNL     1      31.829   7.172  49.015  1.00  0.00     0.028 C 
HETATM   14  C4  UNL     1      31.107   8.261  49.042  1.00  0.00     0.000 C 
BRANCH  14  15
HETATM   15  C3  UNL     1      29.949   9.103  49.255  1.00  0.00     0.001 C 
HETATM   16  C2  UNL     1      28.865   8.819  48.589  1.00  0.00     0.006 C 
BRANCH  16  17
HETATM   17  P1  UNL     1      28.849   7.403  47.436  1.00  0.00    -0.076 P 
HETATM   18  H3  UNL     1      30.095   7.313  46.703  1.00  0.00     0.064 HD
BRANCH  17  19
HETATM   19  C1  UNL     1      28.399   5.840  48.291  1.00  0.00     0.256 C 
HETATM   20  F1  UNL     1      29.328   4.875  47.966  1.00  0.00    -0.251 F 
ENDBRANCH  17  19
ENDBRANCH  16  17
ENDBRANCH  14  15
ENDBRANCH   1  13
BRANCH   6  21
HETATM   21  C10 UNL     1      32.888   5.640  42.872  1.00  0.00     0.057 C 
BRANCH  21  22
HETATM   22  P2  UNL     1      34.503   5.698  41.917  1.00  0.00    -0.138 P 
HETATM   23  H14 UNL     1      34.622   7.054  41.358  1.00  0.00     0.054 HD
HETATM   24  H15 UNL     1      35.586   5.561  42.873  1.00  0.00     0.054 HD
ENDBRANCH  21  22
ENDBRANCH   6  21
TORSDOF 6
ENDMDL
