MODEL 1
REMARK VINA RESULT:      -9.0      0.000      0.000
REMARK  4 active torsions:
REMARK  status: ('A' for Active; 'I' for Inactive)
REMARK    1  A    between atoms: C2_2  and  O1_4 
REMARK    2  A    between atoms: O1_4  and  C4_5 
REMARK    3  A    between atoms: C8_11  and  N3_12 
REMARK    4  A    between atoms: N3_12  and  C9_13 
ROOT
HETATM    1  C4  UNL     1      20.717   0.043  53.137  1.00  0.00     0.107 A 
HETATM    2  C5  UNL     1      21.186  -0.612  54.256  1.00  0.00     0.072 A 
HETATM    3  C6  UNL     1      22.522  -0.770  54.553  1.00  0.00     0.077 A 
HETATM    4  N1  UNL     1      22.915  -1.425  55.662  1.00  0.00    -0.241 NA
HETATM    5  C7  UNL     1      24.219  -1.549  55.895  1.00  0.00     0.236 A 
HETATM    6  N2  UNL     1      25.143  -1.038  55.054  1.00  0.00    -0.223 NA
HETATM    7  C8  UNL     1      24.796  -0.372  53.929  1.00  0.00     0.144 A 
HETATM    8  C15 UNL     1      23.444  -0.238  53.678  1.00  0.00     0.075 A 
HETATM    9  C16 UNL     1      23.040   0.436  52.529  1.00  0.00     0.121 A 
HETATM   10  C17 UNL     1      21.692   0.569  52.274  1.00  0.00     0.136 A 
HETATM   11  O2  UNL     1      21.412   1.252  51.110  1.00  0.00    -0.344 OA
HETATM   12  C18 UNL     1      22.205   2.184  50.456  1.00  0.00     0.202 C 
HETATM   13  C19 UNL     1      23.590   2.232  51.028  1.00  0.00     0.202 C 
HETATM   14  O3  UNL     1      23.914   0.992  51.611  1.00  0.00    -0.345 OA
ENDROOT
BRANCH   7  15
HETATM   15  N3  UNL     1      25.790   0.169  53.034  1.00  0.00    -0.340 N 
HETATM   16  H10 UNL     1      25.626   0.787  52.207  1.00  0.00     0.167 HD
BRANCH  15  17
HETATM   17  C9  UNL     1      27.155  -0.179  53.305  1.00  0.00     0.034 C 
HETATM   18  C10 UNL     1      27.595  -1.375  52.876  1.00  0.00     0.030 C 
HETATM   19  C11 UNL     1      28.988  -1.713  53.161  1.00  0.00     0.015 C 
HETATM   20  C12 UNL     1      29.829  -0.821  53.650  1.00  0.00    -0.014 C 
HETATM   21  C13 UNL     1      29.402   0.343  53.949  1.00  0.00    -0.012 C 
HETATM   22  C14 UNL     1      28.135   0.641  54.007  1.00  0.00     0.042 C 
ENDBRANCH  15  17
ENDBRANCH   7  15
BRANCH   1  23
HETATM   23  O1  UNL     1      19.425   0.251  52.754  1.00  0.00    -0.344 OA
BRANCH  23  24
HETATM   24  C2  UNL     1      18.542  -0.622  52.120  1.00  0.00     0.121 C 
HETATM   25  C1  UNL     1      17.758   0.011  51.004  1.00  0.00     0.040 C 
HETATM   26  C3  UNL     1      17.586  -1.251  53.105  1.00  0.00     0.040 C 
ENDBRANCH  23  24
ENDBRANCH   1  23
TORSDOF 4
ENDMDL
MODEL 2
REMARK VINA RESULT:      -8.3      1.894      3.424
REMARK  4 active torsions:
REMARK  status: ('A' for Active; 'I' for Inactive)
REMARK    1  A    between atoms: C2_2  and  O1_4 
REMARK    2  A    between atoms: O1_4  and  C4_5 
REMARK    3  A    between atoms: C8_11  and  N3_12 
REMARK    4  A    between atoms: N3_12  and  C9_13 
ROOT
HETATM    1  C4  UNL     1      21.338   2.469  52.493  1.00  0.00     0.107 A 
HETATM    2  C5  UNL     1      22.350   3.086  51.789  1.00  0.00     0.072 A 
HETATM    3  C6  UNL     1      23.640   2.608  51.713  1.00  0.00     0.077 A 
HETATM    4  N1  UNL     1      24.584   3.260  51.010  1.00  0.00    -0.241 NA
HETATM    5  C7  UNL     1      25.813   2.752  50.976  1.00  0.00     0.236 A 
HETATM    6  N2  UNL     1      26.127   1.610  51.623  1.00  0.00    -0.223 NA
HETATM    7  C8  UNL     1      25.213   0.920  52.342  1.00  0.00     0.144 A 
HETATM    8  C15 UNL     1      23.934   1.439  52.383  1.00  0.00     0.075 A 
HETATM    9  C16 UNL     1      22.960   0.765  53.113  1.00  0.00     0.121 A 
HETATM   10  C17 UNL     1      21.683   1.283  53.160  1.00  0.00     0.136 A 
HETATM   11  O2  UNL     1      20.807   0.532  53.912  1.00  0.00    -0.344 OA
HETATM   12  C18 UNL     1      20.878  -0.822  54.207  1.00  0.00     0.202 C 
HETATM   13  C19 UNL     1      22.197  -1.409  53.803  1.00  0.00     0.202 C 
HETATM   14  O3  UNL     1      23.190  -0.410  53.808  1.00  0.00    -0.345 OA
ENDROOT
BRANCH   7  15
HETATM   15  N3  UNL     1      25.558  -0.299  53.032  1.00  0.00    -0.340 N 
HETATM   16  H10 UNL     1      24.920  -1.091  53.274  1.00  0.00     0.167 HD
BRANCH  15  17
HETATM   17  C9  UNL     1      26.928  -0.444  53.433  1.00  0.00     0.034 C 
HETATM   18  C10 UNL     1      27.666  -1.382  52.815  1.00  0.00     0.030 C 
HETATM   19  C11 UNL     1      29.060  -1.516  53.235  1.00  0.00     0.015 C 
HETATM   20  C12 UNL     1      29.624  -0.642  54.046  1.00  0.00    -0.014 C 
HETATM   21  C13 UNL     1      28.920   0.304  54.534  1.00  0.00    -0.012 C 
HETATM   22  C14 UNL     1      27.619   0.334  54.454  1.00  0.00     0.042 C 
ENDBRANCH  15  17
ENDBRANCH   7  15
BRANCH   1  23
HETATM   23  O1  UNL     1      20.039   2.860  52.631  1.00  0.00    -0.344 OA
BRANCH  23  24
HETATM   24  C2  UNL     1      18.979   2.726  51.734  1.00  0.00     0.121 C 
HETATM   25  C1  UNL     1      19.156   1.605  50.747  1.00  0.00     0.040 C 
HETATM   26  C3  UNL     1      18.723   4.012  50.987  1.00  0.00     0.040 C 
ENDBRANCH  23  24
ENDBRANCH   1  23
TORSDOF 4
ENDMDL
MODEL 3
REMARK VINA RESULT:      -8.1      2.446      6.948
REMARK  4 active torsions:
REMARK  status: ('A' for Active; 'I' for Inactive)
REMARK    1  A    between atoms: C2_2  and  O1_4 
REMARK    2  A    between atoms: O1_4  and  C4_5 
REMARK    3  A    between atoms: C8_11  and  N3_12 
REMARK    4  A    between atoms: N3_12  and  C9_13 
ROOT
HETATM    1  C4  UNL     1      26.510   0.194  52.912  1.00  0.00     0.107 A 
HETATM    2  C5  UNL     1      25.502  -0.516  53.530  1.00  0.00     0.072 A 
HETATM    3  C6  UNL     1      24.174  -0.148  53.509  1.00  0.00     0.077 A 
HETATM    4  N1  UNL     1      23.238  -0.883  54.136  1.00  0.00    -0.241 NA
HETATM    5  C7  UNL     1      21.972  -0.476  54.083  1.00  0.00     0.236 A 
HETATM    6  N2  UNL     1      21.614   0.645  53.423  1.00  0.00    -0.223 NA
HETATM    7  C8  UNL     1      22.519   1.416  52.778  1.00  0.00     0.144 A 
HETATM    8  C15 UNL     1      23.836   1.001  52.826  1.00  0.00     0.075 A 
HETATM    9  C16 UNL     1      24.802   1.766  52.180  1.00  0.00     0.121 A 
HETATM   10  C17 UNL     1      26.118   1.356  52.229  1.00  0.00     0.136 A 
HETATM   11  O2  UNL     1      26.984   2.191  51.556  1.00  0.00    -0.344 OA
HETATM   12  C18 UNL     1      26.699   3.047  50.503  1.00  0.00     0.202 C 
HETATM   13  C19 UNL     1      25.222   3.178  50.279  1.00  0.00     0.202 C 
HETATM   14  O3  UNL     1      24.529   2.927  51.479  1.00  0.00    -0.345 OA
ENDROOT
BRANCH   7  15
HETATM   15  N3  UNL     1      22.128   2.614  52.075  1.00  0.00    -0.340 N 
HETATM   16  H10 UNL     1      22.245   3.602  52.397  1.00  0.00     0.167 HD
BRANCH  15  17
HETATM   17  C9  UNL     1      21.509   2.433  50.794  1.00  0.00     0.034 C 
HETATM   18  C10 UNL     1      20.609   3.350  50.396  1.00  0.00     0.030 C 
HETATM   19  C11 UNL     1      19.989   3.151  49.088  1.00  0.00     0.015 C 
HETATM   20  C12 UNL     1      20.419   2.224  48.254  1.00  0.00    -0.014 C 
HETATM   21  C13 UNL     1      21.350   1.434  48.622  1.00  0.00    -0.012 C 
HETATM   22  C14 UNL     1      21.757   1.344  49.858  1.00  0.00     0.042 C 
ENDBRANCH  15  17
ENDBRANCH   7  15
BRANCH   1  23
HETATM   23  O1  UNL     1      27.844  -0.084  52.876  1.00  0.00    -0.344 OA
BRANCH  23  24
HETATM   24  C2  UNL     1      28.776  -0.072  53.913  1.00  0.00     0.121 C 
HETATM   25  C1  UNL     1      29.220   1.307  54.315  1.00  0.00     0.040 C 
HETATM   26  C3  UNL     1      29.987  -0.907  53.575  1.00  0.00     0.040 C 
ENDBRANCH  23  24
ENDBRANCH   1  23
TORSDOF 4
ENDMDL
MODEL 4
REMARK VINA RESULT:      -7.9      3.217      5.104
REMARK  4 active torsions:
REMARK  status: ('A' for Active; 'I' for Inactive)
REMARK    1  A    between atoms: C2_2  and  O1_4 
REMARK    2  A    between atoms: O1_4  and  C4_5 
REMARK    3  A    between atoms: C8_11  and  N3_12 
REMARK    4  A    between atoms: N3_12  and  C9_13 
ROOT
HETATM    1  C4  UNL     1      22.897   1.193  52.965  1.00  0.00     0.107 A 
HETATM    2  C5  UNL     1      24.160   1.270  53.512  1.00  0.00     0.072 A 
HETATM    3  C6  UNL     1      25.263   1.753  52.841  1.00  0.00     0.077 A 
HETATM    4  N1  UNL     1      26.471   1.799  53.431  1.00  0.00    -0.241 NA
HETATM    5  C7  UNL     1      27.500   2.272  52.732  1.00  0.00     0.236 A 
HETATM    6  N2  UNL     1      27.357   2.701  51.461  1.00  0.00    -0.223 NA
HETATM    7  C8  UNL     1      26.163   2.675  50.827  1.00  0.00     0.144 A 
HETATM    8  C15 UNL     1      25.089   2.185  51.544  1.00  0.00     0.075 A 
HETATM    9  C16 UNL     1      23.841   2.136  50.930  1.00  0.00     0.121 A 
HETATM   10  C17 UNL     1      22.767   1.645  51.642  1.00  0.00     0.136 A 
HETATM   11  O2  UNL     1      21.585   1.643  50.933  1.00  0.00    -0.344 OA
HETATM   12  C18 UNL     1      21.231   2.451  49.863  1.00  0.00     0.202 C 
HETATM   13  C19 UNL     1      22.401   3.236  49.349  1.00  0.00     0.202 C 
HETATM   14  O3  UNL     1      23.600   2.553  49.633  1.00  0.00    -0.345 OA
ENDROOT
BRANCH   7  15
HETATM   15  N3  UNL     1      26.020   3.134  49.466  1.00  0.00    -0.340 N 
HETATM   16  H10 UNL     1      25.632   2.599  48.656  1.00  0.00     0.167 HD
BRANCH  15  17
HETATM   17  C9  UNL     1      26.457   4.472  49.191  1.00  0.00     0.034 C 
HETATM   18  C10 UNL     1      25.670   5.485  49.596  1.00  0.00     0.030 C 
HETATM   19  C11 UNL     1      26.130   6.842  49.308  1.00  0.00     0.015 C 
HETATM   20  C12 UNL     1      27.342   7.076  48.841  1.00  0.00    -0.014 C 
HETATM   21  C13 UNL     1      28.107   6.093  48.566  1.00  0.00    -0.012 C 
HETATM   22  C14 UNL     1      27.686   4.860  48.510  1.00  0.00     0.042 C 
ENDBRANCH  15  17
ENDBRANCH   7  15
BRANCH   1  23
HETATM   23  O1  UNL     1      21.749   0.734  53.541  1.00  0.00    -0.344 OA
BRANCH  23  24
HETATM   24  C2  UNL     1      21.156  -0.524  53.443  1.00  0.00     0.121 C 
HETATM   25  C1  UNL     1      19.655  -0.484  53.365  1.00  0.00     0.040 C 
HETATM   26  C3  UNL     1      21.572  -1.419  54.585  1.00  0.00     0.040 C 
ENDBRANCH  23  24
ENDBRANCH   1  23
TORSDOF 4
ENDMDL
MODEL 5
REMARK VINA RESULT:      -7.8      1.572      2.198
REMARK  4 active torsions:
REMARK  status: ('A' for Active; 'I' for Inactive)
REMARK    1  A    between atoms: C2_2  and  O1_4 
REMARK    2  A    between atoms: O1_4  and  C4_5 
REMARK    3  A    between atoms: C8_11  and  N3_12 
REMARK    4  A    between atoms: N3_12  and  C9_13 
ROOT
HETATM    1  C4  UNL     1      18.967  -0.321  52.349  1.00  0.00     0.107 A 
HETATM    2  C5  UNL     1      19.529  -0.876  53.479  1.00  0.00     0.072 A 
HETATM    3  C6  UNL     1      20.873  -0.822  53.778  1.00  0.00     0.077 A 
HETATM    4  N1  UNL     1      21.360  -1.388  54.897  1.00  0.00    -0.241 NA
HETATM    5  C7  UNL     1      22.668  -1.307  55.130  1.00  0.00     0.236 A 
HETATM    6  N2  UNL     1      23.504  -0.677  54.278  1.00  0.00    -0.223 NA
HETATM    7  C8  UNL     1      23.060  -0.093  53.142  1.00  0.00     0.144 A 
HETATM    8  C15 UNL     1      21.704  -0.172  52.890  1.00  0.00     0.075 A 
HETATM    9  C16 UNL     1      21.204   0.412  51.731  1.00  0.00     0.121 A 
HETATM   10  C17 UNL     1      19.851   0.332  51.475  1.00  0.00     0.136 A 
HETATM   11  O2  UNL     1      19.472   0.943  50.299  1.00  0.00    -0.344 OA
HETATM   12  C18 UNL     1      20.113   1.972  49.627  1.00  0.00     0.202 C 
HETATM   13  C19 UNL     1      21.474   2.243  50.196  1.00  0.00     0.202 C 
HETATM   14  O3  UNL     1      21.983   1.078  50.801  1.00  0.00    -0.345 OA
ENDROOT
BRANCH   7  15
HETATM   15  N3  UNL     1      23.961   0.577  52.236  1.00  0.00    -0.340 N 
HETATM   16  H10 UNL     1      23.741   0.943  51.281  1.00  0.00     0.167 HD
BRANCH  15  17
HETATM   17  C9  UNL     1      25.308   0.765  52.692  1.00  0.00     0.034 C 
HETATM   18  C10 UNL     1      26.219  -0.165  52.357  1.00  0.00     0.030 C 
HETATM   19  C11 UNL     1      27.586   0.041  52.830  1.00  0.00     0.015 C 
HETATM   20  C12 UNL     1      27.957   1.173  53.398  1.00  0.00    -0.014 C 
HETATM   21  C13 UNL     1      27.087   2.083  53.607  1.00  0.00    -0.012 C 
HETATM   22  C14 UNL     1      25.805   1.878  53.492  1.00  0.00     0.042 C 
ENDBRANCH  15  17
ENDBRANCH   7  15
BRANCH   1  23
HETATM   23  O1  UNL     1      17.658  -0.320  51.964  1.00  0.00    -0.344 OA
BRANCH  23  24
HETATM   24  C2  UNL     1      16.525  -0.671  52.696  1.00  0.00     0.121 C 
HETATM   25  C1  UNL     1      15.988  -2.036  52.366  1.00  0.00     0.040 C 
HETATM   26  C3  UNL     1      15.425   0.350  52.532  1.00  0.00     0.040 C 
ENDBRANCH  23  24
ENDBRANCH   1  23
TORSDOF 4
ENDMDL
MODEL 6
REMARK VINA RESULT:      -7.8      3.562      5.969
REMARK  4 active torsions:
REMARK  status: ('A' for Active; 'I' for Inactive)
REMARK    1  A    between atoms: C2_2  and  O1_4 
REMARK    2  A    between atoms: O1_4  and  C4_5 
REMARK    3  A    between atoms: C8_11  and  N3_12 
REMARK    4  A    between atoms: N3_12  and  C9_13 
ROOT
HETATM    1  C4  UNL     1      22.909   1.025  52.898  1.00  0.00     0.107 A 
HETATM    2  C5  UNL     1      22.174   1.506  51.835  1.00  0.00     0.072 A 
HETATM    3  C6  UNL     1      22.717   2.192  50.770  1.00  0.00     0.077 A 
HETATM    4  N1  UNL     1      21.944   2.639  49.764  1.00  0.00    -0.241 NA
HETATM    5  C7  UNL     1      22.524   3.298  48.764  1.00  0.00     0.236 A 
HETATM    6  N2  UNL     1      23.854   3.524  48.739  1.00  0.00    -0.223 NA
HETATM    7  C8  UNL     1      24.671   3.093  49.728  1.00  0.00     0.144 A 
HETATM    8  C15 UNL     1      24.079   2.408  50.770  1.00  0.00     0.075 A 
HETATM    9  C16 UNL     1      24.880   1.950  51.811  1.00  0.00     0.121 A 
HETATM   10  C17 UNL     1      24.291   1.268  52.855  1.00  0.00     0.136 A 
HETATM   11  O2  UNL     1      25.181   0.865  53.827  1.00  0.00    -0.344 OA
HETATM   12  C18 UNL     1      26.540   0.625  53.693  1.00  0.00     0.202 C 
HETATM   13  C19 UNL     1      27.057   1.089  52.363  1.00  0.00     0.202 C 
HETATM   14  O3  UNL     1      26.250   2.133  51.872  1.00  0.00    -0.345 OA
ENDROOT
BRANCH   7  15
HETATM   15  N3  UNL     1      26.092   3.340  49.695  1.00  0.00    -0.340 N 
HETATM   16  H10 UNL     1      26.857   2.666  49.927  1.00  0.00     0.167 HD
BRANCH  15  17
HETATM   17  C9  UNL     1      26.506   4.656  49.299  1.00  0.00     0.034 C 
HETATM   18  C10 UNL     1      27.662   4.773  48.622  1.00  0.00     0.030 C 
HETATM   19  C11 UNL     1      28.068   6.120  48.226  1.00  0.00     0.015 C 
HETATM   20  C12 UNL     1      27.257   7.153  48.359  1.00  0.00    -0.014 C 
HETATM   21  C13 UNL     1      26.119   6.988  48.911  1.00  0.00    -0.012 C 
HETATM   22  C14 UNL     1      25.793   5.902  49.553  1.00  0.00     0.042 C 
ENDBRANCH  15  17
ENDBRANCH   7  15
BRANCH   1  23
HETATM   23  O1  UNL     1      22.470   0.340  53.993  1.00  0.00    -0.344 OA
BRANCH  23  24
HETATM   24  C2  UNL     1      22.379  -1.037  54.193  1.00  0.00     0.121 C 
HETATM   25  C1  UNL     1      20.968  -1.556  54.211  1.00  0.00     0.040 C 
HETATM   26  C3  UNL     1      23.081  -1.457  55.461  1.00  0.00     0.040 C 
ENDBRANCH  23  24
ENDBRANCH   1  23
TORSDOF 4
ENDMDL
MODEL 7
REMARK VINA RESULT:      -7.7      2.466      7.578
REMARK  4 active torsions:
REMARK  status: ('A' for Active; 'I' for Inactive)
REMARK    1  A    between atoms: C2_2  and  O1_4 
REMARK    2  A    between atoms: O1_4  and  C4_5 
REMARK    3  A    between atoms: C8_11  and  N3_12 
REMARK    4  A    between atoms: N3_12  and  C9_13 
ROOT
HETATM    1  C4  UNL     1      26.177   0.921  53.928  1.00  0.00     0.107 A 
HETATM    2  C5  UNL     1      26.205   1.860  52.919  1.00  0.00     0.072 A 
HETATM    3  C6  UNL     1      25.189   2.042  52.007  1.00  0.00     0.077 A 
HETATM    4  N1  UNL     1      25.280   2.976  51.042  1.00  0.00    -0.241 NA
HETATM    5  C7  UNL     1      24.267   3.103  50.187  1.00  0.00     0.236 A 
HETATM    6  N2  UNL     1      23.167   2.326  50.268  1.00  0.00    -0.223 NA
HETATM    7  C8  UNL     1      23.031   1.376  51.221  1.00  0.00     0.144 A 
HETATM    8  C15 UNL     1      24.076   1.236  52.113  1.00  0.00     0.075 A 
HETATM    9  C16 UNL     1      23.981   0.268  53.108  1.00  0.00     0.121 A 
HETATM   10  C17 UNL     1      25.024   0.123  53.998  1.00  0.00     0.136 A 
HETATM   11  O2  UNL     1      24.820  -0.866  54.936  1.00  0.00    -0.344 OA
HETATM   12  C18 UNL     1      23.612  -1.370  55.396  1.00  0.00     0.202 C 
HETATM   13  C19 UNL     1      22.458  -0.881  54.572  1.00  0.00     0.202 C 
HETATM   14  O3  UNL     1      22.894  -0.573  53.269  1.00  0.00    -0.345 OA
ENDROOT
BRANCH   7  15
HETATM   15  N3  UNL     1      21.852   0.549  51.299  1.00  0.00    -0.340 N 
HETATM   16  H10 UNL     1      21.810  -0.473  51.516  1.00  0.00     0.167 HD
BRANCH  15  17
HETATM   17  C9  UNL     1      20.596   1.196  51.054  1.00  0.00     0.034 C 
HETATM   18  C10 UNL     1      20.100   1.991  52.018  1.00  0.00     0.030 C 
HETATM   19  C11 UNL     1      18.820   2.643  51.752  1.00  0.00     0.015 C 
HETATM   20  C12 UNL     1      18.262   2.608  50.556  1.00  0.00    -0.014 C 
HETATM   21  C13 UNL     1      18.815   1.929  49.628  1.00  0.00    -0.012 C 
HETATM   22  C14 UNL     1      19.785   1.086  49.847  1.00  0.00     0.042 C 
ENDBRANCH  15  17
ENDBRANCH   7  15
BRANCH   1  23
HETATM   23  O1  UNL     1      27.125   0.663  54.874  1.00  0.00    -0.344 OA
BRANCH  23  24
HETATM   24  C2  UNL     1      28.455   0.280  54.708  1.00  0.00     0.121 C 
HETATM   25  C1  UNL     1      29.389   1.429  54.445  1.00  0.00     0.040 C 
HETATM   26  C3  UNL     1      28.601  -0.742  53.607  1.00  0.00     0.040 C 
ENDBRANCH  23  24
ENDBRANCH   1  23
TORSDOF 4
ENDMDL
MODEL 8
REMARK VINA RESULT:      -7.4      2.966      7.718
REMARK  4 active torsions:
REMARK  status: ('A' for Active; 'I' for Inactive)
REMARK    1  A    between atoms: C2_2  and  O1_4 
REMARK    2  A    between atoms: O1_4  and  C4_5 
REMARK    3  A    between atoms: C8_11  and  N3_12 
REMARK    4  A    between atoms: N3_12  and  C9_13 
ROOT
HETATM    1  C4  UNL     1      26.501   0.492  52.374  1.00  0.00     0.107 A 
HETATM    2  C5  UNL     1      26.880   1.594  51.636  1.00  0.00     0.072 A 
HETATM    3  C6  UNL     1      25.997   2.513  51.114  1.00  0.00     0.077 A 
HETATM    4  N1  UNL     1      26.431   3.566  50.398  1.00  0.00    -0.241 NA
HETATM    5  C7  UNL     1      25.530   4.419  49.916  1.00  0.00     0.236 A 
HETATM    6  N2  UNL     1      24.208   4.251  50.128  1.00  0.00    -0.223 NA
HETATM    7  C8  UNL     1      23.725   3.208  50.841  1.00  0.00     0.144 A 
HETATM    8  C15 UNL     1      24.652   2.317  51.346  1.00  0.00     0.075 A 
HETATM    9  C16 UNL     1      24.200   1.227  52.083  1.00  0.00     0.121 A 
HETATM   10  C17 UNL     1      25.122   0.334  52.586  1.00  0.00     0.136 A 
HETATM   11  O2  UNL     1      24.559  -0.704  53.296  1.00  0.00    -0.344 OA
HETATM   12  C18 UNL     1      23.338  -0.726  53.952  1.00  0.00     0.202 C 
HETATM   13  C19 UNL     1      22.508   0.478  53.620  1.00  0.00     0.202 C 
HETATM   14  O3  UNL     1      22.866   0.974  52.351  1.00  0.00    -0.345 OA
ENDROOT
BRANCH   7  15
HETATM   15  N3  UNL     1      22.310   3.035  51.061  1.00  0.00    -0.340 N 
HETATM   16  H10 UNL     1      21.825   2.896  51.977  1.00  0.00     0.167 HD
BRANCH  15  17
HETATM   17  C9  UNL     1      21.472   3.055  49.897  1.00  0.00     0.034 C 
HETATM   18  C10 UNL     1      20.485   3.967  49.850  1.00  0.00     0.030 C 
HETATM   19  C11 UNL     1      19.641   3.974  48.657  1.00  0.00     0.015 C 
HETATM   20  C12 UNL     1      19.941   3.250  47.594  1.00  0.00    -0.014 C 
HETATM   21  C13 UNL     1      20.950   2.471  47.633  1.00  0.00    -0.012 C 
HETATM   22  C14 UNL     1      21.579   2.179  48.736  1.00  0.00     0.042 C 
ENDBRANCH  15  17
ENDBRANCH   7  15
BRANCH   1  23
HETATM   23  O1  UNL     1      27.292  -0.470  52.931  1.00  0.00    -0.344 OA
BRANCH  23  24
HETATM   24  C2  UNL     1      28.584  -0.362  53.443  1.00  0.00     0.121 C 
HETATM   25  C1  UNL     1      29.375  -1.638  53.370  1.00  0.00     0.040 C 
HETATM   26  C3  UNL     1      28.572   0.137  54.868  1.00  0.00     0.040 C 
ENDBRANCH  23  24
ENDBRANCH   1  23
TORSDOF 4
ENDMDL
MODEL 9
REMARK VINA RESULT:      -7.4      2.502      7.689
REMARK  4 active torsions:
REMARK  status: ('A' for Active; 'I' for Inactive)
REMARK    1  A    between atoms: C2_2  and  O1_4 
REMARK    2  A    between atoms: O1_4  and  C4_5 
REMARK    3  A    between atoms: C8_11  and  N3_12 
REMARK    4  A    between atoms: N3_12  and  C9_13 
ROOT
HETATM    1  C4  UNL     1      24.928   0.601  52.546  1.00  0.00     0.107 A 
HETATM    2  C5  UNL     1      24.861   1.754  51.794  1.00  0.00     0.072 A 
HETATM    3  C6  UNL     1      23.707   2.480  51.597  1.00  0.00     0.077 A 
HETATM    4  N1  UNL     1      23.707   3.598  50.847  1.00  0.00    -0.241 NA
HETATM    5  C7  UNL     1      22.560   4.255  50.690  1.00  0.00     0.236 A 
HETATM    6  N2  UNL     1      21.414   3.830  51.260  1.00  0.00    -0.223 NA
HETATM    7  C8  UNL     1      21.365   2.713  52.022  1.00  0.00     0.144 A 
HETATM    8  C15 UNL     1      22.549   2.023  52.191  1.00  0.00     0.075 A 
HETATM    9  C16 UNL     1      22.546   0.866  52.964  1.00  0.00     0.121 A 
HETATM   10  C17 UNL     1      23.727   0.174  53.132  1.00  0.00     0.136 A 
HETATM   11  O2  UNL     1      23.601  -0.954  53.914  1.00  0.00    -0.344 OA
HETATM   12  C18 UNL     1      22.650  -1.215  54.889  1.00  0.00     0.202 C 
HETATM   13  C19 UNL     1      21.547  -0.199  54.875  1.00  0.00     0.202 C 
HETATM   14  O3  UNL     1      21.421   0.355  53.587  1.00  0.00    -0.345 OA
ENDROOT
BRANCH   7  15
HETATM   15  N3  UNL     1      20.134   2.264  52.627  1.00  0.00    -0.340 N 
HETATM   16  H10 UNL     1      19.941   2.136  53.646  1.00  0.00     0.167 HD
BRANCH  15  17
HETATM   17  C9  UNL     1      19.054   1.960  51.733  1.00  0.00     0.034 C 
HETATM   18  C10 UNL     1      19.093   0.785  51.079  1.00  0.00     0.030 C 
HETATM   19  C11 UNL     1      17.985   0.490  50.173  1.00  0.00     0.015 C 
HETATM   20  C12 UNL     1      16.906   1.249  50.132  1.00  0.00    -0.014 C 
HETATM   21  C13 UNL     1      16.855   2.304  50.847  1.00  0.00    -0.012 C 
HETATM   22  C14 UNL     1      17.897   2.801  51.454  1.00  0.00     0.042 C 
ENDBRANCH  15  17
ENDBRANCH   7  15
BRANCH   1  23
HETATM   23  O1  UNL     1      26.014  -0.186  52.799  1.00  0.00    -0.344 OA
BRANCH  23  24
HETATM   24  C2  UNL     1      27.190   0.128  53.477  1.00  0.00     0.121 C 
HETATM   25  C1  UNL     1      28.299  -0.864  53.260  1.00  0.00     0.040 C 
HETATM   26  C3  UNL     1      26.948   0.288  54.958  1.00  0.00     0.040 C 
ENDBRANCH  23  24
ENDBRANCH   1  23
TORSDOF 4
ENDMDL
