MODEL 1
REMARK VINA RESULT:      -9.2      0.000      0.000
REMARK  3 active torsions:
REMARK  status: ('A' for Active; 'I' for Inactive)
REMARK    1  A    between atoms: O1_2  and  C2_3 
REMARK    2  A    between atoms: C6_9  and  N3_10 
REMARK    3  A    between atoms: N3_10  and  C7_11 
ROOT
HETATM    1  C2  UNL     1      22.505   5.280  49.487  1.00  0.00     0.071 C 
HETATM    2  C3  UNL     1      23.590   5.160  50.288  1.00  0.00     0.067 C 
HETATM    3  C4  UNL     1      24.656   4.171  50.567  1.00  0.00     0.074 A 
HETATM    4  N1  UNL     1      25.661   4.367  49.748  1.00  0.00    -0.241 NA
HETATM    5  C5  UNL     1      26.764   3.608  49.799  1.00  0.00     0.236 A 
HETATM    6  N2  UNL     1      26.793   2.644  50.722  1.00  0.00    -0.224 NA
HETATM    7  C6  UNL     1      25.780   2.415  51.577  1.00  0.00     0.142 A 
HETATM    8  C13 UNL     1      24.592   3.179  51.572  1.00  0.00     0.040 A 
HETATM    9  C14 UNL     1      23.736   2.700  52.642  1.00  0.00     0.029 C 
HETATM   10  C15 UNL     1      22.657   1.973  52.706  1.00  0.00    -0.029 C 
HETATM   11  C16 UNL     1      22.535   1.050  51.750  1.00  0.00    -0.014 C 
HETATM   12  C17 UNL     1      22.840   1.740  50.473  1.00  0.00     0.028 C 
HETATM   13  C18 UNL     1      21.796   1.266  49.440  1.00  0.00     0.006 C 
HETATM   14  C19 UNL     1      20.435   1.821  49.668  1.00  0.00     0.027 C 
HETATM   15  C20 UNL     1      20.210   3.276  49.714  1.00  0.00     0.168 C 
HETATM   16  O2  UNL     1      20.582   4.086  48.721  1.00  0.00    -0.385 OA
HETATM   17  C21 UNL     1      21.837   4.436  48.441  1.00  0.00     0.232 C 
ENDROOT
BRANCH   7  18
HETATM   18  N3  UNL     1      25.944   1.375  52.529  1.00  0.00    -0.340 N 
HETATM   19  H6  UNL     1      25.140   0.943  53.078  1.00  0.00     0.167 HD
BRANCH  18  20
HETATM   20  C7  UNL     1      27.134   0.729  52.923  1.00  0.00     0.035 A 
HETATM   21  C8  UNL     1      28.245   1.388  53.453  1.00  0.00     0.032 A 
HETATM   22  C9  UNL     1      29.395   0.755  53.842  1.00  0.00     0.046 A 
HETATM   23  C10 UNL     1      29.502  -0.613  53.718  1.00  0.00     0.138 A 
HETATM   24  F1  UNL     1      30.666  -1.167  54.121  1.00  0.00    -0.204 F 
HETATM   25  C11 UNL     1      28.447  -1.308  53.206  1.00  0.00     0.074 A 
HETATM   26 CL1  UNL     1      28.667  -3.033  53.083  1.00  0.00    -0.081 Cl
HETATM   27  C12 UNL     1      27.310  -0.629  52.828  1.00  0.00     0.056 A 
ENDBRANCH  18  20
ENDBRANCH   7  18
BRANCH   1  28
HETATM   28  O1  UNL     1      21.707   6.442  49.534  1.00  0.00    -0.358 OA
HETATM   29  C1  UNL     1      21.607   7.054  50.826  1.00  0.00     0.209 C 
ENDBRANCH   1  28
TORSDOF 3
ENDMDL
MODEL 2
REMARK VINA RESULT:      -9.1      1.097      1.447
REMARK  3 active torsions:
REMARK  status: ('A' for Active; 'I' for Inactive)
REMARK    1  A    between atoms: O1_2  and  C2_3 
REMARK    2  A    between atoms: C6_9  and  N3_10 
REMARK    3  A    between atoms: N3_10  and  C7_11 
ROOT
HETATM    1  C2  UNL     1      22.146   4.868  49.025  1.00  0.00     0.071 C 
HETATM    2  C3  UNL     1      23.279   5.076  49.737  1.00  0.00     0.067 C 
HETATM    3  C4  UNL     1      24.476   4.312  50.160  1.00  0.00     0.074 A 
HETATM    4  N1  UNL     1      25.402   4.403  49.236  1.00  0.00    -0.241 NA
HETATM    5  C5  UNL     1      26.594   3.807  49.379  1.00  0.00     0.236 A 
HETATM    6  N2  UNL     1      26.794   3.118  50.505  1.00  0.00    -0.224 NA
HETATM    7  C6  UNL     1      25.866   3.005  51.472  1.00  0.00     0.142 A 
HETATM    8  C13 UNL     1      24.592   3.607  51.380  1.00  0.00     0.040 A 
HETATM    9  C14 UNL     1      23.863   3.325  52.602  1.00  0.00     0.029 C 
HETATM   10  C15 UNL     1      22.890   2.525  52.933  1.00  0.00    -0.029 C 
HETATM   11  C16 UNL     1      22.835   1.382  52.247  1.00  0.00    -0.014 C 
HETATM   12  C17 UNL     1      22.981   1.754  50.818  1.00  0.00     0.028 C 
HETATM   13  C18 UNL     1      21.951   0.922  50.024  1.00  0.00     0.006 C 
HETATM   14  C19 UNL     1      20.546   1.364  50.224  1.00  0.00     0.027 C 
HETATM   15  C20 UNL     1      20.140   2.749  49.929  1.00  0.00     0.168 C 
HETATM   16  O2  UNL     1      20.352   3.317  48.740  1.00  0.00    -0.385 OA
HETATM   17  C21 UNL     1      21.536   3.719  48.278  1.00  0.00     0.232 C 
ENDROOT
BRANCH   7  18
HETATM   18  N3  UNL     1      26.212   2.265  52.632  1.00  0.00    -0.340 N 
HETATM   19  H6  UNL     1      26.097   2.633  53.625  1.00  0.00     0.167 HD
BRANCH  18  20
HETATM   20  C7  UNL     1      26.746   0.962  52.714  1.00  0.00     0.035 A 
HETATM   21  C8  UNL     1      26.057  -0.193  52.336  1.00  0.00     0.032 A 
HETATM   22  C9  UNL     1      26.582  -1.455  52.409  1.00  0.00     0.046 A 
HETATM   23  C10 UNL     1      27.864  -1.639  52.878  1.00  0.00     0.138 A 
HETATM   24  F1  UNL     1      28.314  -2.911  52.922  1.00  0.00    -0.204 F 
HETATM   25  C11 UNL     1      28.584  -0.546  53.261  1.00  0.00     0.074 A 
HETATM   26 CL1  UNL     1      30.195  -0.870  53.844  1.00  0.00    -0.081 Cl
HETATM   27  C12 UNL     1      28.014   0.704  53.170  1.00  0.00     0.056 A 
ENDBRANCH  18  20
ENDBRANCH   7  18
BRANCH   1  28
HETATM   28  O1  UNL     1      21.210   5.910  48.852  1.00  0.00    -0.358 OA
HETATM   29  C1  UNL     1      20.793   6.554  50.063  1.00  0.00     0.209 C 
ENDBRANCH   1  28
TORSDOF 3
ENDMDL
MODEL 3
REMARK VINA RESULT:      -8.9      1.723      3.614
REMARK  3 active torsions:
REMARK  status: ('A' for Active; 'I' for Inactive)
REMARK    1  A    between atoms: O1_2  and  C2_3 
REMARK    2  A    between atoms: C6_9  and  N3_10 
REMARK    3  A    between atoms: N3_10  and  C7_11 
ROOT
HETATM    1  C2  UNL     1      20.044   1.909  51.068  1.00  0.00     0.071 C 
HETATM    2  C3  UNL     1      21.089   1.047  51.110  1.00  0.00     0.067 C 
HETATM    3  C4  UNL     1      22.339   0.860  51.880  1.00  0.00     0.074 A 
HETATM    4  N1  UNL     1      22.093   0.136  52.945  1.00  0.00    -0.241 NA
HETATM    5  C5  UNL     1      23.064  -0.188  53.811  1.00  0.00     0.236 A 
HETATM    6  N2  UNL     1      24.292   0.258  53.537  1.00  0.00    -0.224 NA
HETATM    7  C6  UNL     1      24.579   1.002  52.454  1.00  0.00     0.142 A 
HETATM    8  C13 UNL     1      23.601   1.379  51.507  1.00  0.00     0.040 A 
HETATM    9  C14 UNL     1      24.251   2.133  50.452  1.00  0.00     0.029 C 
HETATM   10  C15 UNL     1      24.313   3.391  50.120  1.00  0.00    -0.029 C 
HETATM   11  C16 UNL     1      24.229   4.253  51.136  1.00  0.00    -0.014 C 
HETATM   12  C17 UNL     1      23.083   3.802  51.962  1.00  0.00     0.028 C 
HETATM   13  C18 UNL     1      22.283   5.063  52.356  1.00  0.00     0.006 C 
HETATM   14  C19 UNL     1      21.520   5.661  51.229  1.00  0.00     0.027 C 
HETATM   15  C20 UNL     1      20.528   4.868  50.482  1.00  0.00     0.168 C 
HETATM   16  O2  UNL     1      19.517   4.239  51.085  1.00  0.00    -0.385 OA
HETATM   17  C21 UNL     1      19.627   3.136  51.825  1.00  0.00     0.232 C 
ENDROOT
BRANCH   7  18
HETATM   18  N3  UNL     1      25.929   1.394  52.263  1.00  0.00    -0.340 N 
HETATM   19  H6  UNL     1      26.223   2.260  51.717  1.00  0.00     0.167 HD
BRANCH  18  20
HETATM   20  C7  UNL     1      27.099   0.760  52.731  1.00  0.00     0.035 A 
HETATM   21  C8  UNL     1      28.174   1.432  53.318  1.00  0.00     0.032 A 
HETATM   22  C9  UNL     1      29.304   0.811  53.778  1.00  0.00     0.046 A 
HETATM   23  C10 UNL     1      29.427  -0.557  53.674  1.00  0.00     0.138 A 
HETATM   24  F1  UNL     1      30.570  -1.098  54.148  1.00  0.00    -0.204 F 
HETATM   25  C11 UNL     1      28.408  -1.265  53.108  1.00  0.00     0.074 A 
HETATM   26 CL1  UNL     1      28.647  -2.989  53.014  1.00  0.00    -0.081 Cl
HETATM   27  C12 UNL     1      27.289  -0.597  52.660  1.00  0.00     0.056 A 
ENDBRANCH  18  20
ENDBRANCH   7  18
BRANCH   1  28
HETATM   28  O1  UNL     1      19.005   1.728  50.131  1.00  0.00    -0.358 OA
HETATM   29  C1  UNL     1      18.201   0.560  50.339  1.00  0.00     0.209 C 
ENDBRANCH   1  28
TORSDOF 3
ENDMDL
MODEL 4
REMARK VINA RESULT:      -8.7      1.558      3.422
REMARK  3 active torsions:
REMARK  status: ('A' for Active; 'I' for Inactive)
REMARK    1  A    between atoms: O1_2  and  C2_3 
REMARK    2  A    between atoms: C6_9  and  N3_10 
REMARK    3  A    between atoms: N3_10  and  C7_11 
ROOT
HETATM    1  C2  UNL     1      21.535   3.724  48.473  1.00  0.00     0.071 C 
HETATM    2  C3  UNL     1      22.267   2.778  49.108  1.00  0.00     0.067 C 
HETATM    3  C4  UNL     1      23.049   2.639  50.358  1.00  0.00     0.074 A 
HETATM    4  N1  UNL     1      22.260   2.243  51.327  1.00  0.00    -0.241 NA
HETATM    5  C5  UNL     1      22.725   2.031  52.566  1.00  0.00     0.236 A 
HETATM    6  N2  UNL     1      24.028   2.238  52.767  1.00  0.00    -0.224 NA
HETATM    7  C6  UNL     1      24.866   2.643  51.795  1.00  0.00     0.142 A 
HETATM    8  C13 UNL     1      24.437   2.886  50.472  1.00  0.00     0.040 A 
HETATM    9  C14 UNL     1      25.591   3.263  49.678  1.00  0.00     0.029 C 
HETATM   10  C15 UNL     1      26.049   4.379  49.186  1.00  0.00    -0.029 C 
HETATM   11  C16 UNL     1      25.768   5.473  49.897  1.00  0.00    -0.014 C 
HETATM   12  C17 UNL     1      24.323   5.390  50.222  1.00  0.00     0.028 C 
HETATM   13  C18 UNL     1      23.728   6.799  50.005  1.00  0.00     0.006 C 
HETATM   14  C19 UNL     1      23.610   7.183  48.574  1.00  0.00     0.027 C 
HETATM   15  C20 UNL     1      22.838   6.355  47.631  1.00  0.00     0.168 C 
HETATM   16  O2  UNL     1      21.562   6.030  47.847  1.00  0.00    -0.385 OA
HETATM   17  C21 UNL     1      21.135   5.144  48.747  1.00  0.00     0.232 C 
ENDROOT
BRANCH   7  18
HETATM   18  N3  UNL     1      26.235   2.803  52.132  1.00  0.00    -0.340 N 
HETATM   19  H6  UNL     1      26.764   3.723  52.034  1.00  0.00     0.167 HD
BRANCH  18  20
HETATM   20  C7  UNL     1      27.130   1.840  52.640  1.00  0.00     0.035 A 
HETATM   21  C8  UNL     1      28.291   2.148  53.353  1.00  0.00     0.032 A 
HETATM   22  C9  UNL     1      29.153   1.208  53.852  1.00  0.00     0.046 A 
HETATM   23  C10 UNL     1      28.896  -0.131  53.659  1.00  0.00     0.138 A 
HETATM   24  F1  UNL     1      29.791  -0.998  54.179  1.00  0.00    -0.204 F 
HETATM   25  C11 UNL     1      27.776  -0.490  52.969  1.00  0.00     0.074 A 
HETATM   26 CL1  UNL     1      27.529  -2.204  52.771  1.00  0.00    -0.081 Cl
HETATM   27  C12 UNL     1      26.937   0.490  52.487  1.00  0.00     0.056 A 
ENDBRANCH  18  20
ENDBRANCH   7  18
BRANCH   1  28
HETATM   28  O1  UNL     1      20.927   3.442  47.231  1.00  0.00    -0.358 OA
HETATM   29  C1  UNL     1      19.514   3.208  47.291  1.00  0.00     0.209 C 
ENDBRANCH   1  28
TORSDOF 3
ENDMDL
MODEL 5
REMARK VINA RESULT:      -8.4      4.517      6.744
REMARK  3 active torsions:
REMARK  status: ('A' for Active; 'I' for Inactive)
REMARK    1  A    between atoms: O1_2  and  C2_3 
REMARK    2  A    between atoms: C6_9  and  N3_10 
REMARK    3  A    between atoms: N3_10  and  C7_11 
ROOT
HETATM    1  C2  UNL     1      21.377   0.150  53.074  1.00  0.00     0.071 C 
HETATM    2  C3  UNL     1      21.529   1.336  52.438  1.00  0.00     0.067 C 
HETATM    3  C4  UNL     1      22.456   1.958  51.464  1.00  0.00     0.074 A 
HETATM    4  N1  UNL     1      22.046   1.703  50.245  1.00  0.00    -0.241 NA
HETATM    5  C5  UNL     1      22.707   2.163  49.174  1.00  0.00     0.236 A 
HETATM    6  N2  UNL     1      23.800   2.894  49.406  1.00  0.00    -0.224 NA
HETATM    7  C6  UNL     1      24.247   3.175  50.643  1.00  0.00     0.142 A 
HETATM    8  C13 UNL     1      23.597   2.717  51.810  1.00  0.00     0.040 A 
HETATM    9  C14 UNL     1      24.311   3.232  52.964  1.00  0.00     0.029 C 
HETATM   10  C15 UNL     1      25.128   2.729  53.844  1.00  0.00    -0.029 C 
HETATM   11  C16 UNL     1      25.894   1.728  53.403  1.00  0.00    -0.014 C 
HETATM   12  C17 UNL     1      24.986   0.805  52.681  1.00  0.00     0.028 C 
HETATM   13  C18 UNL     1      25.377  -0.631  53.093  1.00  0.00     0.006 C 
HETATM   14  C19 UNL     1      24.984  -0.980  54.484  1.00  0.00     0.027 C 
HETATM   15  C20 UNL     1      23.579  -0.889  54.918  1.00  0.00     0.168 C 
HETATM   16  O2  UNL     1      22.593  -1.518  54.277  1.00  0.00    -0.385 OA
HETATM   17  C21 UNL     1      22.097  -1.167  53.091  1.00  0.00     0.232 C 
ENDROOT
BRANCH   7  18
HETATM   18  N3  UNL     1      25.407   3.984  50.755  1.00  0.00    -0.340 N 
HETATM   19  H6  UNL     1      26.141   3.863  51.518  1.00  0.00     0.167 HD
BRANCH  18  20
HETATM   20  C7  UNL     1      25.813   5.053  49.929  1.00  0.00     0.035 A 
HETATM   21  C8  UNL     1      26.907   5.001  49.062  1.00  0.00     0.032 A 
HETATM   22  C9  UNL     1      27.293   6.038  48.256  1.00  0.00     0.046 A 
HETATM   23  C10 UNL     1      26.586   7.220  48.272  1.00  0.00     0.138 A 
HETATM   24  F1  UNL     1      27.025   8.198  47.451  1.00  0.00    -0.204 F 
HETATM   25  C11 UNL     1      25.507   7.327  49.100  1.00  0.00     0.074 A 
HETATM   26 CL1  UNL     1      24.672   8.857  49.059  1.00  0.00    -0.081 Cl
HETATM   27  C12 UNL     1      25.157   6.257  49.893  1.00  0.00     0.056 A 
ENDBRANCH  18  20
ENDBRANCH   7  18
BRANCH   1  28
HETATM   28  O1  UNL     1      20.309  -0.045  53.976  1.00  0.00    -0.358 OA
HETATM   29  C1  UNL     1      19.176  -0.732  53.429  1.00  0.00     0.209 C 
ENDBRANCH   1  28
TORSDOF 3
ENDMDL
MODEL 6
REMARK VINA RESULT:      -8.2      4.334      6.106
REMARK  3 active torsions:
REMARK  status: ('A' for Active; 'I' for Inactive)
REMARK    1  A    between atoms: O1_2  and  C2_3 
REMARK    2  A    between atoms: C6_9  and  N3_10 
REMARK    3  A    between atoms: N3_10  and  C7_11 
ROOT
HETATM    1  C2  UNL     1      20.362   1.286  51.582  1.00  0.00     0.071 C 
HETATM    2  C3  UNL     1      20.521   2.521  51.049  1.00  0.00     0.067 C 
HETATM    3  C4  UNL     1      21.533   3.266  50.266  1.00  0.00     0.074 A 
HETATM    4  N1  UNL     1      21.325   3.073  48.985  1.00  0.00    -0.241 NA
HETATM    5  C5  UNL     1      22.100   3.648  48.056  1.00  0.00     0.236 A 
HETATM    6  N2  UNL     1      23.092   4.426  48.493  1.00  0.00    -0.224 NA
HETATM    7  C6  UNL     1      23.334   4.646  49.798  1.00  0.00     0.142 A 
HETATM    8  C13 UNL     1      22.555   4.067  50.825  1.00  0.00     0.040 A 
HETATM    9  C14 UNL     1      23.054   4.542  52.101  1.00  0.00     0.029 C 
HETATM   10  C15 UNL     1      23.768   4.029  53.062  1.00  0.00    -0.029 C 
HETATM   11  C16 UNL     1      24.660   3.111  52.682  1.00  0.00    -0.014 C 
HETATM   12  C17 UNL     1      23.935   2.187  51.776  1.00  0.00     0.028 C 
HETATM   13  C18 UNL     1      24.363   0.752  52.154  1.00  0.00     0.006 C 
HETATM   14  C19 UNL     1      23.797   0.282  53.446  1.00  0.00     0.027 C 
HETATM   15  C20 UNL     1      22.341   0.256  53.669  1.00  0.00     0.168 C 
HETATM   16  O2  UNL     1      21.505  -0.386  52.851  1.00  0.00    -0.385 OA
HETATM   17  C21 UNL     1      21.164   0.018  51.627  1.00  0.00     0.232 C 
ENDROOT
BRANCH   7  18
HETATM   18  N3  UNL     1      24.405   5.514  50.133  1.00  0.00    -0.340 N 
HETATM   19  H6  UNL     1      24.379   6.198  50.950  1.00  0.00     0.167 HD
BRANCH  18  20
HETATM   20  C7  UNL     1      25.656   5.647  49.496  1.00  0.00     0.035 A 
HETATM   21  C8  UNL     1      26.542   4.589  49.279  1.00  0.00     0.032 A 
HETATM   22  C9  UNL     1      27.752   4.722  48.654  1.00  0.00     0.046 A 
HETATM   23  C10 UNL     1      28.157   5.956  48.196  1.00  0.00     0.138 A 
HETATM   24  F1  UNL     1      29.362   6.010  47.590  1.00  0.00    -0.204 F 
HETATM   25  C11 UNL     1      27.331   7.026  48.380  1.00  0.00     0.074 A 
HETATM   26 CL1  UNL     1      27.922   8.549  47.772  1.00  0.00    -0.081 Cl
HETATM   27  C12 UNL     1      26.123   6.844  49.015  1.00  0.00     0.056 A 
ENDBRANCH  18  20
ENDBRANCH   7  18
BRANCH   1  28
HETATM   28  O1  UNL     1      19.191   0.962  52.300  1.00  0.00    -0.358 OA
HETATM   29  C1  UNL     1      18.217   0.216  51.559  1.00  0.00     0.209 C 
ENDBRANCH   1  28
TORSDOF 3
ENDMDL
MODEL 7
REMARK VINA RESULT:      -7.7      4.891      6.449
REMARK  3 active torsions:
REMARK  status: ('A' for Active; 'I' for Inactive)
REMARK    1  A    between atoms: O1_2  and  C2_3 
REMARK    2  A    between atoms: C6_9  and  N3_10 
REMARK    3  A    between atoms: N3_10  and  C7_11 
ROOT
HETATM    1  C2  UNL     1      19.984   3.463  50.772  1.00  0.00     0.071 C 
HETATM    2  C3  UNL     1      20.774   4.321  51.460  1.00  0.00     0.067 C 
HETATM    3  C4  UNL     1      21.802   5.348  51.176  1.00  0.00     0.074 A 
HETATM    4  N1  UNL     1      21.222   6.510  50.991  1.00  0.00    -0.241 NA
HETATM    5  C5  UNL     1      21.934   7.614  50.726  1.00  0.00     0.236 A 
HETATM    6  N2  UNL     1      23.260   7.477  50.662  1.00  0.00    -0.224 NA
HETATM    7  C6  UNL     1      23.888   6.301  50.847  1.00  0.00     0.142 A 
HETATM    8  C13 UNL     1      23.194   5.103  51.126  1.00  0.00     0.040 A 
HETATM    9  C14 UNL     1      24.167   4.043  51.310  1.00  0.00     0.029 C 
HETATM   10  C15 UNL     1      24.578   3.033  50.599  1.00  0.00    -0.029 C 
HETATM   11  C16 UNL     1      24.535   3.212  49.277  1.00  0.00    -0.014 C 
HETATM   12  C17 UNL     1      23.196   3.778  48.984  1.00  0.00     0.028 C 
HETATM   13  C18 UNL     1      22.663   3.056  47.727  1.00  0.00     0.006 C 
HETATM   14  C19 UNL     1      22.257   1.648  47.976  1.00  0.00     0.027 C 
HETATM   15  C20 UNL     1      21.242   1.322  48.992  1.00  0.00     0.168 C 
HETATM   16  O2  UNL     1      20.026   1.873  48.989  1.00  0.00    -0.385 OA
HETATM   17  C21 UNL     1      19.751   3.133  49.327  1.00  0.00     0.232 C 
ENDROOT
BRANCH   7  18
HETATM   18  N3  UNL     1      25.305   6.293  50.777  1.00  0.00    -0.340 N 
HETATM   19  H6  UNL     1      25.929   5.785  51.475  1.00  0.00     0.167 HD
BRANCH  18  20
HETATM   20  C7  UNL     1      26.139   6.916  49.825  1.00  0.00     0.035 A 
HETATM   21  C8  UNL     1      26.615   6.289  48.671  1.00  0.00     0.032 A 
HETATM   22  C9  UNL     1      27.417   6.900  47.745  1.00  0.00     0.046 A 
HETATM   23  C10 UNL     1      27.800   8.210  47.927  1.00  0.00     0.138 A 
HETATM   24  F1  UNL     1      28.592   8.745  46.973  1.00  0.00    -0.204 F 
HETATM   25  C11 UNL     1      27.365   8.872  49.036  1.00  0.00     0.074 A 
HETATM   26 CL1  UNL     1      27.898  10.525  49.188  1.00  0.00    -0.081 Cl
HETATM   27  C12 UNL     1      26.558   8.217  49.941  1.00  0.00     0.056 A 
ENDBRANCH  18  20
ENDBRANCH   7  18
BRANCH   1  28
HETATM   28  O1  UNL     1      19.099   2.602  51.456  1.00  0.00    -0.358 OA
HETATM   29  C1  UNL     1      19.718   1.744  52.422  1.00  0.00     0.209 C 
ENDBRANCH   1  28
TORSDOF 3
ENDMDL
MODEL 8
REMARK VINA RESULT:      -7.7      4.522      5.710
REMARK  3 active torsions:
REMARK  status: ('A' for Active; 'I' for Inactive)
REMARK    1  A    between atoms: O1_2  and  C2_3 
REMARK    2  A    between atoms: C6_9  and  N3_10 
REMARK    3  A    between atoms: N3_10  and  C7_11 
ROOT
HETATM    1  C2  UNL     1      18.384   3.072  50.064  1.00  0.00     0.071 C 
HETATM    2  C3  UNL     1      18.996   4.279  50.019  1.00  0.00     0.067 C 
HETATM    3  C4  UNL     1      20.269   4.857  49.529  1.00  0.00     0.074 A 
HETATM    4  N1  UNL     1      20.132   5.220  48.276  1.00  0.00    -0.241 NA
HETATM    5  C5  UNL     1      21.140   5.784  47.597  1.00  0.00     0.236 A 
HETATM    6  N2  UNL     1      22.288   5.960  48.254  1.00  0.00    -0.224 NA
HETATM    7  C6  UNL     1      22.463   5.600  49.539  1.00  0.00     0.142 A 
HETATM    8  C13 UNL     1      21.441   5.000  50.307  1.00  0.00     0.040 A 
HETATM    9  C14 UNL     1      21.945   4.782  51.650  1.00  0.00     0.029 C 
HETATM   10  C15 UNL     1      22.352   3.747  52.327  1.00  0.00    -0.029 C 
HETATM   11  C16 UNL     1      22.918   2.779  51.603  1.00  0.00    -0.014 C 
HETATM   12  C17 UNL     1      22.017   2.551  50.447  1.00  0.00     0.028 C 
HETATM   13  C18 UNL     1      21.903   1.024  50.253  1.00  0.00     0.006 C 
HETATM   14  C19 UNL     1      21.093   0.348  51.300  1.00  0.00     0.027 C 
HETATM   15  C20 UNL     1      19.697   0.749  51.551  1.00  0.00     0.168 C 
HETATM   16  O2  UNL     1      18.778   0.773  50.584  1.00  0.00    -0.385 OA
HETATM   17  C21 UNL     1      18.709   1.679  49.608  1.00  0.00     0.232 C 
ENDROOT
BRANCH   7  18
HETATM   18  N3  UNL     1      23.725   5.865  50.131  1.00  0.00    -0.340 N 
HETATM   19  H6  UNL     1      23.847   6.348  51.073  1.00  0.00     0.167 HD
BRANCH  18  20
HETATM   20  C7  UNL     1      25.008   5.559  49.631  1.00  0.00     0.035 A 
HETATM   21  C8  UNL     1      25.600   4.297  49.711  1.00  0.00     0.032 A 
HETATM   22  C9  UNL     1      26.842   4.003  49.217  1.00  0.00     0.046 A 
HETATM   23  C10 UNL     1      27.585   4.984  48.599  1.00  0.00     0.138 A 
HETATM   24  F1  UNL     1      28.801   4.620  48.138  1.00  0.00    -0.204 F 
HETATM   25  C11 UNL     1      27.056   6.237  48.493  1.00  0.00     0.074 A 
HETATM   26 CL1  UNL     1      28.064   7.417  47.698  1.00  0.00    -0.081 Cl
HETATM   27  C12 UNL     1      25.802   6.485  49.004  1.00  0.00     0.056 A 
ENDBRANCH  18  20
ENDBRANCH   7  18
BRANCH   1  28
HETATM   28  O1  UNL     1      17.109   2.938  50.653  1.00  0.00    -0.358 OA
HETATM   29  C1  UNL     1      16.844   3.847  51.729  1.00  0.00     0.209 C 
ENDBRANCH   1  28
TORSDOF 3
ENDMDL
MODEL 9
REMARK VINA RESULT:      -7.7      2.396      2.891
REMARK  3 active torsions:
REMARK  status: ('A' for Active; 'I' for Inactive)
REMARK    1  A    between atoms: O1_2  and  C2_3 
REMARK    2  A    between atoms: C6_9  and  N3_10 
REMARK    3  A    between atoms: N3_10  and  C7_11 
ROOT
HETATM    1  C2  UNL     1      22.300   6.023  47.064  1.00  0.00     0.071 C 
HETATM    2  C3  UNL     1      23.101   6.305  48.119  1.00  0.00     0.067 C 
HETATM    3  C4  UNL     1      24.113   5.619  48.954  1.00  0.00     0.074 A 
HETATM    4  N1  UNL     1      25.298   5.756  48.408  1.00  0.00    -0.241 NA
HETATM    5  C5  UNL     1      26.394   5.233  48.974  1.00  0.00     0.236 A 
HETATM    6  N2  UNL     1      26.225   4.569  50.119  1.00  0.00    -0.224 NA
HETATM    7  C6  UNL     1      25.025   4.411  50.707  1.00  0.00     0.142 A 
HETATM    8  C13 UNL     1      23.834   4.935  50.159  1.00  0.00     0.040 A 
HETATM    9  C14 UNL     1      22.740   4.622  51.060  1.00  0.00     0.029 C 
HETATM   10  C15 UNL     1      21.756   3.769  51.057  1.00  0.00    -0.029 C 
HETATM   11  C16 UNL     1      22.004   2.617  50.429  1.00  0.00    -0.014 C 
HETATM   12  C17 UNL     1      22.619   2.983  49.130  1.00  0.00     0.028 C 
HETATM   13  C18 UNL     1      21.976   2.082  48.053  1.00  0.00     0.006 C 
HETATM   14  C19 UNL     1      20.568   2.441  47.738  1.00  0.00     0.027 C 
HETATM   15  C20 UNL     1      20.219   3.797  47.278  1.00  0.00     0.168 C 
HETATM   16  O2  UNL     1      20.802   4.364  46.220  1.00  0.00    -0.385 OA
HETATM   17  C21 UNL     1      22.050   4.831  46.187  1.00  0.00     0.232 C 
ENDROOT
BRANCH   7  18
HETATM   18  N3  UNL     1      24.983   3.705  51.937  1.00  0.00    -0.340 N 
HETATM   19  H6  UNL     1      24.698   4.147  52.864  1.00  0.00     0.167 HD
BRANCH  18  20
HETATM   20  C7  UNL     1      25.287   2.349  52.180  1.00  0.00     0.035 A 
HETATM   21  C8  UNL     1      26.385   1.682  51.633  1.00  0.00     0.032 A 
HETATM   22  C9  UNL     1      26.681   0.368  51.878  1.00  0.00     0.046 A 
HETATM   23  C10 UNL     1      25.871  -0.375  52.708  1.00  0.00     0.138 A 
HETATM   24  F1  UNL     1      26.224  -1.664  52.902  1.00  0.00    -0.204 F 
HETATM   25  C11 UNL     1      24.783   0.225  53.271  1.00  0.00     0.074 A 
HETATM   26 CL1  UNL     1      23.813  -0.787  54.306  1.00  0.00    -0.081 Cl
HETATM   27  C12 UNL     1      24.526   1.550  52.996  1.00  0.00     0.056 A 
ENDBRANCH  18  20
ENDBRANCH   7  18
BRANCH   1  28
HETATM   28  O1  UNL     1      21.430   7.005  46.545  1.00  0.00    -0.358 OA
HETATM   29  C1  UNL     1      20.645   7.695  47.526  1.00  0.00     0.209 C 
ENDBRANCH   1  28
TORSDOF 3
ENDMDL
