MODEL 1
REMARK VINA RESULT:      -7.6      0.000      0.000
REMARK  5 active torsions:
REMARK  status: ('A' for Active; 'I' for Inactive)
REMARK    1  A    between atoms: O1_2  and  C2_3 
REMARK    2  A    between atoms: C6_9  and  N3_10 
REMARK    3  A    between atoms: N3_10  and  C7_11 
REMARK    4  A    between atoms: C11_15  and  O2_16 
REMARK    5  A    between atoms: C15_20  and  O3_21 
ROOT
HETATM    1  C2  UNL     1      22.794   2.817  51.504  1.00  0.00     0.103 A 
HETATM    2  C3  UNL     1      21.890   2.194  52.334  1.00  0.00     0.072 A 
HETATM    3  C4  UNL     1      22.538   1.069  52.947  1.00  0.00     0.075 A 
HETATM    4  N1  UNL     1      21.614   0.457  53.798  1.00  0.00    -0.241 NA
HETATM    5  C5  UNL     1      22.049  -0.599  54.539  1.00  0.00     0.236 A 
HETATM    6  N2  UNL     1      23.370  -1.037  54.462  1.00  0.00    -0.224 NA
HETATM    7  C6  UNL     1      24.080  -0.305  53.564  1.00  0.00     0.141 A 
HETATM    8  C13 UNL     1      23.887   0.686  52.727  1.00  0.00     0.042 A 
HETATM    9  C14 UNL     1      24.643   1.375  51.864  1.00  0.00     0.057 A 
HETATM   10  C15 UNL     1      24.148   2.420  51.225  1.00  0.00     0.102 A 
ENDROOT
BRANCH   7  11
HETATM   11  N3  UNL     1      25.518  -0.186  53.828  1.00  0.00    -0.344 N 
HETATM   12  H6  UNL     1      25.547  -0.209  54.948  1.00  0.00     0.167 HD
BRANCH  11  13
HETATM   13  C7  UNL     1      26.869  -0.074  54.093  1.00  0.00     0.013 C 
HETATM   14  C8  UNL     1      27.623  -0.957  53.410  1.00  0.00     0.002 C 
HETATM   15  C9  UNL     1      29.065  -1.383  53.222  1.00  0.00     0.058 C 
HETATM   16  C10 UNL     1      29.802  -0.071  53.475  1.00  0.00     0.009 C 
HETATM   17  C11 UNL     1      29.120   0.771  54.299  1.00  0.00     0.045 C 
HETATM   18  C12 UNL     1      27.802   0.580  54.963  1.00  0.00     0.120 C 
BRANCH  17  19
HETATM   19  O2  UNL     1      29.626   2.041  54.667  1.00  0.00    -0.365 OA
HETATM   20  H11 UNL     1      29.484   2.714  53.920  1.00  0.00     0.217 HD
ENDBRANCH  17  19
ENDBRANCH  11  13
ENDBRANCH   7  11
BRANCH  10  21
HETATM   21  O3  UNL     1      24.642   3.214  50.369  1.00  0.00    -0.353 OA
HETATM   22  C16 UNL     1      25.466   3.814  49.549  1.00  0.00     0.210 C 
ENDBRANCH  10  21
BRANCH   1  23
HETATM   23  O1  UNL     1      22.540   4.074  50.876  1.00  0.00    -0.353 OA
HETATM   24  C1  UNL     1      21.933   5.063  51.737  1.00  0.00     0.210 C 
ENDBRANCH   1  23
TORSDOF 5
ENDMDL
MODEL 2
REMARK VINA RESULT:      -7.3      2.462      5.888
REMARK  5 active torsions:
REMARK  status: ('A' for Active; 'I' for Inactive)
REMARK    1  A    between atoms: O1_2  and  C2_3 
REMARK    2  A    between atoms: C6_9  and  N3_10 
REMARK    3  A    between atoms: N3_10  and  C7_11 
REMARK    4  A    between atoms: C11_15  and  O2_16 
REMARK    5  A    between atoms: C15_20  and  O3_21 
ROOT
HETATM    1  C2  UNL     1      26.216  -0.273  53.406  1.00  0.00     0.103 A 
HETATM    2  C3  UNL     1      24.841  -0.335  53.429  1.00  0.00     0.072 A 
HETATM    3  C4  UNL     1      24.322   0.901  52.914  1.00  0.00     0.075 A 
HETATM    4  N1  UNL     1      22.928   0.817  52.929  1.00  0.00    -0.241 NA
HETATM    5  C5  UNL     1      22.232   1.867  52.411  1.00  0.00     0.236 A 
HETATM    6  N2  UNL     1      22.890   2.971  51.871  1.00  0.00    -0.224 NA
HETATM    7  C6  UNL     1      24.238   2.840  51.976  1.00  0.00     0.141 A 
HETATM    8  C13 UNL     1      25.113   1.988  52.456  1.00  0.00     0.042 A 
HETATM    9  C14 UNL     1      26.447   1.915  52.520  1.00  0.00     0.057 A 
HETATM   10  C15 UNL     1      27.037   0.832  52.994  1.00  0.00     0.102 A 
ENDROOT
BRANCH   7  11
HETATM   11  N3  UNL     1      25.030   3.519  50.944  1.00  0.00    -0.344 N 
HETATM   12  H6  UNL     1      24.912   4.594  51.237  1.00  0.00     0.167 HD
BRANCH  11  13
HETATM   13  C7  UNL     1      25.771   4.172  49.979  1.00  0.00     0.013 C 
HETATM   14  C8  UNL     1      25.157   5.261  49.478  1.00  0.00     0.002 C 
HETATM   15  C9  UNL     1      25.359   6.369  48.465  1.00  0.00     0.058 C 
HETATM   16  C10 UNL     1      26.877   6.521  48.482  1.00  0.00     0.009 C 
HETATM   17  C11 UNL     1      27.522   5.375  48.833  1.00  0.00     0.045 C 
HETATM   18  C12 UNL     1      26.956   4.043  49.182  1.00  0.00     0.120 C 
BRANCH  17  19
HETATM   19  O2  UNL     1      28.932   5.295  48.907  1.00  0.00    -0.365 OA
HETATM   20  H11 UNL     1      29.327   5.056  48.003  1.00  0.00     0.217 HD
ENDBRANCH  17  19
ENDBRANCH  11  13
ENDBRANCH   7  11
BRANCH  10  21
HETATM   21  O3  UNL     1      28.255   0.528  53.167  1.00  0.00    -0.353 OA
HETATM   22  C16 UNL     1      29.499   0.525  53.575  1.00  0.00     0.210 C 
ENDBRANCH  10  21
BRANCH   1  23
HETATM   23  O1  UNL     1      27.052  -1.397  53.678  1.00  0.00    -0.353 OA
HETATM   24  C1  UNL     1      27.119  -2.368  52.609  1.00  0.00     0.210 C 
ENDBRANCH   1  23
TORSDOF 5
ENDMDL
MODEL 3
REMARK VINA RESULT:      -7.1      2.497      3.848
REMARK  5 active torsions:
REMARK  status: ('A' for Active; 'I' for Inactive)
REMARK    1  A    between atoms: O1_2  and  C2_3 
REMARK    2  A    between atoms: C6_9  and  N3_10 
REMARK    3  A    between atoms: N3_10  and  C7_11 
REMARK    4  A    between atoms: C11_15  and  O2_16 
REMARK    5  A    between atoms: C15_20  and  O3_21 
ROOT
HETATM    1  C2  UNL     1      21.726   0.713  51.783  1.00  0.00     0.103 A 
HETATM    2  C3  UNL     1      22.055   1.586  50.772  1.00  0.00     0.072 A 
HETATM    3  C4  UNL     1      23.423   1.987  50.947  1.00  0.00     0.075 A 
HETATM    4  N1  UNL     1      23.748   2.859  49.905  1.00  0.00    -0.241 NA
HETATM    5  C5  UNL     1      25.032   3.308  49.841  1.00  0.00     0.236 A 
HETATM    6  N2  UNL     1      25.985   2.895  50.769  1.00  0.00    -0.224 NA
HETATM    7  C6  UNL     1      25.443   2.061  51.695  1.00  0.00     0.141 A 
HETATM    8  C13 UNL     1      24.276   1.540  51.990  1.00  0.00     0.042 A 
HETATM    9  C14 UNL     1      23.805   0.706  52.925  1.00  0.00     0.057 A 
HETATM   10  C15 UNL     1      22.554   0.284  52.877  1.00  0.00     0.102 A 
ENDROOT
BRANCH   7  11
HETATM   11  N3  UNL     1      26.358   1.078  52.286  1.00  0.00    -0.344 N 
HETATM   12  H6  UNL     1      25.846   0.843  53.254  1.00  0.00     0.167 HD
BRANCH  11  13
HETATM   13  C7  UNL     1      27.209   0.151  52.854  1.00  0.00     0.013 C 
HETATM   14  C8  UNL     1      26.943  -1.117  52.487  1.00  0.00     0.002 C 
HETATM   15  C9  UNL     1      27.425  -2.537  52.707  1.00  0.00     0.058 C 
HETATM   16  C10 UNL     1      28.911  -2.314  52.970  1.00  0.00     0.009 C 
HETATM   17  C11 UNL     1      29.179  -1.087  53.496  1.00  0.00     0.045 C 
HETATM   18  C12 UNL     1      28.243   0.018  53.839  1.00  0.00     0.120 C 
BRANCH  17  19
HETATM   19  O2  UNL     1      30.494  -0.675  53.819  1.00  0.00    -0.365 OA
HETATM   20  H11 UNL     1      30.721   0.199  53.355  1.00  0.00     0.217 HD
ENDBRANCH  17  19
ENDBRANCH  11  13
ENDBRANCH   7  11
BRANCH  10  21
HETATM   21  O3  UNL     1      21.880  -0.480  53.631  1.00  0.00    -0.353 OA
HETATM   22  C16 UNL     1      21.533  -1.427  54.465  1.00  0.00     0.210 C 
ENDBRANCH  10  21
BRANCH   1  23
HETATM   23  O1  UNL     1      20.501  -0.020  51.814  1.00  0.00    -0.353 OA
HETATM   24  C1  UNL     1      19.356   0.705  51.311  1.00  0.00     0.210 C 
ENDBRANCH   1  23
TORSDOF 5
ENDMDL
MODEL 4
REMARK VINA RESULT:      -7.0      2.118      5.902
REMARK  5 active torsions:
REMARK  status: ('A' for Active; 'I' for Inactive)
REMARK    1  A    between atoms: O1_2  and  C2_3 
REMARK    2  A    between atoms: C6_9  and  N3_10 
REMARK    3  A    between atoms: N3_10  and  C7_11 
REMARK    4  A    between atoms: C11_15  and  O2_16 
REMARK    5  A    between atoms: C15_20  and  O3_21 
ROOT
HETATM    1  C2  UNL     1      26.442   0.040  53.935  1.00  0.00     0.103 A 
HETATM    2  C3  UNL     1      25.249  -0.627  53.778  1.00  0.00     0.072 A 
HETATM    3  C4  UNL     1      24.251   0.319  53.364  1.00  0.00     0.075 A 
HETATM    4  N1  UNL     1      23.051  -0.374  53.192  1.00  0.00    -0.241 NA
HETATM    5  C5  UNL     1      21.981   0.330  52.730  1.00  0.00     0.236 A 
HETATM    6  N2  UNL     1      22.090   1.685  52.423  1.00  0.00    -0.224 NA
HETATM    7  C6  UNL     1      23.341   2.149  52.680  1.00  0.00     0.141 A 
HETATM    8  C13 UNL     1      24.481   1.704  53.152  1.00  0.00     0.042 A 
HETATM    9  C14 UNL     1      25.696   2.220  53.374  1.00  0.00     0.057 A 
HETATM   10  C15 UNL     1      26.689   1.447  53.776  1.00  0.00     0.102 A 
ENDROOT
BRANCH   7  11
HETATM   11  N3  UNL     1      23.790   3.274  51.851  1.00  0.00    -0.344 N 
HETATM   12  H6  UNL     1      24.753   3.555  52.350  1.00  0.00     0.167 HD
BRANCH  11  13
HETATM   13  C7  UNL     1      24.225   4.334  51.081  1.00  0.00     0.013 C 
HETATM   14  C8  UNL     1      23.602   5.495  51.366  1.00  0.00     0.002 C 
HETATM   15  C9  UNL     1      23.568   6.950  50.948  1.00  0.00     0.058 C 
HETATM   16  C10 UNL     1      25.007   7.167  50.490  1.00  0.00     0.009 C 
HETATM   17  C11 UNL     1      25.600   6.026  50.045  1.00  0.00     0.045 C 
HETATM   18  C12 UNL     1      25.043   4.649  49.946  1.00  0.00     0.120 C 
BRANCH  17  19
HETATM   19  O2  UNL     1      26.933   6.003  49.570  1.00  0.00    -0.365 OA
HETATM   20  H11 UNL     1      27.036   6.604  48.757  1.00  0.00     0.217 HD
ENDBRANCH  17  19
ENDBRANCH  11  13
ENDBRANCH   7  11
BRANCH  10  21
HETATM   21  O3  UNL     1      27.900   1.688  54.060  1.00  0.00    -0.353 OA
HETATM   22  C16 UNL     1      29.075   2.258  54.149  1.00  0.00     0.210 C 
ENDBRANCH  10  21
BRANCH   1  23
HETATM   23  O1  UNL     1      27.685  -0.626  54.165  1.00  0.00    -0.353 OA
HETATM   24  C1  UNL     1      28.130  -1.459  53.070  1.00  0.00     0.210 C 
ENDBRANCH   1  23
TORSDOF 5
ENDMDL
MODEL 5
REMARK VINA RESULT:      -7.0      2.464      5.880
REMARK  5 active torsions:
REMARK  status: ('A' for Active; 'I' for Inactive)
REMARK    1  A    between atoms: O1_2  and  C2_3 
REMARK    2  A    between atoms: C6_9  and  N3_10 
REMARK    3  A    between atoms: N3_10  and  C7_11 
REMARK    4  A    between atoms: C11_15  and  O2_16 
REMARK    5  A    between atoms: C15_20  and  O3_21 
ROOT
HETATM    1  C2  UNL     1      25.672   3.397  50.866  1.00  0.00     0.103 A 
HETATM    2  C3  UNL     1      26.512   2.313  50.987  1.00  0.00     0.072 A 
HETATM    3  C4  UNL     1      25.892   1.353  51.855  1.00  0.00     0.075 A 
HETATM    4  N1  UNL     1      26.747   0.253  51.955  1.00  0.00    -0.241 NA
HETATM    5  C5  UNL     1      26.314  -0.814  52.683  1.00  0.00     0.236 A 
HETATM    6  N2  UNL     1      25.057  -0.811  53.285  1.00  0.00    -0.224 NA
HETATM    7  C6  UNL     1      24.408   0.362  53.066  1.00  0.00     0.141 A 
HETATM    8  C13 UNL     1      24.621   1.510  52.468  1.00  0.00     0.042 A 
HETATM    9  C14 UNL     1      23.925   2.638  52.280  1.00  0.00     0.057 A 
HETATM   10  C15 UNL     1      24.406   3.602  51.515  1.00  0.00     0.102 A 
ENDROOT
BRANCH   7  11
HETATM   11  N3  UNL     1      22.943   0.289  53.043  1.00  0.00    -0.344 N 
HETATM   12  H6  UNL     1      22.659   1.290  53.458  1.00  0.00     0.167 HD
BRANCH  11  13
HETATM   13  C7  UNL     1      21.563   0.235  53.027  1.00  0.00     0.013 C 
HETATM   14  C8  UNL     1      21.029   0.537  51.828  1.00  0.00     0.002 C 
HETATM   15  C9  UNL     1      19.690   0.675  51.132  1.00  0.00     0.058 C 
HETATM   16  C10 UNL     1      18.845  -0.337  51.900  1.00  0.00     0.009 C 
HETATM   17  C11 UNL     1      19.280  -0.533  53.175  1.00  0.00     0.045 C 
HETATM   18  C12 UNL     1      20.426   0.094  53.888  1.00  0.00     0.120 C 
BRANCH  17  19
HETATM   19  O2  UNL     1      18.637  -1.428  54.063  1.00  0.00    -0.365 OA
HETATM   20  H11 UNL     1      17.712  -1.672  53.721  1.00  0.00     0.217 HD
ENDBRANCH  17  19
ENDBRANCH  11  13
ENDBRANCH   7  11
BRANCH  10  21
HETATM   21  O3  UNL     1      23.959   4.744  51.195  1.00  0.00    -0.353 OA
HETATM   22  C16 UNL     1      23.360   5.907  51.227  1.00  0.00     0.210 C 
ENDBRANCH  10  21
BRANCH   1  23
HETATM   23  O1  UNL     1      25.895   4.457  49.936  1.00  0.00    -0.353 OA
HETATM   24  C1  UNL     1      27.080   4.303  49.123  1.00  0.00     0.210 C 
ENDBRANCH   1  23
TORSDOF 5
ENDMDL
MODEL 6
REMARK VINA RESULT:      -7.0      2.603      4.029
REMARK  5 active torsions:
REMARK  status: ('A' for Active; 'I' for Inactive)
REMARK    1  A    between atoms: O1_2  and  C2_3 
REMARK    2  A    between atoms: C6_9  and  N3_10 
REMARK    3  A    between atoms: N3_10  and  C7_11 
REMARK    4  A    between atoms: C11_15  and  O2_16 
REMARK    5  A    between atoms: C15_20  and  O3_21 
ROOT
HETATM    1  C2  UNL     1      21.678   0.987  51.560  1.00  0.00     0.103 A 
HETATM    2  C3  UNL     1      21.933   1.665  50.390  1.00  0.00     0.072 A 
HETATM    3  C4  UNL     1      23.139   2.426  50.560  1.00  0.00     0.075 A 
HETATM    4  N1  UNL     1      23.394   3.095  49.360  1.00  0.00    -0.241 NA
HETATM    5  C5  UNL     1      24.541   3.826  49.282  1.00  0.00     0.236 A 
HETATM    6  N2  UNL     1      25.432   3.883  50.352  1.00  0.00    -0.224 NA
HETATM    7  C6  UNL     1      24.973   3.169  51.414  1.00  0.00     0.141 A 
HETATM    8  C13 UNL     1      23.926   2.452  51.742  1.00  0.00     0.042 A 
HETATM    9  C14 UNL     1      23.535   1.758  52.817  1.00  0.00     0.057 A 
HETATM   10  C15 UNL     1      22.430   1.036  52.784  1.00  0.00     0.102 A 
ENDROOT
BRANCH   7  11
HETATM   11  N3  UNL     1      26.000   2.605  52.297  1.00  0.00    -0.344 N 
HETATM   12  H6  UNL     1      25.625   1.560  52.444  1.00  0.00     0.167 HD
BRANCH  11  13
HETATM   13  C7  UNL     1      26.958   2.060  53.129  1.00  0.00     0.013 C 
HETATM   14  C8  UNL     1      26.462   1.161  54.001  1.00  0.00     0.002 C 
HETATM   15  C9  UNL     1      26.895   0.244  55.126  1.00  0.00     0.058 C 
HETATM   16  C10 UNL     1      28.327  -0.084  54.714  1.00  0.00     0.009 C 
HETATM   17  C11 UNL     1      28.901   0.895  53.962  1.00  0.00     0.045 C 
HETATM   18  C12 UNL     1      28.333   2.195  53.513  1.00  0.00     0.120 C 
BRANCH  17  19
HETATM   19  O2  UNL     1      30.227   0.795  53.477  1.00  0.00    -0.365 OA
HETATM   20  H11 UNL     1      30.872   0.593  54.235  1.00  0.00     0.217 HD
ENDBRANCH  17  19
ENDBRANCH  11  13
ENDBRANCH   7  11
BRANCH  10  21
HETATM   21  O3  UNL     1      21.851   0.316  53.652  1.00  0.00    -0.353 OA
HETATM   22  C16 UNL     1      21.610  -0.428  54.702  1.00  0.00     0.210 C 
ENDBRANCH  10  21
BRANCH   1  23
HETATM   23  O1  UNL     1      20.657  -0.004  51.681  1.00  0.00    -0.353 OA
HETATM   24  C1  UNL     1      19.341   0.439  51.277  1.00  0.00     0.210 C 
ENDBRANCH   1  23
TORSDOF 5
ENDMDL
MODEL 7
REMARK VINA RESULT:      -6.8      3.171      5.049
REMARK  5 active torsions:
REMARK  status: ('A' for Active; 'I' for Inactive)
REMARK    1  A    between atoms: O1_2  and  C2_3 
REMARK    2  A    between atoms: C6_9  and  N3_10 
REMARK    3  A    between atoms: N3_10  and  C7_11 
REMARK    4  A    between atoms: C11_15  and  O2_16 
REMARK    5  A    between atoms: C15_20  and  O3_21 
ROOT
HETATM    1  C2  UNL     1      19.966  -0.798  53.362  1.00  0.00     0.103 A 
HETATM    2  C3  UNL     1      20.656  -1.337  54.424  1.00  0.00     0.072 A 
HETATM    3  C4  UNL     1      22.051  -1.040  54.256  1.00  0.00     0.075 A 
HETATM    4  N1  UNL     1      22.736  -1.578  55.348  1.00  0.00    -0.241 NA
HETATM    5  C5  UNL     1      24.076  -1.347  55.424  1.00  0.00     0.236 A 
HETATM    6  N2  UNL     1      24.730  -0.586  54.457  1.00  0.00    -0.224 NA
HETATM    7  C6  UNL     1      23.871  -0.178  53.486  1.00  0.00     0.141 A 
HETATM    8  C13 UNL     1      22.603  -0.304  53.175  1.00  0.00     0.042 A 
HETATM    9  C14 UNL     1      21.807   0.137  52.194  1.00  0.00     0.057 A 
HETATM   10  C15 UNL     1      20.507  -0.093  52.231  1.00  0.00     0.102 A 
ENDROOT
BRANCH   7  11
HETATM   11  N3  UNL     1      24.210   1.084  52.820  1.00  0.00    -0.344 N 
HETATM   12  H6  UNL     1      25.163   0.816  52.296  1.00  0.00     0.167 HD
BRANCH  11  13
HETATM   13  C7  UNL     1      24.542   2.265  52.186  1.00  0.00     0.013 C 
HETATM   14  C8  UNL     1      25.663   2.178  51.444  1.00  0.00     0.002 C 
HETATM   15  C9  UNL     1      26.556   3.014  50.550  1.00  0.00     0.058 C 
HETATM   16  C10 UNL     1      25.555   4.005  49.965  1.00  0.00     0.009 C 
HETATM   17  C11 UNL     1      24.488   4.227  50.781  1.00  0.00     0.045 C 
HETATM   18  C12 UNL     1      24.191   3.653  52.122  1.00  0.00     0.120 C 
BRANCH  17  19
HETATM   19  O2  UNL     1      23.443   5.115  50.433  1.00  0.00    -0.365 OA
HETATM   20  H11 UNL     1      22.662   4.608  50.027  1.00  0.00     0.217 HD
ENDBRANCH  17  19
ENDBRANCH  11  13
ENDBRANCH   7  11
BRANCH  10  21
HETATM   21  O3  UNL     1      19.562   0.200  51.439  1.00  0.00    -0.353 OA
HETATM   22  C16 UNL     1      18.830   0.791  50.528  1.00  0.00     0.210 C 
ENDBRANCH  10  21
BRANCH   1  23
HETATM   23  O1  UNL     1      18.541  -0.749  53.301  1.00  0.00    -0.353 OA
HETATM   24  C1  UNL     1      17.889  -2.026  53.491  1.00  0.00     0.210 C 
ENDBRANCH   1  23
TORSDOF 5
ENDMDL
MODEL 8
REMARK VINA RESULT:      -6.7      2.755      5.437
REMARK  5 active torsions:
REMARK  status: ('A' for Active; 'I' for Inactive)
REMARK    1  A    between atoms: O1_2  and  C2_3 
REMARK    2  A    between atoms: C6_9  and  N3_10 
REMARK    3  A    between atoms: N3_10  and  C7_11 
REMARK    4  A    between atoms: C11_15  and  O2_16 
REMARK    5  A    between atoms: C15_20  and  O3_21 
ROOT
HETATM    1  C2  UNL     1      23.216  -0.197  53.781  1.00  0.00     0.103 A 
HETATM    2  C3  UNL     1      24.360  -0.463  54.498  1.00  0.00     0.072 A 
HETATM    3  C4  UNL     1      25.490  -0.020  53.731  1.00  0.00     0.075 A 
HETATM    4  N1  UNL     1      26.642  -0.281  54.477  1.00  0.00    -0.241 NA
HETATM    5  C5  UNL     1      27.832   0.130  53.958  1.00  0.00     0.236 A 
HETATM    6  N2  UNL     1      27.891   0.801  52.738  1.00  0.00    -0.224 NA
HETATM    7  C6  UNL     1      26.656   0.931  52.187  1.00  0.00     0.141 A 
HETATM    8  C13 UNL     1      25.416   0.594  52.452  1.00  0.00     0.042 A 
HETATM    9  C14 UNL     1      24.228   0.763  51.862  1.00  0.00     0.057 A 
HETATM   10  C15 UNL     1      23.118   0.377  52.466  1.00  0.00     0.102 A 
ENDROOT
BRANCH   7  11
HETATM   11  N3  UNL     1      26.460   2.100  51.323  1.00  0.00    -0.344 N 
HETATM   12  H6  UNL     1      27.511   2.333  51.013  1.00  0.00     0.167 HD
BRANCH  11  13
HETATM   13  C7  UNL     1      26.292   3.202  50.507  1.00  0.00     0.013 C 
HETATM   14  C8  UNL     1      25.115   3.831  50.693  1.00  0.00     0.002 C 
HETATM   15  C9  UNL     1      24.314   5.012  50.184  1.00  0.00     0.058 C 
HETATM   16  C10 UNL     1      25.423   5.976  49.776  1.00  0.00     0.009 C 
HETATM   17  C11 UNL     1      26.576   5.342  49.428  1.00  0.00     0.045 C 
HETATM   18  C12 UNL     1      26.878   3.885  49.391  1.00  0.00     0.120 C 
BRANCH  17  19
HETATM   19  O2  UNL     1      27.730   6.048  49.013  1.00  0.00    -0.365 OA
HETATM   20  H11 UNL     1      27.601   7.049  49.128  1.00  0.00     0.217 HD
ENDBRANCH  17  19
ENDBRANCH  11  13
ENDBRANCH   7  11
BRANCH  10  21
HETATM   21  O3  UNL     1      21.899   0.413  52.122  1.00  0.00    -0.353 OA
HETATM   22  C16 UNL     1      20.779   0.710  51.513  1.00  0.00     0.210 C 
ENDBRANCH  10  21
BRANCH   1  23
HETATM   23  O1  UNL     1      21.903  -0.343  54.323  1.00  0.00    -0.353 OA
HETATM   24  C1  UNL     1      21.505  -1.711  54.570  1.00  0.00     0.210 C 
ENDBRANCH   1  23
TORSDOF 5
ENDMDL
MODEL 9
REMARK VINA RESULT:      -6.6      3.012      6.338
REMARK  5 active torsions:
REMARK  status: ('A' for Active; 'I' for Inactive)
REMARK    1  A    between atoms: O1_2  and  C2_3 
REMARK    2  A    between atoms: C6_9  and  N3_10 
REMARK    3  A    between atoms: N3_10  and  C7_11 
REMARK    4  A    between atoms: C11_15  and  O2_16 
REMARK    5  A    between atoms: C15_20  and  O3_21 
ROOT
HETATM    1  C2  UNL     1      23.181  -0.098  52.899  1.00  0.00     0.103 A 
HETATM    2  C3  UNL     1      24.480  -0.207  53.338  1.00  0.00     0.072 A 
HETATM    3  C4  UNL     1      25.273   0.778  52.657  1.00  0.00     0.075 A 
HETATM    4  N1  UNL     1      26.585   0.666  53.124  1.00  0.00    -0.241 NA
HETATM    5  C5  UNL     1      27.496   1.564  52.655  1.00  0.00     0.236 A 
HETATM    6  N2  UNL     1      27.124   2.565  51.760  1.00  0.00    -0.224 NA
HETATM    7  C6  UNL     1      25.807   2.473  51.437  1.00  0.00     0.141 A 
HETATM    8  C13 UNL     1      24.777   1.705  51.703  1.00  0.00     0.042 A 
HETATM    9  C14 UNL     1      23.487   1.674  51.352  1.00  0.00     0.057 A 
HETATM   10  C15 UNL     1      22.664   0.797  51.899  1.00  0.00     0.102 A 
ENDROOT
BRANCH   7  11
HETATM   11  N3  UNL     1      25.145   3.732  51.079  1.00  0.00    -0.344 N 
HETATM   12  H6  UNL     1      26.002   4.334  50.679  1.00  0.00     0.167 HD
BRANCH  11  13
HETATM   13  C7  UNL     1      24.537   4.924  50.738  1.00  0.00     0.013 C 
HETATM   14  C8  UNL     1      24.483   5.137  49.409  1.00  0.00     0.002 C 
HETATM   15  C9  UNL     1      24.002   6.153  48.394  1.00  0.00     0.058 C 
HETATM   16  C10 UNL     1      22.811   6.768  49.123  1.00  0.00     0.009 C 
HETATM   17  C11 UNL     1      22.928   6.705  50.478  1.00  0.00     0.045 C 
HETATM   18  C12 UNL     1      24.029   6.139  51.305  1.00  0.00     0.120 C 
BRANCH  17  19
HETATM   19  O2  UNL     1      21.936   7.220  51.346  1.00  0.00    -0.365 OA
HETATM   20  H11 UNL     1      21.950   8.236  51.344  1.00  0.00     0.217 HD
ENDBRANCH  17  19
ENDBRANCH  11  13
ENDBRANCH   7  11
BRANCH  10  21
HETATM   21  O3  UNL     1      21.430   0.561  51.733  1.00  0.00    -0.353 OA
HETATM   22  C16 UNL     1      20.216   0.535  51.245  1.00  0.00     0.210 C 
ENDBRANCH  10  21
BRANCH   1  23
HETATM   23  O1  UNL     1      22.093  -0.802  53.498  1.00  0.00    -0.353 OA
HETATM   24  C1  UNL     1      22.199  -0.963  54.931  1.00  0.00     0.210 C 
ENDBRANCH   1  23
TORSDOF 5
ENDMDL
