MODEL 1
REMARK VINA RESULT:      -7.6      0.000      0.000
REMARK  2 active torsions:
REMARK  status: ('A' for Active; 'I' for Inactive)
REMARK    1  A    between atoms: O1_2  and  C2_3 
REMARK    2  A    between atoms: C2_3  and  C3_4 
ROOT
HETATM    1  C3  UNL     1      26.155   0.012  52.797  1.00  0.00    -0.044 C 
HETATM    2  P1  UNL     1      25.314   1.302  52.276  1.00  0.00    -0.056 P 
HETATM    3  C4  UNL     1      25.916   2.844  51.514  1.00  0.00     0.051 C 
HETATM    4  C5  UNL     1      25.124   3.243  50.241  1.00  0.00     0.084 C 
HETATM    5  C6  UNL     1      23.675   3.327  50.639  1.00  0.00     0.108 C 
HETATM    6  N1  UNL     1      23.017   3.422  51.694  1.00  0.00    -0.228 NA
HETATM    7  C7  UNL     1      21.612   3.469  51.649  1.00  0.00     0.235 C 
HETATM    8  N2  UNL     1      20.681   2.557  51.612  1.00  0.00    -0.246 NA
HETATM    9  C8  UNL     1      20.943   1.161  51.608  1.00  0.00     0.044 C 
HETATM   10  C9  UNL     1      21.590   0.403  52.473  1.00  0.00     0.027 C 
HETATM   11  C10 UNL     1      22.255   0.713  53.739  1.00  0.00     0.197 C 
HETATM   12  O2  UNL     1      23.584   0.414  53.712  1.00  0.00    -0.387 OA
HETATM   13  C11 UNL     1      23.865  -0.853  53.326  1.00  0.00     0.172 C 
HETATM   14  C12 UNL     1      25.376  -1.067  53.447  1.00  0.00     0.064 C 
HETATM   15  C13 UNL     1      20.274   0.612  50.335  1.00  0.00     0.144 C 
HETATM   16  C14 UNL     1      20.675   1.325  49.209  1.00  0.00    -0.144 C 
HETATM   17  C15 UNL     1      21.009   1.920  48.305  1.00  0.00    -0.004 A 
HETATM   18  C16 UNL     1      21.424   2.654  47.230  1.00  0.00     0.035 A 
HETATM   19  C17 UNL     1      22.173   2.958  48.326  1.00  0.00     0.122 A 
HETATM   20  N3  UNL     1      22.947   3.362  49.428  1.00  0.00    -0.337 N 
HETATM   21  C18 UNL     1      23.008   4.760  49.022  1.00  0.00     0.089 C 
HETATM   22  C19 UNL     1      22.331   4.899  47.851  1.00  0.00    -0.006 C 
HETATM   23  C20 UNL     1      22.303   3.753  46.837  1.00  0.00     0.070 A 
ENDROOT
BRANCH   1  24
HETATM   24  C2  UNL     1      27.590  -0.356  52.840  1.00  0.00     0.202 C 
BRANCH  24  25
HETATM   25  O1  UNL     1      27.935  -0.736  54.147  1.00  0.00    -0.392 OA
HETATM   26  C1  UNL     1      28.638   0.271  54.775  1.00  0.00     0.201 C 
ENDBRANCH  24  25
ENDBRANCH   1  24
TORSDOF 2
ENDMDL
MODEL 2
REMARK VINA RESULT:      -7.2      3.318      6.347
REMARK  2 active torsions:
REMARK  status: ('A' for Active; 'I' for Inactive)
REMARK    1  A    between atoms: O1_2  and  C2_3 
REMARK    2  A    between atoms: C2_3  and  C3_4 
ROOT
HETATM    1  C3  UNL     1      18.841   1.422  50.450  1.00  0.00    -0.044 C 
HETATM    2  P1  UNL     1      20.095   1.972  51.325  1.00  0.00    -0.056 P 
HETATM    3  C4  UNL     1      20.885   1.243  52.798  1.00  0.00     0.051 C 
HETATM    4  C5  UNL     1      22.433   1.212  52.704  1.00  0.00     0.084 C 
HETATM    5  C6  UNL     1      22.881   2.628  52.454  1.00  0.00     0.108 C 
HETATM    6  N1  UNL     1      22.404   3.774  52.561  1.00  0.00    -0.228 NA
HETATM    7  C7  UNL     1      23.172   4.896  52.202  1.00  0.00     0.235 C 
HETATM    8  N2  UNL     1      23.389   5.517  51.076  1.00  0.00    -0.246 NA
HETATM    9  C8  UNL     1      22.816   5.126  49.836  1.00  0.00     0.044 C 
HETATM   10  C9  UNL     1      21.554   4.997  49.472  1.00  0.00     0.027 C 
HETATM   11  C10 UNL     1      20.300   5.215  50.195  1.00  0.00     0.197 C 
HETATM   12  O2  UNL     1      19.549   4.082  50.281  1.00  0.00    -0.387 OA
HETATM   13  C11 UNL     1      19.313   3.475  49.095  1.00  0.00     0.172 C 
HETATM   14  C12 UNL     1      18.377   2.289  49.342  1.00  0.00     0.064 C 
HETATM   15  C13 UNL     1      24.001   4.876  48.887  1.00  0.00     0.144 C 
HETATM   16  C14 UNL     1      24.923   3.999  49.453  1.00  0.00    -0.144 C 
HETATM   17  C15 UNL     1      25.663   3.289  49.932  1.00  0.00    -0.004 A 
HETATM   18  C16 UNL     1      26.543   2.433  50.532  1.00  0.00     0.035 A 
HETATM   19  C17 UNL     1      25.380   2.486  51.239  1.00  0.00     0.122 A 
HETATM   20  N3  UNL     1      24.232   2.535  52.048  1.00  0.00    -0.337 N 
HETATM   21  C18 UNL     1      24.968   2.430  53.302  1.00  0.00     0.089 C 
HETATM   22  C19 UNL     1      26.294   2.332  53.016  1.00  0.00    -0.006 C 
HETATM   23  C20 UNL     1      26.756   1.633  51.736  1.00  0.00     0.070 A 
ENDROOT
BRANCH   1  24
HETATM   24  C2  UNL     1      17.957   0.233  50.515  1.00  0.00     0.202 C 
BRANCH  24  25
HETATM   25  O1  UNL     1      17.347   0.175  51.779  1.00  0.00    -0.392 OA
HETATM   26  C1  UNL     1      17.728  -0.969  52.449  1.00  0.00     0.201 C 
ENDBRANCH  24  25
ENDBRANCH   1  24
TORSDOF 2
ENDMDL
MODEL 3
REMARK VINA RESULT:      -7.1      2.771      5.293
REMARK  2 active torsions:
REMARK  status: ('A' for Active; 'I' for Inactive)
REMARK    1  A    between atoms: O1_2  and  C2_3 
REMARK    2  A    between atoms: C2_3  and  C3_4 
ROOT
HETATM    1  C3  UNL     1      19.427  -0.486  52.946  1.00  0.00    -0.044 C 
HETATM    2  P1  UNL     1      20.017   0.404  51.720  1.00  0.00    -0.056 P 
HETATM    3  C4  UNL     1      19.217   0.892  50.156  1.00  0.00     0.051 C 
HETATM    4  C5  UNL     1      19.390   2.398  49.829  1.00  0.00     0.084 C 
HETATM    5  C6  UNL     1      20.870   2.675  49.828  1.00  0.00     0.108 C 
HETATM    6  N1  UNL     1      21.927   2.018  49.757  1.00  0.00    -0.228 NA
HETATM    7  C7  UNL     1      23.171   2.673  49.798  1.00  0.00     0.235 C 
HETATM    8  N2  UNL     1      23.947   3.074  50.766  1.00  0.00    -0.246 NA
HETATM    9  C8  UNL     1      23.642   2.904  52.143  1.00  0.00     0.044 C 
HETATM   10  C9  UNL     1      23.403   1.812  52.845  1.00  0.00     0.027 C 
HETATM   11  C10 UNL     1      23.375   0.397  52.473  1.00  0.00     0.197 C 
HETATM   12  O2  UNL     1      22.155  -0.171  52.690  1.00  0.00    -0.387 OA
HETATM   13  C11 UNL     1      21.673   0.000  53.943  1.00  0.00     0.172 C 
HETATM   14  C12 UNL     1      20.359  -0.776  54.060  1.00  0.00     0.064 C 
HETATM   15  C13 UNL     1      23.659   4.317  52.753  1.00  0.00     0.144 C 
HETATM   16  C14 UNL     1      22.840   5.184  52.036  1.00  0.00    -0.144 C 
HETATM   17  C15 UNL     1      22.174   5.876  51.437  1.00  0.00    -0.004 A 
HETATM   18  C16 UNL     1      21.367   6.692  50.696  1.00  0.00     0.035 A 
HETATM   19  C17 UNL     1      21.188   5.393  50.328  1.00  0.00     0.122 A 
HETATM   20  N3  UNL     1      20.996   4.083  49.859  1.00  0.00    -0.337 N 
HETATM   21  C18 UNL     1      20.830   4.480  48.466  1.00  0.00     0.089 C 
HETATM   22  C19 UNL     1      20.933   5.834  48.389  1.00  0.00    -0.006 C 
HETATM   23  C20 UNL     1      20.458   6.709  49.552  1.00  0.00     0.070 A 
ENDROOT
BRANCH   1  24
HETATM   24  C2  UNL     1      18.139  -1.165  53.224  1.00  0.00     0.202 C 
BRANCH  24  25
HETATM   25  O1  UNL     1      18.386  -2.383  53.879  1.00  0.00    -0.392 OA
HETATM   26  C1  UNL     1      17.399  -3.300  53.584  1.00  0.00     0.201 C 
ENDBRANCH  24  25
ENDBRANCH   1  24
TORSDOF 2
ENDMDL
MODEL 4
REMARK VINA RESULT:      -7.0      3.725      7.506
REMARK  2 active torsions:
REMARK  status: ('A' for Active; 'I' for Inactive)
REMARK    1  A    between atoms: O1_2  and  C2_3 
REMARK    2  A    between atoms: C2_3  and  C3_4 
ROOT
HETATM    1  C3  UNL     1      20.355   4.100  47.022  1.00  0.00    -0.044 C 
HETATM    2  P1  UNL     1      21.047   4.172  48.491  1.00  0.00    -0.056 P 
HETATM    3  C4  UNL     1      20.617   3.273  50.017  1.00  0.00     0.051 C 
HETATM    4  C5  UNL     1      21.849   2.646  50.722  1.00  0.00     0.084 C 
HETATM    5  C6  UNL     1      22.822   3.767  50.971  1.00  0.00     0.108 C 
HETATM    6  N1  UNL     1      22.799   5.012  51.007  1.00  0.00    -0.228 NA
HETATM    7  C7  UNL     1      23.975   5.734  51.280  1.00  0.00     0.235 C 
HETATM    8  N2  UNL     1      24.959   6.166  50.541  1.00  0.00    -0.246 NA
HETATM    9  C8  UNL     1      25.041   5.961  49.138  1.00  0.00     0.044 C 
HETATM   10  C9  UNL     1      24.218   6.307  48.166  1.00  0.00     0.027 C 
HETATM   11  C10 UNL     1      22.943   7.026  48.174  1.00  0.00     0.197 C 
HETATM   12  O2  UNL     1      21.921   6.273  47.678  1.00  0.00    -0.387 OA
HETATM   13  C11 UNL     1      22.159   5.743  46.456  1.00  0.00     0.172 C 
HETATM   14  C12 UNL     1      20.891   5.020  45.993  1.00  0.00     0.064 C 
HETATM   15  C13 UNL     1      26.373   5.227  48.899  1.00  0.00     0.144 C 
HETATM   16  C14 UNL     1      26.474   4.094  49.702  1.00  0.00    -0.144 C 
HETATM   17  C15 UNL     1      26.541   3.180  50.366  1.00  0.00    -0.004 A 
HETATM   18  C16 UNL     1      26.600   2.085  51.180  1.00  0.00     0.035 A 
HETATM   19  C17 UNL     1      25.346   2.616  51.194  1.00  0.00     0.122 A 
HETATM   20  N3  UNL     1      24.047   3.143  51.301  1.00  0.00    -0.337 N 
HETATM   21  C18 UNL     1      23.910   2.828  52.718  1.00  0.00     0.089 C 
HETATM   22  C19 UNL     1      25.050   2.215  53.136  1.00  0.00    -0.006 C 
HETATM   23  C20 UNL     1      25.843   1.327  52.174  1.00  0.00     0.070 A 
ENDROOT
BRANCH   1  24
HETATM   24  C2  UNL     1      19.223   3.346  46.432  1.00  0.00     0.202 C 
BRANCH  24  25
HETATM   25  O1  UNL     1      18.207   3.205  47.391  1.00  0.00    -0.392 OA
HETATM   26  C1  UNL     1      17.274   4.213  47.259  1.00  0.00     0.201 C 
ENDBRANCH  24  25
ENDBRANCH   1  24
TORSDOF 2
ENDMDL
MODEL 5
REMARK VINA RESULT:      -7.0      8.644     10.930
REMARK  2 active torsions:
REMARK  status: ('A' for Active; 'I' for Inactive)
REMARK    1  A    between atoms: O1_2  and  C2_3 
REMARK    2  A    between atoms: C2_3  and  C3_4 
ROOT
HETATM    1  C3  UNL     1      34.030   6.187  48.150  1.00  0.00    -0.044 C 
HETATM    2  P1  UNL     1      32.491   6.396  47.670  1.00  0.00    -0.056 P 
HETATM    3  C4  UNL     1      31.136   5.181  47.568  1.00  0.00     0.051 C 
HETATM    4  C5  UNL     1      29.812   5.691  48.195  1.00  0.00     0.084 C 
HETATM    5  C6  UNL     1      29.476   6.986  47.504  1.00  0.00     0.108 C 
HETATM    6  N1  UNL     1      29.801   7.579  46.457  1.00  0.00    -0.228 NA
HETATM    7  C7  UNL     1      29.243   8.834  46.154  1.00  0.00     0.235 C 
HETATM    8  N2  UNL     1      29.551  10.059  46.478  1.00  0.00    -0.246 NA
HETATM    9  C8  UNL     1      30.651  10.403  47.310  1.00  0.00     0.044 C 
HETATM   10  C9  UNL     1      31.941  10.160  47.176  1.00  0.00     0.027 C 
HETATM   11  C10 UNL     1      32.704   9.469  46.136  1.00  0.00     0.197 C 
HETATM   12  O2  UNL     1      33.374   8.385  46.619  1.00  0.00    -0.387 OA
HETATM   13  C11 UNL     1      34.160   8.645  47.690  1.00  0.00     0.172 C 
HETATM   14  C12 UNL     1      34.920   7.366  48.048  1.00  0.00     0.064 C 
HETATM   15  C13 UNL     1      30.055  11.197  48.486  1.00  0.00     0.144 C 
HETATM   16  C14 UNL     1      29.013  10.497  49.088  1.00  0.00    -0.144 C 
HETATM   17  C15 UNL     1      28.165   9.916  49.562  1.00  0.00    -0.004 A 
HETATM   18  C16 UNL     1      27.142   9.197  50.113  1.00  0.00     0.035 A 
HETATM   19  C17 UNL     1      27.838   8.426  49.232  1.00  0.00     0.122 A 
HETATM   20  N3  UNL     1      28.474   7.593  48.296  1.00  0.00    -0.337 N 
HETATM   21  C18 UNL     1      27.244   6.940  47.866  1.00  0.00     0.089 C 
HETATM   22  C19 UNL     1      26.209   7.459  48.580  1.00  0.00    -0.006 C 
HETATM   23  C20 UNL     1      26.425   7.927  50.021  1.00  0.00     0.070 A 
ENDROOT
BRANCH   1  24
HETATM   24  C2  UNL     1      34.829   5.038  48.639  1.00  0.00     0.202 C 
BRANCH  24  25
HETATM   25  O1  UNL     1      34.317   3.849  48.093  1.00  0.00    -0.392 OA
HETATM   26  C1  UNL     1      35.022   3.491  46.963  1.00  0.00     0.201 C 
ENDBRANCH  24  25
ENDBRANCH   1  24
TORSDOF 2
ENDMDL
MODEL 6
REMARK VINA RESULT:      -6.9      9.863     11.846
REMARK  2 active torsions:
REMARK  status: ('A' for Active; 'I' for Inactive)
REMARK    1  A    between atoms: O1_2  and  C2_3 
REMARK    2  A    between atoms: C2_3  and  C3_4 
ROOT
HETATM    1  C3  UNL     1      34.011   6.342  43.853  1.00  0.00    -0.044 C 
HETATM    2  P1  UNL     1      33.604   7.160  45.198  1.00  0.00    -0.056 P 
HETATM    3  C4  UNL     1      33.814   8.929  45.584  1.00  0.00     0.051 C 
HETATM    4  C5  UNL     1      32.534   9.579  46.171  1.00  0.00     0.084 C 
HETATM    5  C6  UNL     1      32.152   8.769  47.381  1.00  0.00     0.108 C 
HETATM    6  N1  UNL     1      32.693   7.943  48.141  1.00  0.00    -0.228 NA
HETATM    7  C7  UNL     1      31.967   7.380  49.205  1.00  0.00     0.235 C 
HETATM    8  N2  UNL     1      31.164   6.357  49.307  1.00  0.00    -0.246 NA
HETATM    9  C8  UNL     1      30.826   5.508  48.219  1.00  0.00     0.044 C 
HETATM   10  C9  UNL     1      31.588   4.776  47.428  1.00  0.00     0.027 C 
HETATM   11  C10 UNL     1      33.035   4.565  47.385  1.00  0.00     0.197 C 
HETATM   12  O2  UNL     1      33.582   4.961  46.202  1.00  0.00    -0.387 OA
HETATM   13  C11 UNL     1      32.992   4.428  45.106  1.00  0.00     0.172 C 
HETATM   14  C12 UNL     1      33.777   4.880  43.872  1.00  0.00     0.064 C 
HETATM   15  C13 UNL     1      29.292   5.557  48.110  1.00  0.00     0.144 C 
HETATM   16  C14 UNL     1      28.834   6.870  48.042  1.00  0.00    -0.144 C 
HETATM   17  C15 UNL     1      28.480   7.944  47.993  1.00  0.00    -0.004 A 
HETATM   18  C16 UNL     1      28.078   9.249  47.939  1.00  0.00     0.035 A 
HETATM   19  C17 UNL     1      29.429   9.166  47.797  1.00  0.00     0.122 A 
HETATM   20  N3  UNL     1      30.832   9.160  47.702  1.00  0.00    -0.337 N 
HETATM   21  C18 UNL     1      31.006  10.388  48.468  1.00  0.00     0.089 C 
HETATM   22  C19 UNL     1      29.778  10.851  48.826  1.00  0.00    -0.006 C 
HETATM   23  C20 UNL     1      28.573  10.623  47.910  1.00  0.00     0.070 A 
ENDROOT
BRANCH   1  24
HETATM   24  C2  UNL     1      34.644   6.698  42.561  1.00  0.00     0.202 C 
BRANCH  24  25
HETATM   25  O1  UNL     1      35.738   5.849  42.328  1.00  0.00    -0.392 OA
HETATM   26  C1  UNL     1      36.881   6.585  42.092  1.00  0.00     0.201 C 
ENDBRANCH  24  25
ENDBRANCH   1  24
TORSDOF 2
ENDMDL
MODEL 7
REMARK VINA RESULT:      -6.9      3.543      7.287
REMARK  2 active torsions:
REMARK  status: ('A' for Active; 'I' for Inactive)
REMARK    1  A    between atoms: O1_2  and  C2_3 
REMARK    2  A    between atoms: C2_3  and  C3_4 
ROOT
HETATM    1  C3  UNL     1      20.775   3.999  46.452  1.00  0.00    -0.044 C 
HETATM    2  P1  UNL     1      20.495   3.732  48.031  1.00  0.00    -0.056 P 
HETATM    3  C4  UNL     1      19.159   2.777  48.823  1.00  0.00     0.051 C 
HETATM    4  C5  UNL     1      19.672   1.805  49.917  1.00  0.00     0.084 C 
HETATM    5  C6  UNL     1      20.449   2.634  50.904  1.00  0.00     0.108 C 
HETATM    6  N1  UNL     1      20.558   3.838  51.208  1.00  0.00    -0.228 NA
HETATM    7  C7  UNL     1      21.436   4.232  52.232  1.00  0.00     0.235 C 
HETATM    8  N2  UNL     1      22.709   4.512  52.270  1.00  0.00    -0.246 NA
HETATM    9  C8  UNL     1      23.562   4.465  51.134  1.00  0.00     0.044 C 
HETATM   10  C9  UNL     1      23.498   5.106  49.982  1.00  0.00     0.027 C 
HETATM   11  C10 UNL     1      22.550   6.091  49.461  1.00  0.00     0.197 C 
HETATM   12  O2  UNL     1      21.921   5.659  48.333  1.00  0.00    -0.387 OA
HETATM   13  C11 UNL     1      22.755   5.240  47.353  1.00  0.00     0.172 C 
HETATM   14  C12 UNL     1      21.913   4.889  46.124  1.00  0.00     0.064 C 
HETATM   15  C13 UNL     1      24.687   3.480  51.495  1.00  0.00     0.144 C 
HETATM   16  C14 UNL     1      24.170   2.266  51.938  1.00  0.00    -0.144 C 
HETATM   17  C15 UNL     1      23.731   1.287  52.300  1.00  0.00    -0.004 A 
HETATM   18  C16 UNL     1      23.178   0.117  52.738  1.00  0.00     0.035 A 
HETATM   19  C17 UNL     1      22.220   0.916  52.190  1.00  0.00     0.122 A 
HETATM   20  N3  UNL     1      21.173   1.710  51.693  1.00  0.00    -0.337 N 
HETATM   21  C18 UNL     1      20.207   1.266  52.690  1.00  0.00     0.089 C 
HETATM   22  C19 UNL     1      20.812   0.362  53.505  1.00  0.00    -0.006 C 
HETATM   23  C20 UNL     1      21.902  -0.561  52.955  1.00  0.00     0.070 A 
ENDROOT
BRANCH   1  24
HETATM   24  C2  UNL     1      20.112   3.601  45.187  1.00  0.00     0.202 C 
BRANCH  24  25
HETATM   25  O1  UNL     1      21.051   3.619  44.143  1.00  0.00    -0.392 OA
HETATM   26  C1  UNL     1      20.440   3.943  42.949  1.00  0.00     0.201 C 
ENDBRANCH  24  25
ENDBRANCH   1  24
TORSDOF 2
ENDMDL
MODEL 8
REMARK VINA RESULT:      -6.7      9.625     12.453
REMARK  2 active torsions:
REMARK  status: ('A' for Active; 'I' for Inactive)
REMARK    1  A    between atoms: O1_2  and  C2_3 
REMARK    2  A    between atoms: C2_3  and  C3_4 
ROOT
HETATM    1  C3  UNL     1      28.455   8.667  47.270  1.00  0.00    -0.044 C 
HETATM    2  P1  UNL     1      30.023   8.316  47.518  1.00  0.00    -0.056 P 
HETATM    3  C4  UNL     1      30.890   7.937  49.076  1.00  0.00     0.051 C 
HETATM    4  C5  UNL     1      31.802   6.686  48.975  1.00  0.00     0.084 C 
HETATM    5  C6  UNL     1      32.753   6.934  47.834  1.00  0.00     0.108 C 
HETATM    6  N1  UNL     1      33.156   7.909  47.170  1.00  0.00    -0.228 NA
HETATM    7  C7  UNL     1      34.087   7.721  46.132  1.00  0.00     0.235 C 
HETATM    8  N2  UNL     1      33.979   7.407  44.872  1.00  0.00    -0.246 NA
HETATM    9  C8  UNL     1      32.738   7.162  44.222  1.00  0.00     0.044 C 
HETATM   10  C9  UNL     1      31.675   7.930  44.078  1.00  0.00     0.027 C 
HETATM   11  C10 UNL     1      31.388   9.296  44.515  1.00  0.00     0.197 C 
HETATM   12  O2  UNL     1      30.318   9.356  45.357  1.00  0.00    -0.387 OA
HETATM   13  C11 UNL     1      29.197   8.766  44.880  1.00  0.00     0.172 C 
HETATM   14  C12 UNL     1      28.066   9.007  45.882  1.00  0.00     0.064 C 
HETATM   15  C13 UNL     1      32.844   5.742  43.639  1.00  0.00     0.144 C 
HETATM   16  C14 UNL     1      33.231   4.825  44.613  1.00  0.00    -0.144 C 
HETATM   17  C15 UNL     1      33.550   4.095  45.417  1.00  0.00    -0.004 A 
HETATM   18  C16 UNL     1      33.941   3.235  46.404  1.00  0.00     0.035 A 
HETATM   19  C17 UNL     1      33.610   4.444  46.936  1.00  0.00     0.122 A 
HETATM   20  N3  UNL     1      33.340   5.680  47.547  1.00  0.00    -0.337 N 
HETATM   21  C18 UNL     1      34.410   5.561  48.530  1.00  0.00     0.089 C 
HETATM   22  C19 UNL     1      35.042   4.372  48.337  1.00  0.00    -0.006 C 
HETATM   23  C20 UNL     1      34.261   3.159  47.827  1.00  0.00     0.070 A 
ENDROOT
BRANCH   1  24
HETATM   24  C2  UNL     1      27.259   8.793  48.136  1.00  0.00     0.202 C 
BRANCH  24  25
HETATM   25  O1  UNL     1      27.653   9.217  49.416  1.00  0.00    -0.392 OA
HETATM   26  C1  UNL     1      26.710   8.859  50.357  1.00  0.00     0.201 C 
ENDBRANCH  24  25
ENDBRANCH   1  24
TORSDOF 2
ENDMDL
MODEL 9
REMARK VINA RESULT:      -6.7      3.992      6.868
REMARK  2 active torsions:
REMARK  status: ('A' for Active; 'I' for Inactive)
REMARK    1  A    between atoms: O1_2  and  C2_3 
REMARK    2  A    between atoms: C2_3  and  C3_4 
ROOT
HETATM    1  C3  UNL     1      24.988   8.494  48.754  1.00  0.00    -0.044 C 
HETATM    2  P1  UNL     1      25.140   6.877  48.815  1.00  0.00    -0.056 P 
HETATM    3  C4  UNL     1      26.616   5.843  48.539  1.00  0.00     0.051 C 
HETATM    4  C5  UNL     1      26.815   4.763  49.635  1.00  0.00     0.084 C 
HETATM    5  C6  UNL     1      25.547   3.953  49.681  1.00  0.00     0.108 C 
HETATM    6  N1  UNL     1      24.557   3.754  48.950  1.00  0.00    -0.228 NA
HETATM    7  C7  UNL     1      23.530   2.891  49.370  1.00  0.00     0.235 C 
HETATM    8  N2  UNL     1      22.464   3.048  50.104  1.00  0.00    -0.246 NA
HETATM    9  C8  UNL     1      22.089   4.284  50.697  1.00  0.00     0.044 C 
HETATM   10  C9  UNL     1      21.836   5.459  50.153  1.00  0.00     0.027 C 
HETATM   11  C10 UNL     1      21.837   5.914  48.763  1.00  0.00     0.197 C 
HETATM   12  O2  UNL     1      22.738   6.912  48.545  1.00  0.00    -0.387 OA
HETATM   13  C11 UNL     1      22.623   7.964  49.388  1.00  0.00     0.172 C 
HETATM   14  C12 UNL     1      23.624   9.038  48.954  1.00  0.00     0.064 C 
HETATM   15  C13 UNL     1      21.992   4.011  52.209  1.00  0.00     0.144 C 
HETATM   16  C14 UNL     1      23.155   3.415  52.688  1.00  0.00    -0.144 C 
HETATM   17  C15 UNL     1      24.107   2.927  53.059  1.00  0.00    -0.004 A 
HETATM   18  C16 UNL     1      25.264   2.335  53.482  1.00  0.00     0.035 A 
HETATM   19  C17 UNL     1      25.410   2.802  52.211  1.00  0.00     0.122 A 
HETATM   20  N3  UNL     1      25.613   3.207  50.880  1.00  0.00    -0.337 N 
HETATM   21  C18 UNL     1      26.440   2.058  50.534  1.00  0.00     0.089 C 
HETATM   22  C19 UNL     1      26.568   1.271  51.635  1.00  0.00    -0.006 C 
HETATM   23  C20 UNL     1      26.583   1.897  53.031  1.00  0.00     0.070 A 
ENDROOT
BRANCH   1  24
HETATM   24  C2  UNL     1      25.907   9.624  48.481  1.00  0.00     0.202 C 
BRANCH  24  25
HETATM   25  O1  UNL     1      26.414  10.117  49.694  1.00  0.00    -0.392 OA
HETATM   26  C1  UNL     1      27.436   9.313  50.154  1.00  0.00     0.201 C 
ENDBRANCH  24  25
ENDBRANCH   1  24
TORSDOF 2
ENDMDL
