MODEL 1
REMARK VINA RESULT:      -7.6      0.000      0.000
REMARK  5 active torsions:
REMARK  status: ('A' for Active; 'I' for Inactive)
REMARK    1  A    between atoms: N1_2  and  C2_3 
REMARK    2  A    between atoms: C2_3  and  C3_4 
REMARK    3  A    between atoms: C4_5  and  N2_6 
REMARK       I    between atoms: N2_6  and  C5_7 
REMARK       I    between atoms: C5_7  and  N3_9 
REMARK    4  A    between atoms: N3_9  and  C6_10 
REMARK    5  A    between atoms: C14_20  and  O2_21 
ROOT
HETATM    1  C6  UNL     1      25.076   2.364  52.221  1.00  0.00     0.011 C 
HETATM    2  C7  UNL     1      25.857   2.211  53.280  1.00  0.00     0.014 C 
HETATM    3  C8  UNL     1      26.238   1.181  54.264  1.00  0.00     0.107 A 
HETATM    4  C9  UNL     1      27.662   0.841  54.302  1.00  0.00     0.053 A 
HETATM    5  C10 UNL     1      28.837   1.632  54.534  1.00  0.00     0.097 C 
HETATM    6  N4  UNL     1      29.779   2.273  54.733  1.00  0.00    -0.192 NA
HETATM    7  C11 UNL     1      27.764  -0.475  54.062  1.00  0.00     0.136 A 
HETATM    8  N5  UNL     1      26.493  -1.109  53.849  1.00  0.00    -0.263 NA
HETATM    9  C12 UNL     1      25.609  -0.145  53.966  1.00  0.00     0.049 A 
HETATM   10  C13 UNL     1      24.221  -0.610  53.764  1.00  0.00     0.060 C 
HETATM   11  C14 UNL     1      23.180  -0.068  53.104  1.00  0.00     0.045 C 
HETATM   12  C15 UNL     1      22.886   1.169  52.295  1.00  0.00     0.070 C 
HETATM   13  C16 UNL     1      24.149   1.477  51.488  1.00  0.00     0.063 C 
ENDROOT
BRANCH   1  14
HETATM   14  N3  UNL     1      25.093   3.649  51.615  1.00  0.00    -0.313 N 
HETATM   15  C5  UNL     1      25.999   3.853  50.539  1.00  0.00     0.324 C 
HETATM   16  N2  UNL     1      25.964   5.159  49.970  1.00  0.00    -0.319 N 
HETATM   17  O1  UNL     1      26.786   2.999  50.085  1.00  0.00    -0.247 OA
HETATM   18  H9  UNL     1      25.353   5.956  50.258  1.00  0.00     0.170 HD
HETATM   19  H10 UNL     1      24.443   4.411  51.970  1.00  0.00     0.170 HD
BRANCH  16  20
HETATM   20  C4  UNL     1      26.655   5.802  48.926  1.00  0.00     0.090 C 
HETATM   21  C3  UNL     1      26.981   7.081  48.753  1.00  0.00     0.020 C 
BRANCH  21  22
HETATM   22  C2  UNL     1      27.723   7.485  47.542  1.00  0.00     0.297 C 
BRANCH  22  23
HETATM   23  N1  UNL     1      29.088   6.980  47.669  1.00  0.00     0.082 N 
HETATM   24  C1  UNL     1      29.800   7.871  48.568  1.00  0.00     0.307 C 
HETATM   25  H4  UNL     1      29.606   7.015  46.758  1.00  0.00     0.315 HD
ENDBRANCH  22  23
ENDBRANCH  21  22
ENDBRANCH  16  20
ENDBRANCH   1  14
BRANCH  11  26
HETATM   26  O2  UNL     1      22.073  -0.903  53.208  1.00  0.00    -0.365 OA
HETATM   27  H15 UNL     1      21.159  -0.527  53.419  1.00  0.00     0.217 HD
ENDBRANCH  11  26
TORSDOF 5
ENDMDL
MODEL 2
REMARK VINA RESULT:      -7.5      2.038      3.966
REMARK  5 active torsions:
REMARK  status: ('A' for Active; 'I' for Inactive)
REMARK    1  A    between atoms: N1_2  and  C2_3 
REMARK    2  A    between atoms: C2_3  and  C3_4 
REMARK    3  A    between atoms: C4_5  and  N2_6 
REMARK       I    between atoms: N2_6  and  C5_7 
REMARK       I    between atoms: C5_7  and  N3_9 
REMARK    4  A    between atoms: N3_9  and  C6_10 
REMARK    5  A    between atoms: C14_20  and  O2_21 
ROOT
HETATM    1  C6  UNL     1      24.853   2.344  52.567  1.00  0.00     0.011 C 
HETATM    2  C7  UNL     1      24.040   1.425  52.070  1.00  0.00     0.014 C 
HETATM    3  C8  UNL     1      23.531   0.077  52.384  1.00  0.00     0.107 A 
HETATM    4  C9  UNL     1      22.079  -0.031  52.536  1.00  0.00     0.053 A 
HETATM    5  C10 UNL     1      20.991   0.277  51.652  1.00  0.00     0.097 C 
HETATM    6  N4  UNL     1      20.119   0.516  50.930  1.00  0.00    -0.192 NA
HETATM    7  C11 UNL     1      21.842  -0.514  53.764  1.00  0.00     0.136 A 
HETATM    8  N5  UNL     1      23.041  -0.762  54.514  1.00  0.00    -0.263 NA
HETATM    9  C12 UNL     1      24.021  -0.417  53.710  1.00  0.00     0.049 A 
HETATM   10  C13 UNL     1      25.355  -0.593  54.320  1.00  0.00     0.060 C 
HETATM   11  C14 UNL     1      26.461   0.175  54.298  1.00  0.00     0.045 C 
HETATM   12  C15 UNL     1      26.901   1.490  53.710  1.00  0.00     0.070 C 
HETATM   13  C16 UNL     1      25.695   2.429  53.779  1.00  0.00     0.063 C 
ENDROOT
BRANCH   1  14
HETATM   14  N3  UNL     1      24.985   3.536  51.805  1.00  0.00    -0.313 N 
HETATM   15  C5  UNL     1      26.013   3.574  50.823  1.00  0.00     0.324 C 
HETATM   16  N2  UNL     1      26.090   4.793  50.089  1.00  0.00    -0.319 N 
HETATM   17  O1  UNL     1      26.812   2.650  50.577  1.00  0.00    -0.247 OA
HETATM   18  H9  UNL     1      25.481   5.634  50.199  1.00  0.00     0.170 HD
HETATM   19  H10 UNL     1      24.329   4.353  51.981  1.00  0.00     0.170 HD
BRANCH  16  20
HETATM   20  C4  UNL     1      26.916   5.276  49.057  1.00  0.00     0.090 C 
HETATM   21  C3  UNL     1      27.263   6.517  48.725  1.00  0.00     0.020 C 
BRANCH  21  22
HETATM   22  C2  UNL     1      28.163   6.738  47.575  1.00  0.00     0.297 C 
BRANCH  22  23
HETATM   23  N1  UNL     1      29.518   6.895  48.096  1.00  0.00     0.082 N 
HETATM   24  C1  UNL     1      29.609   8.220  48.683  1.00  0.00     0.307 C 
HETATM   25  H4  UNL     1      30.238   6.867  47.334  1.00  0.00     0.315 HD
ENDBRANCH  22  23
ENDBRANCH  21  22
ENDBRANCH  16  20
ENDBRANCH   1  14
BRANCH  11  26
HETATM   26  O2  UNL     1      27.470  -0.436  55.035  1.00  0.00    -0.365 OA
HETATM   27  H15 UNL     1      27.590  -0.231  56.017  1.00  0.00     0.217 HD
ENDBRANCH  11  26
TORSDOF 5
ENDMDL
MODEL 3
REMARK VINA RESULT:      -7.5      4.250      7.050
REMARK  5 active torsions:
REMARK  status: ('A' for Active; 'I' for Inactive)
REMARK    1  A    between atoms: N1_2  and  C2_3 
REMARK    2  A    between atoms: C2_3  and  C3_4 
REMARK    3  A    between atoms: C4_5  and  N2_6 
REMARK       I    between atoms: N2_6  and  C5_7 
REMARK       I    between atoms: C5_7  and  N3_9 
REMARK    4  A    between atoms: N3_9  and  C6_10 
REMARK    5  A    between atoms: C14_20  and  O2_21 
ROOT
HETATM    1  C6  UNL     1      22.452   0.637  52.192  1.00  0.00     0.011 C 
HETATM    2  C7  UNL     1      23.558   1.351  52.330  1.00  0.00     0.014 C 
HETATM    3  C8  UNL     1      24.887   1.266  52.964  1.00  0.00     0.107 A 
HETATM    4  C9  UNL     1      26.029   1.361  52.052  1.00  0.00     0.053 A 
HETATM    5  C10 UNL     1      26.435   2.371  51.116  1.00  0.00     0.097 C 
HETATM    6  N4  UNL     1      26.764   3.193  50.372  1.00  0.00    -0.192 NA
HETATM    7  C11 UNL     1      26.755   0.244  52.207  1.00  0.00     0.136 A 
HETATM    8  N5  UNL     1      26.203  -0.658  53.179  1.00  0.00    -0.263 NA
HETATM    9  C12 UNL     1      25.117  -0.061  53.616  1.00  0.00     0.049 A 
HETATM   10  C13 UNL     1      24.394  -0.856  54.631  1.00  0.00     0.060 C 
HETATM   11  C14 UNL     1      23.082  -1.092  54.819  1.00  0.00     0.045 C 
HETATM   12  C15 UNL     1      21.772  -0.723  54.172  1.00  0.00     0.070 C 
HETATM   13  C16 UNL     1      22.020  -0.696  52.662  1.00  0.00     0.063 C 
ENDROOT
BRANCH   1  14
HETATM   14  N3  UNL     1      21.413   1.239  51.432  1.00  0.00    -0.313 N 
HETATM   15  C5  UNL     1      20.479   2.053  52.129  1.00  0.00     0.324 C 
HETATM   16  N2  UNL     1      19.467   2.632  51.310  1.00  0.00    -0.319 N 
HETATM   17  O1  UNL     1      20.492   2.280  53.354  1.00  0.00    -0.247 OA
HETATM   18  H9  UNL     1      19.350   2.520  50.279  1.00  0.00     0.170 HD
HETATM   19  H10 UNL     1      21.358   1.071  50.383  1.00  0.00     0.170 HD
BRANCH  16  20
HETATM   20  C4  UNL     1      18.366   3.477  51.548  1.00  0.00     0.090 C 
HETATM   21  C3  UNL     1      17.061   3.218  51.587  1.00  0.00     0.020 C 
BRANCH  21  22
HETATM   22  C2  UNL     1      16.110   4.314  51.865  1.00  0.00     0.297 C 
BRANCH  22  23
HETATM   23  N1  UNL     1      14.864   3.713  52.330  1.00  0.00     0.082 N 
HETATM   24  C1  UNL     1      14.503   4.366  53.576  1.00  0.00     0.307 C 
HETATM   25  H4  UNL     1      14.980   2.697  52.561  1.00  0.00     0.315 HD
ENDBRANCH  22  23
ENDBRANCH  21  22
ENDBRANCH  16  20
ENDBRANCH   1  14
BRANCH  11  26
HETATM   26  O2  UNL     1      22.908  -1.912  55.929  1.00  0.00    -0.365 OA
HETATM   27  H15 UNL     1      22.242  -1.672  56.650  1.00  0.00     0.217 HD
ENDBRANCH  11  26
TORSDOF 5
ENDMDL
MODEL 4
REMARK VINA RESULT:      -7.1      4.189      8.473
REMARK  5 active torsions:
REMARK  status: ('A' for Active; 'I' for Inactive)
REMARK    1  A    between atoms: N1_2  and  C2_3 
REMARK    2  A    between atoms: C2_3  and  C3_4 
REMARK    3  A    between atoms: C4_5  and  N2_6 
REMARK       I    between atoms: N2_6  and  C5_7 
REMARK       I    between atoms: C5_7  and  N3_9 
REMARK    4  A    between atoms: N3_9  and  C6_10 
REMARK    5  A    between atoms: C14_20  and  O2_21 
ROOT
HETATM    1  C6  UNL     1      23.613   0.610  53.386  1.00  0.00     0.011 C 
HETATM    2  C7  UNL     1      23.856   1.872  53.069  1.00  0.00     0.014 C 
HETATM    3  C8  UNL     1      24.950   2.719  52.558  1.00  0.00     0.107 A 
HETATM    4  C9  UNL     1      24.676   3.410  51.296  1.00  0.00     0.053 A 
HETATM    5  C10 UNL     1      23.651   4.334  50.904  1.00  0.00     0.097 C 
HETATM    6  N4  UNL     1      22.828   5.087  50.597  1.00  0.00    -0.192 NA
HETATM    7  C11 UNL     1      25.621   3.030  50.422  1.00  0.00     0.136 A 
HETATM    8  N5  UNL     1      26.564   2.101  50.979  1.00  0.00    -0.263 NA
HETATM    9  C12 UNL     1      26.170   1.921  52.220  1.00  0.00     0.049 A 
HETATM   10  C13 UNL     1      27.025   0.971  52.962  1.00  0.00     0.060 C 
HETATM   11  C14 UNL     1      26.727  -0.017  53.826  1.00  0.00     0.045 C 
HETATM   12  C15 UNL     1      25.499  -0.636  54.443  1.00  0.00     0.070 C 
HETATM   13  C16 UNL     1      24.415  -0.631  53.363  1.00  0.00     0.063 C 
ENDROOT
BRANCH   1  14
HETATM   14  N3  UNL     1      22.303   0.328  53.860  1.00  0.00    -0.313 N 
HETATM   15  C5  UNL     1      21.316  -0.009  52.894  1.00  0.00     0.324 C 
HETATM   16  N2  UNL     1      20.027  -0.287  53.432  1.00  0.00    -0.319 N 
HETATM   17  O1  UNL     1      21.501  -0.072  51.663  1.00  0.00    -0.247 OA
HETATM   18  H9  UNL     1      19.747  -0.270  54.438  1.00  0.00     0.170 HD
HETATM   19  H10 UNL     1      22.096   0.372  54.901  1.00  0.00     0.170 HD
BRANCH  16  20
HETATM   20  C4  UNL     1      18.782  -0.649  52.882  1.00  0.00     0.090 C 
HETATM   21  C3  UNL     1      17.890  -1.559  53.267  1.00  0.00     0.020 C 
BRANCH  21  22
HETATM   22  C2  UNL     1      16.645  -1.730  52.491  1.00  0.00     0.297 C 
BRANCH  22  23
HETATM   23  N1  UNL     1      15.809  -2.693  53.203  1.00  0.00     0.082 N 
HETATM   24  C1  UNL     1      16.547  -3.942  53.275  1.00  0.00     0.307 C 
HETATM   25  H4  UNL     1      14.927  -2.910  52.679  1.00  0.00     0.315 HD
ENDBRANCH  22  23
ENDBRANCH  21  22
ENDBRANCH  16  20
ENDBRANCH   1  14
BRANCH  11  26
HETATM   26  O2  UNL     1      27.899  -0.630  54.258  1.00  0.00    -0.365 OA
HETATM   27  H15 UNL     1      28.559  -1.011  53.594  1.00  0.00     0.217 HD
ENDBRANCH  11  26
TORSDOF 5
ENDMDL
MODEL 5
REMARK VINA RESULT:      -7.0      3.921      5.742
REMARK  5 active torsions:
REMARK  status: ('A' for Active; 'I' for Inactive)
REMARK    1  A    between atoms: N1_2  and  C2_3 
REMARK    2  A    between atoms: C2_3  and  C3_4 
REMARK    3  A    between atoms: C4_5  and  N2_6 
REMARK       I    between atoms: N2_6  and  C5_7 
REMARK       I    between atoms: C5_7  and  N3_9 
REMARK    4  A    between atoms: N3_9  and  C6_10 
REMARK    5  A    between atoms: C14_20  and  O2_21 
ROOT
HETATM    1  C6  UNL     1      22.476   1.049  52.754  1.00  0.00     0.011 C 
HETATM    2  C7  UNL     1      23.694   1.568  52.784  1.00  0.00     0.014 C 
HETATM    3  C8  UNL     1      25.070   1.201  53.165  1.00  0.00     0.107 A 
HETATM    4  C9  UNL     1      26.061   1.259  52.087  1.00  0.00     0.053 A 
HETATM    5  C10 UNL     1      26.483   2.323  51.222  1.00  0.00     0.097 C 
HETATM    6  N4  UNL     1      26.827   3.188  50.535  1.00  0.00    -0.192 NA
HETATM    7  C11 UNL     1      26.606   0.039  51.982  1.00  0.00     0.136 A 
HETATM    8  N5  UNL     1      26.065  -0.904  52.920  1.00  0.00    -0.263 NA
HETATM    9  C12 UNL     1      25.172  -0.226  53.606  1.00  0.00     0.049 A 
HETATM   10  C13 UNL     1      24.490  -1.045  54.629  1.00  0.00     0.060 C 
HETATM   11  C14 UNL     1      23.200  -1.113  55.011  1.00  0.00     0.045 C 
HETATM   12  C15 UNL     1      21.887  -0.469  54.647  1.00  0.00     0.070 C 
HETATM   13  C16 UNL     1      21.905  -0.261  53.131  1.00  0.00     0.063 C 
ENDROOT
BRANCH   1  14
HETATM   14  N3  UNL     1      21.449   1.898  52.261  1.00  0.00    -0.313 N 
HETATM   15  C5  UNL     1      21.136   1.810  50.877  1.00  0.00     0.324 C 
HETATM   16  N2  UNL     1      20.094   2.680  50.445  1.00  0.00    -0.319 N 
HETATM   17  O1  UNL     1      21.693   1.054  50.057  1.00  0.00    -0.247 OA
HETATM   18  H9  UNL     1      19.553   3.355  51.031  1.00  0.00     0.170 HD
HETATM   19  H10 UNL     1      20.947   2.562  52.921  1.00  0.00     0.170 HD
BRANCH  16  20
HETATM   20  C4  UNL     1      19.467   2.937  49.211  1.00  0.00     0.090 C 
HETATM   21  C3  UNL     1      18.504   3.794  48.884  1.00  0.00     0.020 C 
BRANCH  21  22
HETATM   22  C2  UNL     1      18.028   3.856  47.487  1.00  0.00     0.297 C 
BRANCH  22  23
HETATM   23  N1  UNL     1      18.704   2.797  46.741  1.00  0.00     0.082 N 
HETATM   24  C1  UNL     1      18.717   3.189  45.343  1.00  0.00     0.307 C 
HETATM   25  H4  UNL     1      18.178   1.891  46.782  1.00  0.00     0.315 HD
ENDBRANCH  22  23
ENDBRANCH  21  22
ENDBRANCH  16  20
ENDBRANCH   1  14
BRANCH  11  26
HETATM   26  O2  UNL     1      23.062  -2.050  56.029  1.00  0.00    -0.365 OA
HETATM   27  H15 UNL     1      23.711  -2.072  56.803  1.00  0.00     0.217 HD
ENDBRANCH  11  26
TORSDOF 5
ENDMDL
MODEL 6
REMARK VINA RESULT:      -7.0      4.223      7.268
REMARK  5 active torsions:
REMARK  status: ('A' for Active; 'I' for Inactive)
REMARK    1  A    between atoms: N1_2  and  C2_3 
REMARK    2  A    between atoms: C2_3  and  C3_4 
REMARK    3  A    between atoms: C4_5  and  N2_6 
REMARK       I    between atoms: N2_6  and  C5_7 
REMARK       I    between atoms: C5_7  and  N3_9 
REMARK    4  A    between atoms: N3_9  and  C6_10 
REMARK    5  A    between atoms: C14_20  and  O2_21 
ROOT
HETATM    1  C6  UNL     1      21.475  -0.341  52.710  1.00  0.00     0.011 C 
HETATM    2  C7  UNL     1      21.353   0.016  51.440  1.00  0.00     0.014 C 
HETATM    3  C8  UNL     1      20.354   0.585  50.517  1.00  0.00     0.107 A 
HETATM    4  C9  UNL     1      20.726   1.854  49.889  1.00  0.00     0.053 A 
HETATM    5  C10 UNL     1      21.840   2.234  49.068  1.00  0.00     0.097 C 
HETATM    6  N4  UNL     1      22.735   2.532  48.398  1.00  0.00    -0.192 NA
HETATM    7  C11 UNL     1      19.780   2.749  50.210  1.00  0.00     0.136 A 
HETATM    8  N5  UNL     1      18.743   2.201  51.038  1.00  0.00    -0.263 NA
HETATM    9  C12 UNL     1      19.080   0.944  51.216  1.00  0.00     0.049 A 
HETATM   10  C13 UNL     1      18.122   0.207  52.067  1.00  0.00     0.060 C 
HETATM   11  C14 UNL     1      18.305  -0.691  53.053  1.00  0.00     0.045 C 
HETATM   12  C15 UNL     1      19.454  -1.365  53.758  1.00  0.00     0.070 C 
HETATM   13  C16 UNL     1      20.568  -0.323  53.877  1.00  0.00     0.063 C 
ENDROOT
BRANCH   1  14
HETATM   14  N3  UNL     1      22.739  -0.867  53.090  1.00  0.00    -0.313 N 
HETATM   15  C5  UNL     1      23.800   0.059  53.288  1.00  0.00     0.324 C 
HETATM   16  N2  UNL     1      25.039  -0.529  53.675  1.00  0.00    -0.319 N 
HETATM   17  O1  UNL     1      23.715   1.295  53.149  1.00  0.00    -0.247 OA
HETATM   18  H9  UNL     1      25.236  -1.543  53.824  1.00  0.00     0.170 HD
HETATM   19  H10 UNL     1      22.861  -1.915  53.218  1.00  0.00     0.170 HD
BRANCH  16  20
HETATM   20  C4  UNL     1      26.321  -0.029  53.969  1.00  0.00     0.090 C 
HETATM   21  C3  UNL     1      27.223   0.569  53.194  1.00  0.00     0.020 C 
BRANCH  21  22
HETATM   22  C2  UNL     1      28.511   1.001  53.776  1.00  0.00     0.297 C 
BRANCH  22  23
HETATM   23  N1  UNL     1      29.035  -0.110  54.565  1.00  0.00     0.082 N 
HETATM   24  C1  UNL     1      29.910  -0.884  53.701  1.00  0.00     0.307 C 
HETATM   25  H4  UNL     1      28.278  -0.767  54.871  1.00  0.00     0.315 HD
ENDBRANCH  22  23
ENDBRANCH  21  22
ENDBRANCH  16  20
ENDBRANCH   1  14
BRANCH  11  26
HETATM   26  O2  UNL     1      17.072  -1.099  53.549  1.00  0.00    -0.365 OA
HETATM   27  H15 UNL     1      16.268  -1.174  52.941  1.00  0.00     0.217 HD
ENDBRANCH  11  26
TORSDOF 5
ENDMDL
MODEL 7
REMARK VINA RESULT:      -6.8      2.565      3.103
REMARK  5 active torsions:
REMARK  status: ('A' for Active; 'I' for Inactive)
REMARK    1  A    between atoms: N1_2  and  C2_3 
REMARK    2  A    between atoms: C2_3  and  C3_4 
REMARK    3  A    between atoms: C4_5  and  N2_6 
REMARK       I    between atoms: N2_6  and  C5_7 
REMARK       I    between atoms: C5_7  and  N3_9 
REMARK    4  A    between atoms: N3_9  and  C6_10 
REMARK    5  A    between atoms: C14_20  and  O2_21 
ROOT
HETATM    1  C6  UNL     1      23.464   4.809  52.038  1.00  0.00     0.011 C 
HETATM    2  C7  UNL     1      24.119   4.028  52.883  1.00  0.00     0.014 C 
HETATM    3  C8  UNL     1      24.128   2.633  53.359  1.00  0.00     0.107 A 
HETATM    4  C9  UNL     1      25.376   1.899  53.139  1.00  0.00     0.053 A 
HETATM    5  C10 UNL     1      26.727   2.148  53.553  1.00  0.00     0.097 C 
HETATM    6  N4  UNL     1      27.813   2.348  53.900  1.00  0.00    -0.192 NA
HETATM    7  C11 UNL     1      25.077   0.817  52.405  1.00  0.00     0.136 A 
HETATM    8  N5  UNL     1      23.682   0.726  52.076  1.00  0.00    -0.263 NA
HETATM    9  C12 UNL     1      23.134   1.782  52.631  1.00  0.00     0.049 A 
HETATM   10  C13 UNL     1      21.678   1.869  52.389  1.00  0.00     0.060 C 
HETATM   11  C14 UNL     1      20.880   2.909  52.081  1.00  0.00     0.045 C 
HETATM   12  C15 UNL     1      21.011   4.390  51.839  1.00  0.00     0.070 C 
HETATM   13  C16 UNL     1      22.337   4.600  51.105  1.00  0.00     0.063 C 
ENDROOT
BRANCH   1  14
HETATM   14  N3  UNL     1      23.898   6.160  51.973  1.00  0.00    -0.313 N 
HETATM   15  C5  UNL     1      24.756   6.521  50.898  1.00  0.00     0.324 C 
HETATM   16  N2  UNL     1      25.150   7.890  50.885  1.00  0.00    -0.319 N 
HETATM   17  O1  UNL     1      25.164   5.749  50.009  1.00  0.00    -0.247 OA
HETATM   18  H9  UNL     1      24.876   8.632  51.567  1.00  0.00     0.170 HD
HETATM   19  H10 UNL     1      23.579   6.855  52.711  1.00  0.00     0.170 HD
BRANCH  16  20
HETATM   20  C4  UNL     1      25.963   8.677  50.047  1.00  0.00     0.090 C 
HETATM   21  C3  UNL     1      27.184   9.172  50.233  1.00  0.00     0.020 C 
BRANCH  21  22
HETATM   22  C2  UNL     1      27.813   9.978  49.166  1.00  0.00     0.297 C 
BRANCH  22  23
HETATM   23  N1  UNL     1      28.573   9.068  48.313  1.00  0.00     0.082 N 
HETATM   24  C1  UNL     1      29.754   8.662  49.053  1.00  0.00     0.307 C 
HETATM   25  H4  UNL     1      28.924   9.543  47.447  1.00  0.00     0.315 HD
ENDBRANCH  22  23
ENDBRANCH  21  22
ENDBRANCH  16  20
ENDBRANCH   1  14
BRANCH  11  26
HETATM   26  O2  UNL     1      19.567   2.469  51.954  1.00  0.00    -0.365 OA
HETATM   27  H15 UNL     1      18.794   3.068  52.209  1.00  0.00     0.217 HD
ENDBRANCH  11  26
TORSDOF 5
ENDMDL
MODEL 8
REMARK VINA RESULT:      -6.7      2.324      4.476
REMARK  5 active torsions:
REMARK  status: ('A' for Active; 'I' for Inactive)
REMARK    1  A    between atoms: N1_2  and  C2_3 
REMARK    2  A    between atoms: C2_3  and  C3_4 
REMARK    3  A    between atoms: C4_5  and  N2_6 
REMARK       I    between atoms: N2_6  and  C5_7 
REMARK       I    between atoms: C5_7  and  N3_9 
REMARK    4  A    between atoms: N3_9  and  C6_10 
REMARK    5  A    between atoms: C14_20  and  O2_21 
ROOT
HETATM    1  C6  UNL     1      24.208   2.915  51.712  1.00  0.00     0.011 C 
HETATM    2  C7  UNL     1      23.368   2.219  50.962  1.00  0.00     0.014 C 
HETATM    3  C8  UNL     1      22.538   1.002  51.024  1.00  0.00     0.107 A 
HETATM    4  C9  UNL     1      21.100   1.208  50.838  1.00  0.00     0.053 A 
HETATM    5  C10 UNL     1      20.339   1.786  49.767  1.00  0.00     0.097 C 
HETATM    6  N4  UNL     1      19.731   2.242  48.895  1.00  0.00    -0.192 NA
HETATM    7  C11 UNL     1      20.485   0.733  51.931  1.00  0.00     0.136 A 
HETATM    8  N5  UNL     1      21.396   0.195  52.902  1.00  0.00    -0.263 NA
HETATM    9  C12 UNL     1      22.588   0.354  52.373  1.00  0.00     0.049 A 
HETATM   10  C13 UNL     1      23.675  -0.137  53.246  1.00  0.00     0.060 C 
HETATM   11  C14 UNL     1      24.885   0.371  53.544  1.00  0.00     0.045 C 
HETATM   12  C15 UNL     1      25.709   1.584  53.197  1.00  0.00     0.070 C 
HETATM   13  C16 UNL     1      24.736   2.759  53.084  1.00  0.00     0.063 C 
ENDROOT
BRANCH   1  14
HETATM   14  N3  UNL     1      24.756   4.083  51.116  1.00  0.00    -0.313 N 
HETATM   15  C5  UNL     1      25.878   3.916  50.260  1.00  0.00     0.324 C 
HETATM   16  N2  UNL     1      26.377   5.122  49.688  1.00  0.00    -0.319 N 
HETATM   17  O1  UNL     1      26.428   2.829  49.993  1.00  0.00    -0.247 OA
HETATM   18  H9  UNL     1      26.006   6.087  49.832  1.00  0.00     0.170 HD
HETATM   19  H10 UNL     1      24.323   5.033  51.316  1.00  0.00     0.170 HD
BRANCH  16  20
HETATM   20  C4  UNL     1      27.434   5.439  48.815  1.00  0.00     0.090 C 
HETATM   21  C3  UNL     1      27.922   6.615  48.427  1.00  0.00     0.020 C 
BRANCH  21  22
HETATM   22  C2  UNL     1      29.059   6.657  47.485  1.00  0.00     0.297 C 
BRANCH  22  23
HETATM   23  N1  UNL     1      30.120   7.444  48.106  1.00  0.00     0.082 N 
HETATM   24  C1  UNL     1      29.491   8.555  48.799  1.00  0.00     0.307 C 
HETATM   25  H4  UNL     1      30.759   7.874  47.394  1.00  0.00     0.315 HD
ENDBRANCH  22  23
ENDBRANCH  21  22
ENDBRANCH  16  20
ENDBRANCH   1  14
BRANCH  11  26
HETATM   26  O2  UNL     1      25.545  -0.478  54.426  1.00  0.00    -0.365 OA
HETATM   27  H15 UNL     1      25.082  -1.293  54.804  1.00  0.00     0.217 HD
ENDBRANCH  11  26
TORSDOF 5
ENDMDL
MODEL 9
REMARK VINA RESULT:      -6.7      5.939     11.078
REMARK  5 active torsions:
REMARK  status: ('A' for Active; 'I' for Inactive)
REMARK    1  A    between atoms: N1_2  and  C2_3 
REMARK    2  A    between atoms: C2_3  and  C3_4 
REMARK    3  A    between atoms: C4_5  and  N2_6 
REMARK       I    between atoms: N2_6  and  C5_7 
REMARK       I    between atoms: C5_7  and  N3_9 
REMARK    4  A    between atoms: N3_9  and  C6_10 
REMARK    5  A    between atoms: C14_20  and  O2_21 
ROOT
HETATM    1  C6  UNL     1      31.091  10.127  48.812  1.00  0.00     0.011 C 
HETATM    2  C7  UNL     1      31.671   9.062  48.281  1.00  0.00     0.014 C 
HETATM    3  C8  UNL     1      32.671   8.713  47.255  1.00  0.00     0.107 A 
HETATM    4  C9  UNL     1      33.842   7.977  47.740  1.00  0.00     0.053 A 
HETATM    5  C10 UNL     1      33.977   6.728  48.433  1.00  0.00     0.097 C 
HETATM    6  N4  UNL     1      34.081   5.714  48.981  1.00  0.00    -0.192 NA
HETATM    7  C11 UNL     1      34.926   8.700  47.421  1.00  0.00     0.136 A 
HETATM    8  N5  UNL     1      34.608   9.921  46.735  1.00  0.00    -0.263 NA
HETATM    9  C12 UNL     1      33.297   9.926  46.641  1.00  0.00     0.049 A 
HETATM   10  C13 UNL     1      32.774  11.130  45.964  1.00  0.00     0.060 C 
HETATM   11  C14 UNL     1      31.715  11.919  46.227  1.00  0.00     0.045 C 
HETATM   12  C15 UNL     1      30.605  12.006  47.243  1.00  0.00     0.070 C 
HETATM   13  C16 UNL     1      31.205  11.583  48.585  1.00  0.00     0.063 C 
ENDROOT
BRANCH   1  14
HETATM   14  N3  UNL     1      30.136   9.872  49.834  1.00  0.00    -0.313 N 
HETATM   15  C5  UNL     1      28.832   9.481  49.427  1.00  0.00     0.324 C 
HETATM   16  N2  UNL     1      27.924   9.234  50.496  1.00  0.00    -0.319 N 
HETATM   17  O1  UNL     1      28.453   9.347  48.247  1.00  0.00    -0.247 OA
HETATM   18  H9  UNL     1      28.119   9.309  51.519  1.00  0.00     0.170 HD
HETATM   19  H10 UNL     1      30.412   9.976  50.855  1.00  0.00     0.170 HD
BRANCH  16  20
HETATM   20  C4  UNL     1      26.574   8.841  50.577  1.00  0.00     0.090 C 
HETATM   21  C3  UNL     1      25.971   7.713  50.210  1.00  0.00     0.020 C 
BRANCH  21  22
HETATM   22  C2  UNL     1      24.515   7.566  50.416  1.00  0.00     0.297 C 
BRANCH  22  23
HETATM   23  N1  UNL     1      24.311   7.004  51.748  1.00  0.00     0.082 N 
HETATM   24  C1  UNL     1      23.692   5.701  51.581  1.00  0.00     0.307 C 
HETATM   25  H4  UNL     1      23.637   7.573  52.315  1.00  0.00     0.315 HD
ENDBRANCH  22  23
ENDBRANCH  21  22
ENDBRANCH  16  20
ENDBRANCH   1  14
BRANCH  11  26
HETATM   26  O2  UNL     1      31.645  12.939  45.283  1.00  0.00    -0.365 OA
HETATM   27  H15 UNL     1      30.885  12.977  44.618  1.00  0.00     0.217 HD
ENDBRANCH  11  26
TORSDOF 5
ENDMDL
