MODEL 1
REMARK VINA RESULT:      -8.2      0.000      0.000
REMARK  4 active torsions:
REMARK  status: ('A' for Active; 'I' for Inactive)
REMARK    1  A    between atoms: C13_16  and  O1_17 
REMARK    2  A    between atoms: O1_17  and  C14_18 
REMARK    3  A    between atoms: C14_18  and  C15_19 
REMARK    4  A    between atoms: C15_19  and  O2_20 
ROOT
HETATM    1  C1  UNL     1      26.301   3.366  49.333  1.00  0.00     0.012 C 
HETATM    2  C2  UNL     1      25.257   3.195  49.973  1.00  0.00    -0.109 C 
HETATM    3  C3  UNL     1      24.019   2.999  50.762  1.00  0.00     0.039 C 
HETATM    4  C4  UNL     1      23.361   2.456  49.665  1.00  0.00     0.091 C 
HETATM    5  C5  UNL     1      22.005   1.922  49.507  1.00  0.00    -0.018 C 
HETATM    6  C6  UNL     1      20.767   1.559  49.900  1.00  0.00     0.021 C 
HETATM    7  C7  UNL     1      20.049   1.565  51.144  1.00  0.00     0.011 C 
HETATM    8  C8  UNL     1      18.813   1.193  51.346  1.00  0.00     0.063 C 
HETATM    9  N1  UNL     1      20.229   1.815  52.525  1.00  0.00    -0.344 N 
HETATM   10  C9  UNL     1      20.821   0.619  53.101  1.00  0.00     0.141 A 
HETATM   11  N2  UNL     1      20.077  -0.457  53.361  1.00  0.00    -0.224 NA
HETATM   12  C10 UNL     1      20.644  -1.596  53.864  1.00  0.00     0.236 A 
HETATM   13  N3  UNL     1      21.977  -1.685  54.119  1.00  0.00    -0.241 NA
HETATM   14  C11 UNL     1      22.749  -0.618  53.868  1.00  0.00     0.075 A 
HETATM   15  C12 UNL     1      24.107  -0.621  54.088  1.00  0.00     0.072 A 
HETATM   16  C13 UNL     1      25.002   0.396  53.866  1.00  0.00     0.104 A 
HETATM   17  C17 UNL     1      24.440   1.587  53.349  1.00  0.00     0.103 A 
HETATM   18  C18 UNL     1      23.043   1.519  53.149  1.00  0.00     0.057 A 
HETATM   19  C19 UNL     1      22.151   0.507  53.367  1.00  0.00     0.042 A 
HETATM   20  O3  UNL     1      25.000   2.836  52.993  1.00  0.00    -0.347 OA
HETATM   21  C20 UNL     1      24.230   3.616  52.117  1.00  0.00     0.194 C 
HETATM   22  H7  UNL     1      20.212   2.307  53.412  1.00  0.00     0.167 HD
ENDROOT
BRANCH  16  23
HETATM   23  O1  UNL     1      26.264   0.695  53.959  1.00  0.00    -0.346 OA
BRANCH  23  24
HETATM   24  C14 UNL     1      27.488   0.169  53.846  1.00  0.00     0.201 C 
BRANCH  24  25
HETATM   25  C15 UNL     1      27.622  -1.097  53.041  1.00  0.00     0.193 C 
BRANCH  25  26
HETATM   26  O2  UNL     1      28.714  -1.858  53.360  1.00  0.00    -0.394 OA
HETATM   27  C16 UNL     1      29.796  -1.063  53.685  1.00  0.00     0.201 C 
ENDBRANCH  25  26
ENDBRANCH  24  25
ENDBRANCH  23  24
ENDBRANCH  16  23
TORSDOF 4
ENDMDL
MODEL 2
REMARK VINA RESULT:      -8.1      2.930      5.693
REMARK  4 active torsions:
REMARK  status: ('A' for Active; 'I' for Inactive)
REMARK    1  A    between atoms: C13_16  and  O1_17 
REMARK    2  A    between atoms: O1_17  and  C14_18 
REMARK    3  A    between atoms: C14_18  and  C15_19 
REMARK    4  A    between atoms: C15_19  and  O2_20 
ROOT
HETATM    1  C1  UNL     1      26.787  -0.557  51.998  1.00  0.00     0.012 C 
HETATM    2  C2  UNL     1      26.431   0.626  51.960  1.00  0.00    -0.109 C 
HETATM    3  C3  UNL     1      25.993   2.040  51.938  1.00  0.00     0.039 C 
HETATM    4  C4  UNL     1      26.533   2.227  50.670  1.00  0.00     0.091 C 
HETATM    5  C5  UNL     1      26.558   3.394  49.783  1.00  0.00    -0.018 C 
HETATM    6  C6  UNL     1      26.286   4.657  49.396  1.00  0.00     0.021 C 
HETATM    7  C7  UNL     1      25.557   5.760  49.954  1.00  0.00     0.011 C 
HETATM    8  C8  UNL     1      25.412   6.954  49.442  1.00  0.00     0.063 C 
HETATM    9  N1  UNL     1      24.714   6.094  51.041  1.00  0.00    -0.344 N 
HETATM   10  C9  UNL     1      23.376   5.643  50.697  1.00  0.00     0.141 A 
HETATM   11  N2  UNL     1      22.614   6.338  49.852  1.00  0.00    -0.224 NA
HETATM   12  C10 UNL     1      21.371   5.889  49.498  1.00  0.00     0.236 A 
HETATM   13  N3  UNL     1      20.859   4.726  49.983  1.00  0.00    -0.241 NA
HETATM   14  C11 UNL     1      21.604   4.006  50.835  1.00  0.00     0.075 A 
HETATM   15  C12 UNL     1      21.170   2.815  51.369  1.00  0.00     0.072 A 
HETATM   16  C13 UNL     1      21.835   1.987  52.239  1.00  0.00     0.104 A 
HETATM   17  C17 UNL     1      23.122   2.431  52.625  1.00  0.00     0.103 A 
HETATM   18  C18 UNL     1      23.501   3.660  52.040  1.00  0.00     0.057 A 
HETATM   19  C19 UNL     1      22.843   4.484  51.171  1.00  0.00     0.042 A 
HETATM   20  O3  UNL     1      24.107   1.888  53.483  1.00  0.00    -0.347 OA
HETATM   21  C20 UNL     1      25.411   2.367  53.285  1.00  0.00     0.194 C 
HETATM   22  H7  UNL     1      24.424   6.460  51.942  1.00  0.00     0.167 HD
ENDROOT
BRANCH  16  23
HETATM   23  O1  UNL     1      21.716   0.866  52.887  1.00  0.00    -0.346 OA
BRANCH  23  24
HETATM   24  C14 UNL     1      21.024   0.279  53.868  1.00  0.00     0.201 C 
BRANCH  24  25
HETATM   25  C15 UNL     1      21.167  -1.214  54.014  1.00  0.00     0.193 C 
BRANCH  25  26
HETATM   26  O2  UNL     1      21.662  -1.621  55.224  1.00  0.00    -0.394 OA
HETATM   27  C16 UNL     1      23.014  -1.356  55.321  1.00  0.00     0.201 C 
ENDBRANCH  25  26
ENDBRANCH  24  25
ENDBRANCH  23  24
ENDBRANCH  16  23
TORSDOF 4
ENDMDL
MODEL 3
REMARK VINA RESULT:      -8.0      3.206      6.330
REMARK  4 active torsions:
REMARK  status: ('A' for Active; 'I' for Inactive)
REMARK    1  A    between atoms: C13_16  and  O1_17 
REMARK    2  A    between atoms: O1_17  and  C14_18 
REMARK    3  A    between atoms: C14_18  and  C15_19 
REMARK    4  A    between atoms: C15_19  and  O2_20 
ROOT
HETATM    1  C1  UNL     1      20.027   4.351  51.119  1.00  0.00     0.012 C 
HETATM    2  C2  UNL     1      20.957   3.556  51.295  1.00  0.00    -0.109 C 
HETATM    3  C3  UNL     1      22.057   2.585  51.494  1.00  0.00     0.039 C 
HETATM    4  C4  UNL     1      22.781   3.502  52.249  1.00  0.00     0.091 C 
HETATM    5  C5  UNL     1      24.077   3.401  52.926  1.00  0.00    -0.018 C 
HETATM    6  C6  UNL     1      25.207   2.796  53.346  1.00  0.00     0.021 C 
HETATM    7  C7  UNL     1      25.761   1.477  53.232  1.00  0.00     0.011 C 
HETATM    8  C8  UNL     1      26.912   1.059  53.689  1.00  0.00     0.063 C 
HETATM    9  N1  UNL     1      25.440   0.177  52.773  1.00  0.00    -0.344 N 
HETATM   10  C9  UNL     1      24.650  -0.460  53.813  1.00  0.00     0.141 A 
HETATM   11  N2  UNL     1      25.229  -0.956  54.907  1.00  0.00    -0.224 NA
HETATM   12  C10 UNL     1      24.478  -1.517  55.904  1.00  0.00     0.236 A 
HETATM   13  N3  UNL     1      23.123  -1.595  55.829  1.00  0.00    -0.241 NA
HETATM   14  C11 UNL     1      22.513  -1.104  54.739  1.00  0.00     0.075 A 
HETATM   15  C12 UNL     1      21.147  -1.133  54.581  1.00  0.00     0.072 A 
HETATM   16  C13 UNL     1      20.408  -0.660  53.525  1.00  0.00     0.104 A 
HETATM   17  C17 UNL     1      21.161  -0.078  52.479  1.00  0.00     0.103 A 
HETATM   18  C18 UNL     1      22.555  -0.084  52.707  1.00  0.00     0.057 A 
HETATM   19  C19 UNL     1      23.293  -0.551  53.759  1.00  0.00     0.042 A 
HETATM   20  O3  UNL     1      20.795   0.509  51.245  1.00  0.00    -0.347 OA
HETATM   21  C20 UNL     1      21.751   1.362  50.675  1.00  0.00     0.194 C 
HETATM   22  H7  UNL     1      25.402  -0.633  52.164  1.00  0.00     0.167 HD
ENDROOT
BRANCH  16  23
HETATM   23  O1  UNL     1      19.186  -0.539  53.097  1.00  0.00    -0.346 OA
BRANCH  23  24
HETATM   24  C14 UNL     1      17.980  -1.112  53.159  1.00  0.00     0.201 C 
BRANCH  24  25
HETATM   25  C15 UNL     1      16.952  -0.665  52.153  1.00  0.00     0.193 C 
BRANCH  25  26
HETATM   26  O2  UNL     1      16.935   0.685  51.922  1.00  0.00    -0.394 OA
HETATM   27  C16 UNL     1      15.645   1.177  51.951  1.00  0.00     0.201 C 
ENDBRANCH  25  26
ENDBRANCH  24  25
ENDBRANCH  23  24
ENDBRANCH  16  23
TORSDOF 4
ENDMDL
MODEL 4
REMARK VINA RESULT:      -7.6      2.899      5.054
REMARK  4 active torsions:
REMARK  status: ('A' for Active; 'I' for Inactive)
REMARK    1  A    between atoms: C13_16  and  O1_17 
REMARK    2  A    between atoms: O1_17  and  C14_18 
REMARK    3  A    between atoms: C14_18  and  C15_19 
REMARK    4  A    between atoms: C15_19  and  O2_20 
ROOT
HETATM    1  C1  UNL     1      21.906   4.005  46.556  1.00  0.00     0.012 C 
HETATM    2  C2  UNL     1      21.992   3.665  47.741  1.00  0.00    -0.109 C 
HETATM    3  C3  UNL     1      22.107   3.282  49.167  1.00  0.00     0.039 C 
HETATM    4  C4  UNL     1      21.562   2.028  48.913  1.00  0.00     0.091 C 
HETATM    5  C5  UNL     1      21.296   0.884  49.790  1.00  0.00    -0.018 C 
HETATM    6  C6  UNL     1      21.290   0.190  50.946  1.00  0.00     0.021 C 
HETATM    7  C7  UNL     1      21.746   0.434  52.286  1.00  0.00     0.011 C 
HETATM    8  C8  UNL     1      21.632  -0.359  53.318  1.00  0.00     0.063 C 
HETATM    9  N1  UNL     1      22.474   1.374  53.053  1.00  0.00    -0.344 N 
HETATM   10  C9  UNL     1      23.885   1.102  52.835  1.00  0.00     0.141 A 
HETATM   11  N2  UNL     1      24.490   0.084  53.450  1.00  0.00    -0.224 NA
HETATM   12  C10 UNL     1      25.807  -0.196  53.210  1.00  0.00     0.236 A 
HETATM   13  N3  UNL     1      26.554   0.539  52.344  1.00  0.00    -0.241 NA
HETATM   14  C11 UNL     1      25.972   1.569  51.711  1.00  0.00     0.075 A 
HETATM   15  C12 UNL     1      26.648   2.362  50.813  1.00  0.00     0.072 A 
HETATM   16  C13 UNL     1      26.167   3.432  50.100  1.00  0.00     0.104 A 
HETATM   17  C17 UNL     1      24.807   3.745  50.333  1.00  0.00     0.103 A 
HETATM   18  C18 UNL     1      24.177   2.892  51.266  1.00  0.00     0.057 A 
HETATM   19  C19 UNL     1      24.652   1.824  51.975  1.00  0.00     0.042 A 
HETATM   20  O3  UNL     1      23.951   4.746  49.817  1.00  0.00    -0.347 OA
HETATM   21  C20 UNL     1      22.578   4.486  49.935  1.00  0.00     0.194 C 
HETATM   22  H7  UNL     1      22.659   2.147  53.684  1.00  0.00     0.167 HD
ENDROOT
BRANCH  16  23
HETATM   23  O1  UNL     1      26.520   4.329  49.228  1.00  0.00    -0.346 OA
BRANCH  23  24
HETATM   24  C14 UNL     1      27.592   4.906  48.676  1.00  0.00     0.201 C 
BRANCH  24  25
HETATM   25  C15 UNL     1      27.467   6.354  48.279  1.00  0.00     0.193 C 
BRANCH  25  26
HETATM   26  O2  UNL     1      28.595   7.100  48.494  1.00  0.00    -0.394 OA
HETATM   27  C16 UNL     1      29.526   6.892  47.495  1.00  0.00     0.201 C 
ENDBRANCH  25  26
ENDBRANCH  24  25
ENDBRANCH  23  24
ENDBRANCH  16  23
TORSDOF 4
ENDMDL
MODEL 5
REMARK VINA RESULT:      -7.3      1.501      1.944
REMARK  4 active torsions:
REMARK  status: ('A' for Active; 'I' for Inactive)
REMARK    1  A    between atoms: C13_16  and  O1_17 
REMARK    2  A    between atoms: O1_17  and  C14_18 
REMARK    3  A    between atoms: C14_18  and  C15_19 
REMARK    4  A    between atoms: C15_19  and  O2_20 
ROOT
HETATM    1  C1  UNL     1      26.452   3.909  49.327  1.00  0.00     0.012 C 
HETATM    2  C2  UNL     1      25.320   3.959  49.822  1.00  0.00    -0.109 C 
HETATM    3  C3  UNL     1      23.976   4.020  50.438  1.00  0.00     0.039 C 
HETATM    4  C4  UNL     1      23.359   3.899  49.198  1.00  0.00     0.091 C 
HETATM    5  C5  UNL     1      21.946   3.841  48.813  1.00  0.00    -0.018 C 
HETATM    6  C6  UNL     1      20.612   3.813  49.010  1.00  0.00     0.021 C 
HETATM    7  C7  UNL     1      19.750   3.826  50.158  1.00  0.00     0.011 C 
HETATM    8  C8  UNL     1      18.444   3.821  50.167  1.00  0.00     0.063 C 
HETATM    9  N1  UNL     1      19.789   3.770  51.571  1.00  0.00    -0.344 N 
HETATM   10  C9  UNL     1      19.927   2.371  51.939  1.00  0.00     0.141 A 
HETATM   11  N2  UNL     1      18.879   1.546  51.904  1.00  0.00    -0.224 NA
HETATM   12  C10 UNL     1      19.020   0.220  52.209  1.00  0.00     0.236 A 
HETATM   13  N3  UNL     1      20.220  -0.315  52.559  1.00  0.00    -0.241 NA
HETATM   14  C11 UNL     1      21.292   0.491  52.604  1.00  0.00     0.075 A 
HETATM   15  C12 UNL     1      22.545   0.035  52.940  1.00  0.00     0.072 A 
HETATM   16  C13 UNL     1      23.713   0.752  53.014  1.00  0.00     0.104 A 
HETATM   17  C17 UNL     1      23.593   2.128  52.706  1.00  0.00     0.103 A 
HETATM   18  C18 UNL     1      22.280   2.526  52.371  1.00  0.00     0.057 A 
HETATM   19  C19 UNL     1      21.116   1.814  52.294  1.00  0.00     0.042 A 
HETATM   20  O3  UNL     1      24.530   3.188  52.667  1.00  0.00    -0.347 OA
HETATM   21  C20 UNL     1      24.150   4.302  51.905  1.00  0.00     0.194 C 
HETATM   22  H7  UNL     1      19.781   4.085  52.536  1.00  0.00     0.167 HD
ENDROOT
BRANCH  16  23
HETATM   23  O1  UNL     1      24.981   0.630  53.280  1.00  0.00    -0.346 OA
BRANCH  23  24
HETATM   24  C14 UNL     1      25.829   0.245  54.237  1.00  0.00     0.201 C 
BRANCH  24  25
HETATM   25  C15 UNL     1      27.079  -0.475  53.801  1.00  0.00     0.193 C 
BRANCH  25  26
HETATM   26  O2  UNL     1      28.078  -0.493  54.738  1.00  0.00    -0.394 OA
HETATM   27  C16 UNL     1      28.850   0.650  54.662  1.00  0.00     0.201 C 
ENDBRANCH  25  26
ENDBRANCH  24  25
ENDBRANCH  23  24
ENDBRANCH  16  23
TORSDOF 4
ENDMDL
MODEL 6
REMARK VINA RESULT:      -7.1      9.348     12.967
REMARK  4 active torsions:
REMARK  status: ('A' for Active; 'I' for Inactive)
REMARK    1  A    between atoms: C13_16  and  O1_17 
REMARK    2  A    between atoms: O1_17  and  C14_18 
REMARK    3  A    between atoms: C14_18  and  C15_19 
REMARK    4  A    between atoms: C15_19  and  O2_20 
ROOT
HETATM    1  C1  UNL     1      24.521   8.244  48.174  1.00  0.00     0.012 C 
HETATM    2  C2  UNL     1      25.683   8.124  48.579  1.00  0.00    -0.109 C 
HETATM    3  C3  UNL     1      27.071   8.003  49.079  1.00  0.00     0.039 C 
HETATM    4  C4  UNL     1      27.309   6.901  48.265  1.00  0.00     0.091 C 
HETATM    5  C5  UNL     1      28.503   6.075  48.066  1.00  0.00    -0.018 C 
HETATM    6  C6  UNL     1      29.785   5.695  48.240  1.00  0.00     0.021 C 
HETATM    7  C7  UNL     1      30.901   6.188  48.998  1.00  0.00     0.011 C 
HETATM    8  C8  UNL     1      32.097   5.668  49.074  1.00  0.00     0.063 C 
HETATM    9  N1  UNL     1      31.292   7.279  49.810  1.00  0.00    -0.344 N 
HETATM   10  C9  UNL     1      31.677   8.359  48.917  1.00  0.00     0.141 A 
HETATM   11  N2  UNL     1      32.861   8.352  48.302  1.00  0.00    -0.224 NA
HETATM   12  C10 UNL     1      33.202   9.348  47.429  1.00  0.00     0.236 A 
HETATM   13  N3  UNL     1      32.363  10.381  47.149  1.00  0.00    -0.241 NA
HETATM   14  C11 UNL     1      31.166  10.414  47.753  1.00  0.00     0.075 A 
HETATM   15  C12 UNL     1      30.251  11.416  47.524  1.00  0.00     0.072 A 
HETATM   16  C13 UNL     1      29.000  11.558  48.070  1.00  0.00     0.104 A 
HETATM   17  C17 UNL     1      28.623  10.542  48.980  1.00  0.00     0.103 A 
HETATM   18  C18 UNL     1      29.610   9.549  49.167  1.00  0.00     0.057 A 
HETATM   19  C19 UNL     1      30.855   9.403  48.623  1.00  0.00     0.042 A 
HETATM   20  O3  UNL     1      27.452  10.323  49.742  1.00  0.00    -0.347 OA
HETATM   21  C20 UNL     1      27.256   9.006  50.184  1.00  0.00     0.194 C 
HETATM   22  H7  UNL     1      31.488   7.820  50.645  1.00  0.00     0.167 HD
ENDROOT
BRANCH  16  23
HETATM   23  O1  UNL     1      27.956  12.333  48.062  1.00  0.00    -0.346 OA
BRANCH  23  24
HETATM   24  C14 UNL     1      27.562  13.581  48.333  1.00  0.00     0.201 C 
BRANCH  24  25
HETATM   25  C15 UNL     1      27.866  14.638  47.303  1.00  0.00     0.193 C 
BRANCH  25  26
HETATM   26  O2  UNL     1      29.181  15.019  47.254  1.00  0.00    -0.394 OA
HETATM   27  C16 UNL     1      29.403  15.897  46.210  1.00  0.00     0.201 C 
ENDBRANCH  25  26
ENDBRANCH  24  25
ENDBRANCH  23  24
ENDBRANCH  16  23
TORSDOF 4
ENDMDL
MODEL 7
REMARK VINA RESULT:      -7.0      3.413      7.146
REMARK  4 active torsions:
REMARK  status: ('A' for Active; 'I' for Inactive)
REMARK    1  A    between atoms: C13_16  and  O1_17 
REMARK    2  A    between atoms: O1_17  and  C14_18 
REMARK    3  A    between atoms: C14_18  and  C15_19 
REMARK    4  A    between atoms: C15_19  and  O2_20 
ROOT
HETATM    1  C1  UNL     1      18.532  -0.141  51.805  1.00  0.00     0.012 C 
HETATM    2  C2  UNL     1      19.589   0.404  52.145  1.00  0.00    -0.109 C 
HETATM    3  C3  UNL     1      20.844   1.079  52.548  1.00  0.00     0.039 C 
HETATM    4  C4  UNL     1      21.510  -0.137  52.653  1.00  0.00     0.091 C 
HETATM    5  C5  UNL     1      22.895  -0.463  53.001  1.00  0.00    -0.018 C 
HETATM    6  C6  UNL     1      24.178  -0.210  53.334  1.00  0.00     0.021 C 
HETATM    7  C7  UNL     1      24.964   0.974  53.536  1.00  0.00     0.011 C 
HETATM    8  C8  UNL     1      26.220   1.039  53.890  1.00  0.00     0.063 C 
HETATM    9  N1  UNL     1      24.897   2.382  53.412  1.00  0.00    -0.344 N 
HETATM   10  C9  UNL     1      25.139   2.701  52.015  1.00  0.00     0.141 A 
HETATM   11  N2  UNL     1      26.375   2.684  51.513  1.00  0.00    -0.224 NA
HETATM   12  C10 UNL     1      26.596   2.942  50.187  1.00  0.00     0.236 A 
HETATM   13  N3  UNL     1      25.580   3.224  49.329  1.00  0.00    -0.241 NA
HETATM   14  C11 UNL     1      24.326   3.248  49.806  1.00  0.00     0.075 A 
HETATM   15  C12 UNL     1      23.238   3.515  49.010  1.00  0.00     0.072 A 
HETATM   16  C13 UNL     1      21.915   3.561  49.374  1.00  0.00     0.104 A 
HETATM   17  C17 UNL     1      21.660   3.301  50.741  1.00  0.00     0.103 A 
HETATM   18  C18 UNL     1      22.822   3.036  51.499  1.00  0.00     0.057 A 
HETATM   19  C19 UNL     1      24.139   2.987  51.138  1.00  0.00     0.042 A 
HETATM   20  O3  UNL     1      20.468   3.255  51.503  1.00  0.00    -0.347 OA
HETATM   21  C20 UNL     1      20.550   2.545  52.710  1.00  0.00     0.194 C 
HETATM   22  H7  UNL     1      24.785   3.355  53.677  1.00  0.00     0.167 HD
ENDROOT
BRANCH  16  23
HETATM   23  O1  UNL     1      20.723   3.768  48.897  1.00  0.00    -0.346 OA
BRANCH  23  24
HETATM   24  C14 UNL     1      19.962   4.702  48.318  1.00  0.00     0.201 C 
BRANCH  24  25
HETATM   25  C15 UNL     1      20.386   6.138  48.486  1.00  0.00     0.193 C 
BRANCH  25  26
HETATM   26  O2  UNL     1      20.091   6.678  49.709  1.00  0.00    -0.394 OA
HETATM   27  C16 UNL     1      21.242   7.018  50.392  1.00  0.00     0.201 C 
ENDBRANCH  25  26
ENDBRANCH  24  25
ENDBRANCH  23  24
ENDBRANCH  16  23
TORSDOF 4
ENDMDL
MODEL 8
REMARK VINA RESULT:      -7.0      4.352      7.499
REMARK  4 active torsions:
REMARK  status: ('A' for Active; 'I' for Inactive)
REMARK    1  A    between atoms: C13_16  and  O1_17 
REMARK    2  A    between atoms: O1_17  and  C14_18 
REMARK    3  A    between atoms: C14_18  and  C15_19 
REMARK    4  A    between atoms: C15_19  and  O2_20 
ROOT
HETATM    1  C1  UNL     1      23.547   0.732  52.964  1.00  0.00     0.012 C 
HETATM    2  C2  UNL     1      23.965   1.805  52.514  1.00  0.00    -0.109 C 
HETATM    3  C3  UNL     1      24.450   3.102  51.990  1.00  0.00     0.039 C 
HETATM    4  C4  UNL     1      25.273   2.466  51.068  1.00  0.00     0.091 C 
HETATM    5  C5  UNL     1      26.175   2.993  50.040  1.00  0.00    -0.018 C 
HETATM    6  C6  UNL     1      26.786   3.941  49.301  1.00  0.00     0.021 C 
HETATM    7  C7  UNL     1      26.729   5.374  49.232  1.00  0.00     0.011 C 
HETATM    8  C8  UNL     1      27.428   6.158  48.454  1.00  0.00     0.063 C 
HETATM    9  N1  UNL     1      26.014   6.480  49.750  1.00  0.00    -0.344 N 
HETATM   10  C9  UNL     1      24.787   6.593  48.979  1.00  0.00     0.141 A 
HETATM   11  N2  UNL     1      24.792   7.128  47.757  1.00  0.00    -0.224 NA
HETATM   12  C10 UNL     1      23.643   7.194  47.017  1.00  0.00     0.236 A 
HETATM   13  N3  UNL     1      22.456   6.724  47.484  1.00  0.00    -0.241 NA
HETATM   14  C11 UNL     1      22.421   6.180  48.710  1.00  0.00     0.075 A 
HETATM   15  C12 UNL     1      21.267   5.672  49.260  1.00  0.00     0.072 A 
HETATM   16  C13 UNL     1      21.104   5.088  50.492  1.00  0.00     0.104 A 
HETATM   17  C17 UNL     1      22.277   5.011  51.279  1.00  0.00     0.103 A 
HETATM   18  C18 UNL     1      23.422   5.551  50.653  1.00  0.00     0.057 A 
HETATM   19  C19 UNL     1      23.588   6.131  49.426  1.00  0.00     0.042 A 
HETATM   20  O3  UNL     1      22.532   4.498  52.573  1.00  0.00    -0.347 OA
HETATM   21  C20 UNL     1      23.873   4.194  52.849  1.00  0.00     0.194 C 
HETATM   22  H7  UNL     1      25.791   7.279  50.334  1.00  0.00     0.167 HD
ENDROOT
BRANCH  16  23
HETATM   23  O1  UNL     1      20.210   4.539  51.260  1.00  0.00    -0.346 OA
BRANCH  23  24
HETATM   24  C14 UNL     1      19.240   3.620  51.266  1.00  0.00     0.201 C 
BRANCH  24  25
HETATM   25  C15 UNL     1      19.541   2.296  50.612  1.00  0.00     0.193 C 
BRANCH  25  26
HETATM   26  O2  UNL     1      20.740   1.744  50.975  1.00  0.00    -0.394 OA
HETATM   27  C16 UNL     1      21.429   1.285  49.870  1.00  0.00     0.201 C 
ENDBRANCH  25  26
ENDBRANCH  24  25
ENDBRANCH  23  24
ENDBRANCH  16  23
TORSDOF 4
ENDMDL
MODEL 9
REMARK VINA RESULT:      -6.8      6.231     10.054
REMARK  4 active torsions:
REMARK  status: ('A' for Active; 'I' for Inactive)
REMARK    1  A    between atoms: C13_16  and  O1_17 
REMARK    2  A    between atoms: O1_17  and  C14_18 
REMARK    3  A    between atoms: C14_18  and  C15_19 
REMARK    4  A    between atoms: C15_19  and  O2_20 
ROOT
HETATM    1  C1  UNL     1      20.204   0.482  53.517  1.00  0.00     0.012 C 
HETATM    2  C2  UNL     1      19.273  -0.194  53.065  1.00  0.00    -0.109 C 
HETATM    3  C3  UNL     1      18.153  -0.984  52.505  1.00  0.00     0.039 C 
HETATM    4  C4  UNL     1      18.324  -1.977  53.463  1.00  0.00     0.091 C 
HETATM    5  C5  UNL     1      17.599  -3.226  53.714  1.00  0.00    -0.018 C 
HETATM    6  C6  UNL     1      16.646  -4.161  53.523  1.00  0.00     0.021 C 
HETATM    7  C7  UNL     1      15.531  -4.312  52.632  1.00  0.00     0.011 C 
HETATM    8  C8  UNL     1      14.704  -5.321  52.564  1.00  0.00     0.063 C 
HETATM    9  N1  UNL     1      14.804  -3.613  51.639  1.00  0.00    -0.344 N 
HETATM   10  C9  UNL     1      13.877  -2.732  52.329  1.00  0.00     0.141 A 
HETATM   11  N2  UNL     1      12.751  -3.206  52.865  1.00  0.00    -0.224 NA
HETATM   12  C10 UNL     1      11.901  -2.382  53.551  1.00  0.00     0.236 A 
HETATM   13  N3  UNL     1      12.160  -1.058  53.719  1.00  0.00    -0.241 NA
HETATM   14  C11 UNL     1      13.286  -0.553  53.191  1.00  0.00     0.075 A 
HETATM   15  C12 UNL     1      13.632   0.772  53.319  1.00  0.00     0.072 A 
HETATM   16  C13 UNL     1      14.751   1.403  52.835  1.00  0.00     0.104 A 
HETATM   17  C17 UNL     1      15.645   0.573  52.118  1.00  0.00     0.103 A 
HETATM   18  C18 UNL     1      15.226  -0.773  52.025  1.00  0.00     0.057 A 
HETATM   19  C19 UNL     1      14.114  -1.404  52.509  1.00  0.00     0.042 A 
HETATM   20  O3  UNL     1      16.878   0.824  51.471  1.00  0.00    -0.347 OA
HETATM   21  C20 UNL     1      17.684  -0.301  51.250  1.00  0.00     0.194 C 
HETATM   22  H7  UNL     1      14.496  -3.315  50.719  1.00  0.00     0.167 HD
ENDROOT
BRANCH  16  23
HETATM   23  O1  UNL     1      15.339   2.562  52.787  1.00  0.00    -0.346 OA
BRANCH  23  24
HETATM   24  C14 UNL     1      15.090   3.873  52.717  1.00  0.00     0.201 C 
BRANCH  24  25
HETATM   25  C15 UNL     1      13.669   4.318  52.947  1.00  0.00     0.193 C 
BRANCH  25  26
HETATM   26  O2  UNL     1      13.364   4.589  54.255  1.00  0.00    -0.394 OA
HETATM   27  C16 UNL     1      12.054   4.255  54.538  1.00  0.00     0.201 C 
ENDBRANCH  25  26
ENDBRANCH  24  25
ENDBRANCH  23  24
ENDBRANCH  16  23
TORSDOF 4
ENDMDL
