MODEL 1
REMARK VINA RESULT:      -7.0      0.000      0.000
REMARK  3 active torsions:
REMARK  status: ('A' for Active; 'I' for Inactive)
REMARK    1  A    between atoms: O1_2  and  C2_3 
REMARK    2  A    between atoms: C13_18  and  O3_19 
REMARK    3  A    between atoms: C15_21  and  O4_22 
ROOT
HETATM    1  C2  UNL     1      22.779   2.211  49.746  1.00  0.00     0.100 C 
HETATM    2  C3  UNL     1      22.148   1.567  50.750  1.00  0.00     0.041 C 
HETATM    3  C4  UNL     1      22.450   1.589  52.238  1.00  0.00     0.147 C 
HETATM    4  N1  UNL     1      22.384   2.951  52.731  1.00  0.00    -0.291 NA
HETATM    5  C5  UNL     1      22.713   4.090  52.166  1.00  0.00     0.114 C 
HETATM    6  C6  UNL     1      23.395   4.343  50.872  1.00  0.00     0.058 C 
HETATM    7  C7  UNL     1      23.668   3.382  49.964  1.00  0.00     0.106 C 
HETATM    8  O2  UNL     1      24.889   3.674  49.297  1.00  0.00    -0.311 OA
HETATM    9  C8  UNL     1      26.015   4.101  50.048  1.00  0.00     0.405 C 
HETATM   10  N2  UNL     1      26.069   2.926  50.632  1.00  0.00     0.076 NA
HETATM   11  C9  UNL     1      26.985   2.504  51.602  1.00  0.00     0.812 C 
HETATM   12  N3  UNL     1      27.025   1.694  52.610  1.00  0.00    -0.246 NA
HETATM   13  C10 UNL     1      25.895   0.927  52.983  1.00  0.00     0.086 C 
HETATM   14  C11 UNL     1      24.859   1.804  52.856  1.00  0.00     0.021 C 
HETATM   15  C12 UNL     1      23.756   0.921  52.390  1.00  0.00     0.099 C 
HETATM   16  C13 UNL     1      23.858  -0.086  53.503  1.00  0.00     0.091 C 
HETATM   17  C15 UNL     1      25.197  -0.311  53.417  1.00  0.00     0.126 C 
ENDROOT
BRANCH   1  18
HETATM   18  O1  UNL     1      22.564   1.730  48.487  1.00  0.00    -0.353 OA
HETATM   19  C1  UNL     1      22.244   2.448  47.337  1.00  0.00     0.210 C 
ENDBRANCH   1  18
BRANCH  16  20
HETATM   20  O3  UNL     1      23.289  -0.849  54.511  1.00  0.00    -0.357 OA
HETATM   21  C14 UNL     1      21.937  -1.251  54.562  1.00  0.00     0.209 C 
ENDBRANCH  16  20
BRANCH  17  22
HETATM   22  O4  UNL     1      26.143  -1.349  53.612  1.00  0.00    -0.351 OA
HETATM   23  C16 UNL     1      26.798  -1.905  52.487  1.00  0.00     0.210 C 
ENDBRANCH  17  22
TORSDOF 3
ENDMDL
MODEL 2
REMARK VINA RESULT:      -6.4      1.892      2.442
REMARK  3 active torsions:
REMARK  status: ('A' for Active; 'I' for Inactive)
REMARK    1  A    between atoms: O1_2  and  C2_3 
REMARK    2  A    between atoms: C13_18  and  O3_19 
REMARK    3  A    between atoms: C15_21  and  O4_22 
ROOT
HETATM    1  C2  UNL     1      20.997   2.161  49.315  1.00  0.00     0.100 C 
HETATM    2  C3  UNL     1      20.706   1.009  49.954  1.00  0.00     0.041 C 
HETATM    3  C4  UNL     1      20.708   0.716  51.444  1.00  0.00     0.147 C 
HETATM    4  N1  UNL     1      19.795   1.617  52.121  1.00  0.00    -0.291 NA
HETATM    5  C5  UNL     1      19.490   2.873  51.887  1.00  0.00     0.114 C 
HETATM    6  C6  UNL     1      20.092   3.829  50.924  1.00  0.00     0.058 C 
HETATM    7  C7  UNL     1      21.003   3.485  49.990  1.00  0.00     0.106 C 
HETATM    8  O2  UNL     1      21.919   4.553  49.784  1.00  0.00    -0.311 OA
HETATM    9  C8  UNL     1      22.463   5.238  50.903  1.00  0.00     0.405 C 
HETATM   10  N2  UNL     1      23.092   4.144  51.264  1.00  0.00     0.076 NA
HETATM   11  C9  UNL     1      23.922   3.973  52.378  1.00  0.00     0.812 C 
HETATM   12  N3  UNL     1      24.266   3.030  53.195  1.00  0.00    -0.246 NA
HETATM   13  C10 UNL     1      23.741   1.720  53.071  1.00  0.00     0.086 C 
HETATM   14  C11 UNL     1      22.424   1.931  52.789  1.00  0.00     0.021 C 
HETATM   15  C12 UNL     1      22.117   0.804  51.867  1.00  0.00     0.099 C 
HETATM   16  C13 UNL     1      22.608  -0.296  52.767  1.00  0.00     0.091 C 
HETATM   17  C15 UNL     1      23.826   0.237  53.054  1.00  0.00     0.126 C 
ENDROOT
BRANCH   1  18
HETATM   18  O1  UNL     1      21.293   2.059  47.987  1.00  0.00    -0.353 OA
HETATM   19  C1  UNL     1      22.535   2.194  47.371  1.00  0.00     0.210 C 
ENDBRANCH   1  18
BRANCH  16  20
HETATM   20  O3  UNL     1      22.435  -1.514  53.409  1.00  0.00    -0.357 OA
HETATM   21  C14 UNL     1      21.587  -1.736  54.515  1.00  0.00     0.209 C 
ENDBRANCH  16  20
BRANCH  17  22
HETATM   22  O4  UNL     1      25.154  -0.168  53.344  1.00  0.00    -0.351 OA
HETATM   23  C16 UNL     1      26.166   0.042  52.376  1.00  0.00     0.210 C 
ENDBRANCH  17  22
TORSDOF 3
ENDMDL
MODEL 3
REMARK VINA RESULT:      -6.3      2.713      4.796
REMARK  3 active torsions:
REMARK  status: ('A' for Active; 'I' for Inactive)
REMARK    1  A    between atoms: O1_2  and  C2_3 
REMARK    2  A    between atoms: C13_18  and  O3_19 
REMARK    3  A    between atoms: C15_21  and  O4_22 
ROOT
HETATM    1  C2  UNL     1      20.086   2.941  51.309  1.00  0.00     0.100 C 
HETATM    2  C3  UNL     1      21.119   3.509  50.654  1.00  0.00     0.041 C 
HETATM    3  C4  UNL     1      22.437   2.887  50.227  1.00  0.00     0.147 C 
HETATM    4  N1  UNL     1      22.184   1.750  49.362  1.00  0.00    -0.291 NA
HETATM    5  C5  UNL     1      21.222   0.856  49.371  1.00  0.00     0.114 C 
HETATM    6  C6  UNL     1      20.141   0.640  50.365  1.00  0.00     0.058 C 
HETATM    7  C7  UNL     1      19.890   1.470  51.399  1.00  0.00     0.106 C 
HETATM    8  O2  UNL     1      19.435   0.728  52.523  1.00  0.00    -0.311 OA
HETATM    9  C8  UNL     1      20.102  -0.471  52.889  1.00  0.00     0.405 C 
HETATM   10  N2  UNL     1      21.177   0.221  53.188  1.00  0.00     0.076 NA
HETATM   11  C9  UNL     1      22.397  -0.273  53.664  1.00  0.00     0.812 C 
HETATM   12  N3  UNL     1      23.654   0.028  53.606  1.00  0.00    -0.246 NA
HETATM   13  C10 UNL     1      24.107   1.162  52.890  1.00  0.00     0.086 C 
HETATM   14  C11 UNL     1      23.359   1.138  51.750  1.00  0.00     0.021 C 
HETATM   15  C12 UNL     1      23.161   2.587  51.475  1.00  0.00     0.099 C 
HETATM   16  C13 UNL     1      24.614   2.970  51.506  1.00  0.00     0.091 C 
HETATM   17  C15 UNL     1      24.929   2.384  52.692  1.00  0.00     0.126 C 
ENDROOT
BRANCH   1  18
HETATM   18  O1  UNL     1      19.203   3.794  51.904  1.00  0.00    -0.353 OA
HETATM   19  C1  UNL     1      17.866   4.011  51.579  1.00  0.00     0.210 C 
ENDBRANCH   1  18
BRANCH  16  20
HETATM   20  O3  UNL     1      25.723   3.592  50.949  1.00  0.00    -0.357 OA
HETATM   21  C14 UNL     1      26.360   3.198  49.753  1.00  0.00     0.209 C 
ENDBRANCH  16  20
BRANCH  17  22
HETATM   22  O4  UNL     1      25.793   2.562  53.802  1.00  0.00    -0.351 OA
HETATM   23  C16 UNL     1      26.983   1.798  53.879  1.00  0.00     0.210 C 
ENDBRANCH  17  22
TORSDOF 3
ENDMDL
MODEL 4
REMARK VINA RESULT:      -6.2      2.246      4.251
REMARK  3 active torsions:
REMARK  status: ('A' for Active; 'I' for Inactive)
REMARK    1  A    between atoms: O1_2  and  C2_3 
REMARK    2  A    between atoms: C13_18  and  O3_19 
REMARK    3  A    between atoms: C15_21  and  O4_22 
ROOT
HETATM    1  C2  UNL     1      23.822   4.360  51.750  1.00  0.00     0.100 C 
HETATM    2  C3  UNL     1      23.831   3.629  52.884  1.00  0.00     0.041 C 
HETATM    3  C4  UNL     1      23.778   2.120  53.048  1.00  0.00     0.147 C 
HETATM    4  N1  UNL     1      24.893   1.512  52.348  1.00  0.00    -0.291 NA
HETATM    5  C5  UNL     1      25.492   1.844  51.227  1.00  0.00     0.114 C 
HETATM    6  C6  UNL     1      25.130   2.885  50.232  1.00  0.00     0.058 C 
HETATM    7  C7  UNL     1      24.149   3.793  50.416  1.00  0.00     0.106 C 
HETATM    8  O2  UNL     1      23.520   4.090  49.176  1.00  0.00    -0.311 OA
HETATM    9  C8  UNL     1      23.176   3.033  48.293  1.00  0.00     0.405 C 
HETATM   10  N2  UNL     1      22.303   2.590  49.167  1.00  0.00     0.076 NA
HETATM   11  C9  UNL     1      21.471   1.471  49.040  1.00  0.00     0.812 C 
HETATM   12  N3  UNL     1      20.919   0.583  49.802  1.00  0.00    -0.246 NA
HETATM   13  C10 UNL     1      21.105   0.598  51.206  1.00  0.00     0.086 C 
HETATM   14  C11 UNL     1      22.430   0.887  51.348  1.00  0.00     0.021 C 
HETATM   15  C12 UNL     1      22.439   1.715  52.585  1.00  0.00     0.099 C 
HETATM   16  C13 UNL     1      21.707   0.732  53.456  1.00  0.00     0.091 C 
HETATM   17  C15 UNL     1      20.659   0.497  52.620  1.00  0.00     0.126 C 
ENDROOT
BRANCH   1  18
HETATM   18  O1  UNL     1      23.492   5.677  51.881  1.00  0.00    -0.353 OA
HETATM   19  C1  UNL     1      24.034   6.770  51.209  1.00  0.00     0.210 C 
ENDBRANCH   1  18
BRANCH  16  20
HETATM   20  O3  UNL     1      21.585  -0.007  54.624  1.00  0.00    -0.357 OA
HETATM   21  C14 UNL     1      22.287  -1.197  54.910  1.00  0.00     0.209 C 
ENDBRANCH  16  20
BRANCH  17  22
HETATM   22  O4  UNL     1      19.277   0.183  52.663  1.00  0.00    -0.351 OA
HETATM   23  C16 UNL     1      18.868  -1.048  53.230  1.00  0.00     0.210 C 
ENDBRANCH  17  22
TORSDOF 3
ENDMDL
MODEL 5
REMARK VINA RESULT:      -6.1      2.292      4.404
REMARK  3 active torsions:
REMARK  status: ('A' for Active; 'I' for Inactive)
REMARK    1  A    between atoms: O1_2  and  C2_3 
REMARK    2  A    between atoms: C13_18  and  O3_19 
REMARK    3  A    between atoms: C15_21  and  O4_22 
ROOT
HETATM    1  C2  UNL     1      22.241   5.016  50.877  1.00  0.00     0.100 C 
HETATM    2  C3  UNL     1      23.368   4.509  51.419  1.00  0.00     0.041 C 
HETATM    3  C4  UNL     1      23.926   3.101  51.321  1.00  0.00     0.147 C 
HETATM    4  N1  UNL     1      24.140   2.755  49.929  1.00  0.00    -0.291 NA
HETATM    5  C5  UNL     1      23.464   3.071  48.848  1.00  0.00     0.114 C 
HETATM    6  C6  UNL     1      22.168   3.783  48.716  1.00  0.00     0.058 C 
HETATM    7  C7  UNL     1      21.523   4.371  49.746  1.00  0.00     0.106 C 
HETATM    8  O2  UNL     1      20.117   4.265  49.566  1.00  0.00    -0.311 OA
HETATM    9  C8  UNL     1      19.553   3.027  49.157  1.00  0.00     0.405 C 
HETATM   10  N2  UNL     1      19.922   2.485  50.294  1.00  0.00     0.076 NA
HETATM   11  C9  UNL     1      19.722   1.162  50.705  1.00  0.00     0.812 C 
HETATM   12  N3  UNL     1      20.306   0.281  51.452  1.00  0.00    -0.246 NA
HETATM   13  C10 UNL     1      21.515   0.573  52.128  1.00  0.00     0.086 C 
HETATM   14  C11 UNL     1      22.237   1.267  51.203  1.00  0.00     0.021 C 
HETATM   15  C12 UNL     1      22.976   2.243  52.051  1.00  0.00     0.099 C 
HETATM   16  C13 UNL     1      23.580   1.235  52.989  1.00  0.00     0.091 C 
HETATM   17  C15 UNL     1      22.435   0.566  53.295  1.00  0.00     0.126 C 
ENDROOT
BRANCH   1  18
HETATM   18  O1  UNL     1      21.773   6.175  51.422  1.00  0.00    -0.353 OA
HETATM   19  C1  UNL     1      21.480   7.373  50.775  1.00  0.00     0.210 C 
ENDBRANCH   1  18
BRANCH  16  20
HETATM   20  O3  UNL     1      24.667   0.688  53.654  1.00  0.00    -0.357 OA
HETATM   21  C14 UNL     1      25.261  -0.557  53.356  1.00  0.00     0.209 C 
ENDBRANCH  16  20
BRANCH  17  22
HETATM   22  O4  UNL     1      21.837  -0.139  54.370  1.00  0.00    -0.351 OA
HETATM   23  C16 UNL     1      21.727  -1.548  54.294  1.00  0.00     0.210 C 
ENDBRANCH  17  22
TORSDOF 3
ENDMDL
MODEL 6
REMARK VINA RESULT:      -5.9      2.493      4.432
REMARK  3 active torsions:
REMARK  status: ('A' for Active; 'I' for Inactive)
REMARK    1  A    between atoms: O1_2  and  C2_3 
REMARK    2  A    between atoms: C13_18  and  O3_19 
REMARK    3  A    between atoms: C15_21  and  O4_22 
ROOT
HETATM    1  C2  UNL     1      21.695   4.765  50.879  1.00  0.00     0.100 C 
HETATM    2  C3  UNL     1      22.938   4.442  50.467  1.00  0.00     0.041 C 
HETATM    3  C4  UNL     1      23.527   3.070  50.192  1.00  0.00     0.147 C 
HETATM    4  N1  UNL     1      22.743   2.395  49.176  1.00  0.00    -0.291 NA
HETATM    5  C5  UNL     1      21.453   2.413  48.929  1.00  0.00     0.114 C 
HETATM    6  C6  UNL     1      20.349   3.034  49.704  1.00  0.00     0.058 C 
HETATM    7  C7  UNL     1      20.537   3.839  50.770  1.00  0.00     0.106 C 
HETATM    8  O2  UNL     1      19.492   3.652  51.714  1.00  0.00    -0.311 OA
HETATM    9  C8  UNL     1      19.074   2.337  52.047  1.00  0.00     0.405 C 
HETATM   10  N2  UNL     1      20.245   2.104  52.592  1.00  0.00     0.076 NA
HETATM   11  C9  UNL     1      20.676   0.920  53.202  1.00  0.00     0.812 C 
HETATM   12  N3  UNL     1      21.779   0.268  53.382  1.00  0.00    -0.246 NA
HETATM   13  C10 UNL     1      23.012   0.754  52.880  1.00  0.00     0.086 C 
HETATM   14  C11 UNL     1      22.689   1.216  51.639  1.00  0.00     0.021 C 
HETATM   15  C12 UNL     1      23.591   2.393  51.500  1.00  0.00     0.099 C 
HETATM   16  C13 UNL     1      24.871   1.668  51.808  1.00  0.00     0.091 C 
HETATM   17  C15 UNL     1      24.463   1.063  52.957  1.00  0.00     0.126 C 
ENDROOT
BRANCH   1  18
HETATM   18  O1  UNL     1      21.538   6.010  51.414  1.00  0.00    -0.353 OA
HETATM   19  C1  UNL     1      21.534   7.236  50.752  1.00  0.00     0.210 C 
ENDBRANCH   1  18
BRANCH  16  20
HETATM   20  O3  UNL     1      26.185   1.334  51.512  1.00  0.00    -0.357 OA
HETATM   21  C14 UNL     1      27.325   1.913  52.110  1.00  0.00     0.209 C 
ENDBRANCH  16  20
BRANCH  17  22
HETATM   22  O4  UNL     1      24.978   0.631  54.205  1.00  0.00    -0.351 OA
HETATM   23  C16 UNL     1      25.072  -0.757  54.468  1.00  0.00     0.210 C 
ENDBRANCH  17  22
TORSDOF 3
ENDMDL
MODEL 7
REMARK VINA RESULT:      -5.9      3.024      4.836
REMARK  3 active torsions:
REMARK  status: ('A' for Active; 'I' for Inactive)
REMARK    1  A    between atoms: O1_2  and  C2_3 
REMARK    2  A    between atoms: C13_18  and  O3_19 
REMARK    3  A    between atoms: C15_21  and  O4_22 
ROOT
HETATM    1  C2  UNL     1      22.710   2.985  49.815  1.00  0.00     0.100 C 
HETATM    2  C3  UNL     1      21.441   3.442  49.829  1.00  0.00     0.041 C 
HETATM    3  C4  UNL     1      20.464   3.514  50.989  1.00  0.00     0.147 C 
HETATM    4  N1  UNL     1      21.031   4.313  52.058  1.00  0.00    -0.291 NA
HETATM    5  C5  UNL     1      22.270   4.440  52.476  1.00  0.00     0.114 C 
HETATM    6  C6  UNL     1      23.488   3.694  52.070  1.00  0.00     0.058 C 
HETATM    7  C7  UNL     1      23.526   2.816  51.046  1.00  0.00     0.106 C 
HETATM    8  O2  UNL     1      24.432   1.761  51.341  1.00  0.00    -0.311 OA
HETATM    9  C8  UNL     1      24.411   1.156  52.626  1.00  0.00     0.405 C 
HETATM   10  N2  UNL     1      23.209   0.687  52.383  1.00  0.00     0.076 NA
HETATM   11  C9  UNL     1      22.414  -0.087  53.235  1.00  0.00     0.812 C 
HETATM   12  N3  UNL     1      21.158  -0.282  53.478  1.00  0.00    -0.246 NA
HETATM   13  C10 UNL     1      20.153   0.411  52.759  1.00  0.00     0.086 C 
HETATM   14  C11 UNL     1      20.640   1.681  52.675  1.00  0.00     0.021 C 
HETATM   15  C12 UNL     1      20.154   2.115  51.337  1.00  0.00     0.099 C 
HETATM   16  C13 UNL     1      18.702   1.797  51.569  1.00  0.00     0.091 C 
HETATM   17  C15 UNL     1      18.868   0.525  52.022  1.00  0.00     0.126 C 
ENDROOT
BRANCH   1  18
HETATM   18  O1  UNL     1      23.229   2.674  48.592  1.00  0.00    -0.353 OA
HETATM   19  C1  UNL     1      22.572   2.126  47.494  1.00  0.00     0.210 C 
ENDBRANCH   1  18
BRANCH  16  20
HETATM   20  O3  UNL     1      17.360   2.146  51.548  1.00  0.00    -0.357 OA
HETATM   21  C14 UNL     1      16.858   3.455  51.716  1.00  0.00     0.209 C 
ENDBRANCH  16  20
BRANCH  17  22
HETATM   22  O4  UNL     1      18.206  -0.729  52.019  1.00  0.00    -0.351 OA
HETATM   23  C16 UNL     1      17.685  -1.236  53.234  1.00  0.00     0.210 C 
ENDBRANCH  17  22
TORSDOF 3
ENDMDL
MODEL 8
REMARK VINA RESULT:      -5.9      9.348     12.713
REMARK  3 active torsions:
REMARK  status: ('A' for Active; 'I' for Inactive)
REMARK    1  A    between atoms: O1_2  and  C2_3 
REMARK    2  A    between atoms: C13_18  and  O3_19 
REMARK    3  A    between atoms: C15_21  and  O4_22 
ROOT
HETATM    1  C2  UNL     1      31.950   4.817  47.765  1.00  0.00     0.100 C 
HETATM    2  C3  UNL     1      32.024   4.009  46.687  1.00  0.00     0.041 C 
HETATM    3  C4  UNL     1      33.087   3.957  45.604  1.00  0.00     0.147 C 
HETATM    4  N1  UNL     1      34.383   3.699  46.202  1.00  0.00    -0.291 NA
HETATM    5  C5  UNL     1      34.896   4.083  47.348  1.00  0.00     0.114 C 
HETATM    6  C6  UNL     1      34.357   5.030  48.357  1.00  0.00     0.058 C 
HETATM    7  C7  UNL     1      33.118   5.561  48.304  1.00  0.00     0.106 C 
HETATM    8  O2  UNL     1      33.131   6.884  48.825  1.00  0.00    -0.311 OA
HETATM    9  C8  UNL     1      34.164   7.780  48.440  1.00  0.00     0.405 C 
HETATM   10  N2  UNL     1      33.715   7.765  47.207  1.00  0.00     0.076 NA
HETATM   11  C9  UNL     1      34.238   8.455  46.107  1.00  0.00     0.812 C 
HETATM   12  N3  UNL     1      34.330   8.307  44.824  1.00  0.00    -0.246 NA
HETATM   13  C10 UNL     1      33.797   7.167  44.174  1.00  0.00     0.086 C 
HETATM   14  C11 UNL     1      34.137   6.140  45.004  1.00  0.00     0.021 C 
HETATM   15  C12 UNL     1      32.969   5.228  44.867  1.00  0.00     0.099 C 
HETATM   16  C13 UNL     1      33.002   5.128  43.367  1.00  0.00     0.091 C 
HETATM   17  C15 UNL     1      33.052   6.462  43.100  1.00  0.00     0.126 C 
ENDROOT
BRANCH   1  18
HETATM   18  O1  UNL     1      30.725   4.926  48.357  1.00  0.00    -0.353 OA
HETATM   19  C1  UNL     1      29.736   5.877  48.116  1.00  0.00     0.210 C 
ENDBRANCH   1  18
BRANCH  16  20
HETATM   20  O3  UNL     1      33.005   4.387  42.195  1.00  0.00    -0.357 OA
HETATM   21  C14 UNL     1      34.091   4.289  41.298  1.00  0.00     0.209 C 
ENDBRANCH  16  20
BRANCH  17  22
HETATM   22  O4  UNL     1      32.624   7.396  42.123  1.00  0.00    -0.351 OA
HETATM   23  C16 UNL     1      33.587   8.008  41.286  1.00  0.00     0.210 C 
ENDBRANCH  17  22
TORSDOF 3
ENDMDL
MODEL 9
REMARK VINA RESULT:      -5.9      7.690     10.701
REMARK  3 active torsions:
REMARK  status: ('A' for Active; 'I' for Inactive)
REMARK    1  A    between atoms: O1_2  and  C2_3 
REMARK    2  A    between atoms: C13_18  and  O3_19 
REMARK    3  A    between atoms: C15_21  and  O4_22 
ROOT
HETATM    1  C2  UNL     1      29.161   6.875  48.171  1.00  0.00     0.100 C 
HETATM    2  C3  UNL     1      29.906   5.792  48.475  1.00  0.00     0.041 C 
HETATM    3  C4  UNL     1      31.414   5.626  48.424  1.00  0.00     0.147 C 
HETATM    4  N1  UNL     1      32.045   6.613  49.278  1.00  0.00    -0.291 NA
HETATM    5  C5  UNL     1      31.717   7.856  49.549  1.00  0.00     0.114 C 
HETATM    6  C6  UNL     1      30.654   8.705  48.955  1.00  0.00     0.058 C 
HETATM    7  C7  UNL     1      29.720   8.250  48.093  1.00  0.00     0.106 C 
HETATM    8  O2  UNL     1      29.391   9.263  47.151  1.00  0.00    -0.311 OA
HETATM    9  C8  UNL     1      30.426  10.018  46.540  1.00  0.00     0.405 C 
HETATM   10  N2  UNL     1      30.856   8.935  45.934  1.00  0.00     0.076 NA
HETATM   11  C9  UNL     1      31.949   8.828  45.067  1.00  0.00     0.812 C 
HETATM   12  N3  UNL     1      32.830   7.945  44.723  1.00  0.00    -0.246 NA
HETATM   13  C10 UNL     1      32.837   6.649  45.296  1.00  0.00     0.086 C 
HETATM   14  C11 UNL     1      32.587   6.884  46.616  1.00  0.00     0.021 C 
HETATM   15  C12 UNL     1      31.776   5.696  46.996  1.00  0.00     0.099 C 
HETATM   16  C13 UNL     1      32.748   4.658  46.508  1.00  0.00     0.091 C 
HETATM   17  C15 UNL     1      32.943   5.168  45.262  1.00  0.00     0.126 C 
ENDROOT
BRANCH   1  18
HETATM   18  O1  UNL     1      27.836   6.652  47.931  1.00  0.00    -0.353 OA
HETATM   19  C1  UNL     1      26.970   5.805  48.618  1.00  0.00     0.210 C 
ENDBRANCH   1  18
BRANCH  16  20
HETATM   20  O3  UNL     1      33.497   3.506  46.696  1.00  0.00    -0.357 OA
HETATM   21  C14 UNL     1      34.754   3.449  47.333  1.00  0.00     0.209 C 
ENDBRANCH  16  20
BRANCH  17  22
HETATM   22  O4  UNL     1      33.218   4.740  43.938  1.00  0.00    -0.351 OA
HETATM   23  C16 UNL     1      34.501   4.977  43.390  1.00  0.00     0.210 C 
ENDBRANCH  17  22
TORSDOF 3
ENDMDL
