MODEL 1
REMARK VINA RESULT:      -7.2      0.000      0.000
REMARK  3 active torsions:
REMARK  status: ('A' for Active; 'I' for Inactive)
REMARK    1  A    between atoms: C1_2  and  N1_3 
REMARK    2  A    between atoms: N1_3  and  C2_4 
REMARK    3  A    between atoms: N4_12  and  C8_13 
ROOT
HETATM    1  C2  UNL     1      23.774  -0.169  53.577  1.00  0.00     0.035 C 
HETATM    2  C3  UNL     1      24.999  -0.634  53.322  1.00  0.00     0.031 C 
HETATM    3  C4  UNL     1      26.279  -0.523  52.688  1.00  0.00     0.021 C 
HETATM    4  C5  UNL     1      26.829   0.388  51.905  1.00  0.00     0.112 C 
HETATM    5  N2  UNL     1      26.115   1.540  51.548  1.00  0.00    -0.278 N 
HETATM    6  C6  UNL     1      26.674   2.674  51.193  1.00  0.00     0.196 A 
HETATM    7  N3  UNL     1      25.262   2.612  51.218  1.00  0.00    -0.157 NA
HETATM    8  C7  UNL     1      24.645   3.702  51.629  1.00  0.00     0.230 C 
HETATM    9  N4  UNL     1      23.482   2.877  51.373  1.00  0.00    -0.334 N 
HETATM   10  C14 UNL     1      22.842   2.042  52.353  1.00  0.00     0.095 C 
HETATM   11  C15 UNL     1      22.944   0.971  53.127  1.00  0.00     0.046 C 
ENDROOT
BRANCH   9  12
HETATM   12  C8  UNL     1      22.941   2.903  50.022  1.00  0.00     0.037 A 
HETATM   13  C9  UNL     1      22.371   1.801  49.474  1.00  0.00     0.033 A 
HETATM   14  C10 UNL     1      21.852   1.795  48.200  1.00  0.00     0.046 A 
HETATM   15  C11 UNL     1      21.941   2.983  47.496  1.00  0.00     0.138 A 
HETATM   16  F1  UNL     1      21.440   3.004  46.246  1.00  0.00    -0.204 F 
HETATM   17  C12 UNL     1      22.517   4.142  48.012  1.00  0.00     0.074 A 
HETATM   18 CL1  UNL     1      22.574   5.574  47.040  1.00  0.00    -0.081 Cl
HETATM   19  C13 UNL     1      23.013   4.071  49.292  1.00  0.00     0.056 A 
ENDBRANCH   9  12
BRANCH   1  20
HETATM   20  N1  UNL     1      22.989  -1.016  54.458  1.00  0.00    -0.334 N 
HETATM   21  H2  UNL     1      23.501  -1.759  54.964  1.00  0.00     0.168 HD
BRANCH  20  22
HETATM   22  C1  UNL     1      21.585  -0.848  54.629  1.00  0.00     0.353 C 
HETATM   23  O1  UNL     1      20.812  -1.835  54.705  1.00  0.00    -0.283 OA
ENDBRANCH  20  22
ENDBRANCH   1  20
TORSDOF 3
ENDMDL
MODEL 2
REMARK VINA RESULT:      -7.1      2.818      4.248
REMARK  3 active torsions:
REMARK  status: ('A' for Active; 'I' for Inactive)
REMARK    1  A    between atoms: C1_2  and  N1_3 
REMARK    2  A    between atoms: N1_3  and  C2_4 
REMARK    3  A    between atoms: N4_12  and  C8_13 
ROOT
HETATM    1  C2  UNL     1      24.233  -0.443  53.939  1.00  0.00     0.035 C 
HETATM    2  C3  UNL     1      23.143  -0.845  54.596  1.00  0.00     0.031 C 
HETATM    3  C4  UNL     1      21.719  -0.937  54.732  1.00  0.00     0.021 C 
HETATM    4  C5  UNL     1      20.707  -0.517  53.994  1.00  0.00     0.112 C 
HETATM    5  N2  UNL     1      20.942   0.172  52.795  1.00  0.00    -0.278 N 
HETATM    6  C6  UNL     1      20.093   0.220  51.794  1.00  0.00     0.196 A 
HETATM    7  N3  UNL     1      21.322   0.905  51.654  1.00  0.00    -0.157 NA
HETATM    8  C7  UNL     1      21.861   0.879  50.451  1.00  0.00     0.230 C 
HETATM    9  N4  UNL     1      22.871   1.668  51.127  1.00  0.00    -0.334 N 
HETATM   10  C14 UNL     1      24.045   1.125  51.757  1.00  0.00     0.095 C 
HETATM   11  C15 UNL     1      24.523   0.384  52.747  1.00  0.00     0.046 C 
ENDROOT
BRANCH   9  12
HETATM   12  C8  UNL     1      22.666   3.109  51.164  1.00  0.00     0.037 A 
HETATM   13  C9  UNL     1      22.960   3.830  52.274  1.00  0.00     0.033 A 
HETATM   14  C10 UNL     1      22.776   5.191  52.341  1.00  0.00     0.046 A 
HETATM   15  C11 UNL     1      22.269   5.797  51.204  1.00  0.00     0.138 A 
HETATM   16  F1  UNL     1      22.079   7.130  51.241  1.00  0.00    -0.204 F 
HETATM   17  C12 UNL     1      21.951   5.103  50.038  1.00  0.00     0.074 A 
HETATM   18 CL1  UNL     1      21.323   5.964  48.675  1.00  0.00    -0.081 Cl
HETATM   19  C13 UNL     1      22.163   3.745  50.048  1.00  0.00     0.056 A 
ENDBRANCH   9  12
BRANCH   1  20
HETATM   20  N1  UNL     1      25.482  -0.829  54.572  1.00  0.00    -0.334 N 
HETATM   21  H2  UNL     1      25.586  -1.826  54.825  1.00  0.00     0.168 HD
BRANCH  20  22
HETATM   22  C1  UNL     1      26.523   0.106  54.840  1.00  0.00     0.353 C 
HETATM   23  O1  UNL     1      27.723  -0.254  54.919  1.00  0.00    -0.283 OA
ENDBRANCH  20  22
ENDBRANCH   1  20
TORSDOF 3
ENDMDL
MODEL 3
REMARK VINA RESULT:      -7.1      4.461      6.874
REMARK  3 active torsions:
REMARK  status: ('A' for Active; 'I' for Inactive)
REMARK    1  A    between atoms: C1_2  and  N1_3 
REMARK    2  A    between atoms: N1_3  and  C2_4 
REMARK    3  A    between atoms: N4_12  and  C8_13 
ROOT
HETATM    1  C2  UNL     1      23.662   5.841  51.175  1.00  0.00     0.035 C 
HETATM    2  C3  UNL     1      23.539   5.580  49.872  1.00  0.00     0.031 C 
HETATM    3  C4  UNL     1      23.324   4.668  48.787  1.00  0.00     0.021 C 
HETATM    4  C5  UNL     1      23.094   3.369  48.725  1.00  0.00     0.112 C 
HETATM    5  N2  UNL     1      23.014   2.606  49.898  1.00  0.00    -0.278 N 
HETATM    6  C6  UNL     1      22.359   1.472  49.997  1.00  0.00     0.196 A 
HETATM    7  N3  UNL     1      23.024   1.955  51.147  1.00  0.00    -0.157 NA
HETATM    8  C7  UNL     1      22.409   1.754  52.295  1.00  0.00     0.230 C 
HETATM    9  N4  UNL     1      23.584   2.437  52.795  1.00  0.00    -0.334 N 
HETATM   10  C14 UNL     1      23.677   3.859  52.998  1.00  0.00     0.095 C 
HETATM   11  C15 UNL     1      23.706   5.054  52.427  1.00  0.00     0.046 C 
ENDROOT
BRANCH   9  12
HETATM   12  C8  UNL     1      24.743   1.613  53.106  1.00  0.00     0.037 A 
HETATM   13  C9  UNL     1      24.625   0.272  53.269  1.00  0.00     0.033 A 
HETATM   14  C10 UNL     1      25.700  -0.533  53.563  1.00  0.00     0.046 A 
HETATM   15  C11 UNL     1      26.924   0.101  53.687  1.00  0.00     0.138 A 
HETATM   16  F1  UNL     1      27.995  -0.664  53.975  1.00  0.00    -0.204 F 
HETATM   17  C12 UNL     1      27.100   1.475  53.529  1.00  0.00     0.074 A 
HETATM   18 CL1  UNL     1      28.679   2.161  53.706  1.00  0.00    -0.081 Cl
HETATM   19  C13 UNL     1      25.978   2.213  53.235  1.00  0.00     0.056 A 
ENDBRANCH   9  12
BRANCH   1  20
HETATM   20  N1  UNL     1      23.897   7.242  51.479  1.00  0.00    -0.334 N 
HETATM   21  H2  UNL     1      23.929   7.501  52.480  1.00  0.00     0.168 HD
BRANCH  20  22
HETATM   22  C1  UNL     1      24.075   8.225  50.463  1.00  0.00     0.353 C 
HETATM   23  O1  UNL     1      25.204   8.716  50.217  1.00  0.00    -0.283 OA
ENDBRANCH  20  22
ENDBRANCH   1  20
TORSDOF 3
ENDMDL
MODEL 4
REMARK VINA RESULT:      -7.0      3.644      4.635
REMARK  3 active torsions:
REMARK  status: ('A' for Active; 'I' for Inactive)
REMARK    1  A    between atoms: C1_2  and  N1_3 
REMARK    2  A    between atoms: N1_3  and  C2_4 
REMARK    3  A    between atoms: N4_12  and  C8_13 
ROOT
HETATM    1  C2  UNL     1      26.416   2.095  52.055  1.00  0.00     0.035 C 
HETATM    2  C3  UNL     1      26.789   2.688  50.919  1.00  0.00     0.031 C 
HETATM    3  C4  UNL     1      26.531   3.563  49.814  1.00  0.00     0.021 C 
HETATM    4  C5  UNL     1      25.499   4.314  49.471  1.00  0.00     0.112 C 
HETATM    5  N2  UNL     1      24.353   4.354  50.278  1.00  0.00    -0.278 N 
HETATM    6  C6  UNL     1      23.505   5.357  50.304  1.00  0.00     0.196 A 
HETATM    7  N3  UNL     1      23.247   4.249  51.144  1.00  0.00    -0.157 NA
HETATM    8  C7  UNL     1      22.737   4.530  52.326  1.00  0.00     0.230 C 
HETATM    9  N4  UNL     1      22.800   3.088  52.453  1.00  0.00    -0.334 N 
HETATM   10  C14 UNL     1      23.912   2.365  53.010  1.00  0.00     0.095 C 
HETATM   11  C15 UNL     1      25.182   2.016  52.869  1.00  0.00     0.046 C 
ENDROOT
BRANCH   9  12
HETATM   12  C8  UNL     1      21.650   2.335  51.974  1.00  0.00     0.037 A 
HETATM   13  C9  UNL     1      21.794   1.082  51.473  1.00  0.00     0.033 A 
HETATM   14  C10 UNL     1      20.728   0.346  51.012  1.00  0.00     0.046 A 
HETATM   15  C11 UNL     1      19.486   0.953  51.084  1.00  0.00     0.138 A 
HETATM   16  F1  UNL     1      18.425   0.254  50.639  1.00  0.00    -0.204 F 
HETATM   17  C12 UNL     1      19.285   2.236  51.589  1.00  0.00     0.074 A 
HETATM   18 CL1  UNL     1      17.685   2.897  51.632  1.00  0.00    -0.081 Cl
HETATM   19  C13 UNL     1      20.398   2.909  52.032  1.00  0.00     0.056 A 
ENDBRANCH   9  12
BRANCH   1  20
HETATM   20  N1  UNL     1      27.429   1.229  52.633  1.00  0.00    -0.334 N 
HETATM   21  H2  UNL     1      27.318   0.213  52.471  1.00  0.00     0.168 HD
BRANCH  20  22
HETATM   22  C1  UNL     1      28.526   1.734  53.387  1.00  0.00     0.353 C 
HETATM   23  O1  UNL     1      28.388   2.698  54.179  1.00  0.00    -0.283 OA
ENDBRANCH  20  22
ENDBRANCH   1  20
TORSDOF 3
ENDMDL
MODEL 5
REMARK VINA RESULT:      -7.0      1.747      2.209
REMARK  3 active torsions:
REMARK  status: ('A' for Active; 'I' for Inactive)
REMARK    1  A    between atoms: C1_2  and  N1_3 
REMARK    2  A    between atoms: N1_3  and  C2_4 
REMARK    3  A    between atoms: N4_12  and  C8_13 
ROOT
HETATM    1  C2  UNL     1      20.887  -0.126  53.698  1.00  0.00     0.035 C 
HETATM    2  C3  UNL     1      22.051  -0.694  54.020  1.00  0.00     0.031 C 
HETATM    3  C4  UNL     1      23.484  -0.707  54.027  1.00  0.00     0.021 C 
HETATM    4  C5  UNL     1      24.402   0.128  53.573  1.00  0.00     0.112 C 
HETATM    5  N2  UNL     1      24.025   1.317  52.933  1.00  0.00    -0.278 N 
HETATM    6  C6  UNL     1      24.780   2.389  52.866  1.00  0.00     0.196 A 
HETATM    7  N3  UNL     1      23.506   2.437  52.256  1.00  0.00    -0.157 NA
HETATM    8  C7  UNL     1      22.868   3.587  52.346  1.00  0.00     0.230 C 
HETATM    9  N4  UNL     1      21.875   2.845  51.596  1.00  0.00    -0.334 N 
HETATM   10  C14 UNL     1      20.794   2.101  52.186  1.00  0.00     0.095 C 
HETATM   11  C15 UNL     1      20.447   1.056  52.924  1.00  0.00     0.046 C 
ENDROOT
BRANCH   9  12
HETATM   12  C8  UNL     1      21.998   2.860  50.146  1.00  0.00     0.037 A 
HETATM   13  C9  UNL     1      21.851   1.725  49.418  1.00  0.00     0.033 A 
HETATM   14  C10 UNL     1      21.963   1.707  48.048  1.00  0.00     0.046 A 
HETATM   15  C11 UNL     1      22.236   2.919  47.439  1.00  0.00     0.138 A 
HETATM   16  F1  UNL     1      22.351   2.931  46.097  1.00  0.00    -0.204 F 
HETATM   17  C12 UNL     1      22.396   4.114  48.140  1.00  0.00     0.074 A 
HETATM   18 CL1  UNL     1      22.736   5.574  47.274  1.00  0.00    -0.081 Cl
HETATM   19  C13 UNL     1      22.269   4.052  49.507  1.00  0.00     0.056 A 
ENDBRANCH   9  12
BRANCH   1  20
HETATM   20  N1  UNL     1      19.721  -0.875  54.135  1.00  0.00    -0.334 N 
HETATM   21  H2  UNL     1      19.719  -1.199  55.117  1.00  0.00     0.168 HD
BRANCH  20  22
HETATM   22  C1  UNL     1      18.627  -1.160  53.268  1.00  0.00     0.353 C 
HETATM   23  O1  UNL     1      17.439  -0.997  53.638  1.00  0.00    -0.283 OA
ENDBRANCH  20  22
ENDBRANCH   1  20
TORSDOF 3
ENDMDL
MODEL 6
REMARK VINA RESULT:      -6.9      4.517      6.727
REMARK  3 active torsions:
REMARK  status: ('A' for Active; 'I' for Inactive)
REMARK    1  A    between atoms: C1_2  and  N1_3 
REMARK    2  A    between atoms: N1_3  and  C2_4 
REMARK    3  A    between atoms: N4_12  and  C8_13 
ROOT
HETATM    1  C2  UNL     1      22.356   5.148  51.015  1.00  0.00     0.035 C 
HETATM    2  C3  UNL     1      23.010   4.857  49.889  1.00  0.00     0.031 C 
HETATM    3  C4  UNL     1      23.365   3.945  48.841  1.00  0.00     0.021 C 
HETATM    4  C5  UNL     1      23.032   2.696  48.572  1.00  0.00     0.112 C 
HETATM    5  N2  UNL     1      22.147   2.003  49.410  1.00  0.00    -0.278 N 
HETATM    6  C6  UNL     1      21.408   0.987  49.024  1.00  0.00     0.196 A 
HETATM    7  N3  UNL     1      21.303   1.409  50.369  1.00  0.00    -0.157 NA
HETATM    8  C7  UNL     1      20.097   1.351  50.898  1.00  0.00     0.230 C 
HETATM    9  N4  UNL     1      20.813   1.866  52.046  1.00  0.00    -0.334 N 
HETATM   10  C14 UNL     1      20.973   3.263  52.351  1.00  0.00     0.095 C 
HETATM   11  C15 UNL     1      21.516   4.415  51.989  1.00  0.00     0.046 C 
ENDROOT
BRANCH   9  12
HETATM   12  C8  UNL     1      21.411   0.886  52.942  1.00  0.00     0.037 A 
HETATM   13  C9  UNL     1      20.647   0.152  53.788  1.00  0.00     0.033 A 
HETATM   14  C10 UNL     1      21.182  -0.779  54.646  1.00  0.00     0.046 A 
HETATM   15  C11 UNL     1      22.557  -0.933  54.604  1.00  0.00     0.138 A 
HETATM   16  F1  UNL     1      23.108  -1.839  55.435  1.00  0.00    -0.204 F 
HETATM   17  C12 UNL     1      23.387  -0.204  53.755  1.00  0.00     0.074 A 
HETATM   18 CL1  UNL     1      25.096  -0.479  53.787  1.00  0.00    -0.081 Cl
HETATM   19  C13 UNL     1      22.779   0.707  52.926  1.00  0.00     0.056 A 
ENDBRANCH   9  12
BRANCH   1  20
HETATM   20  N1  UNL     1      22.561   6.508  51.485  1.00  0.00    -0.334 N 
HETATM   21  H2  UNL     1      22.358   6.689  52.483  1.00  0.00     0.168 HD
BRANCH  20  22
HETATM   22  C1  UNL     1      23.015   7.552  50.628  1.00  0.00     0.353 C 
HETATM   23  O1  UNL     1      24.140   8.085  50.786  1.00  0.00    -0.283 OA
ENDBRANCH  20  22
ENDBRANCH   1  20
TORSDOF 3
ENDMDL
MODEL 7
REMARK VINA RESULT:      -6.6      4.597      6.821
REMARK  3 active torsions:
REMARK  status: ('A' for Active; 'I' for Inactive)
REMARK    1  A    between atoms: C1_2  and  N1_3 
REMARK    2  A    between atoms: N1_3  and  C2_4 
REMARK    3  A    between atoms: N4_12  and  C8_13 
ROOT
HETATM    1  C2  UNL     1      24.276   6.117  50.651  1.00  0.00     0.035 C 
HETATM    2  C3  UNL     1      24.138   5.990  49.330  1.00  0.00     0.031 C 
HETATM    3  C4  UNL     1      23.460   5.466  48.180  1.00  0.00     0.021 C 
HETATM    4  C5  UNL     1      22.397   4.697  48.025  1.00  0.00     0.112 C 
HETATM    5  N2  UNL     1      21.690   4.232  49.143  1.00  0.00    -0.278 N 
HETATM    6  C6  UNL     1      20.424   3.880  49.120  1.00  0.00     0.196 A 
HETATM    7  N3  UNL     1      21.117   3.785  50.349  1.00  0.00    -0.157 NA
HETATM    8  C7  UNL     1      20.423   4.094  51.426  1.00  0.00     0.230 C 
HETATM    9  N4  UNL     1      21.683   3.772  52.064  1.00  0.00    -0.334 N 
HETATM   10  C14 UNL     1      22.719   4.726  52.353  1.00  0.00     0.095 C 
HETATM   11  C15 UNL     1      23.631   5.549  51.856  1.00  0.00     0.046 C 
ENDROOT
BRANCH   9  12
HETATM   12  C8  UNL     1      21.900   2.379  52.427  1.00  0.00     0.037 A 
HETATM   13  C9  UNL     1      20.857   1.558  52.710  1.00  0.00     0.033 A 
HETATM   14  C10 UNL     1      21.030   0.239  53.057  1.00  0.00     0.046 A 
HETATM   15  C11 UNL     1      22.336  -0.217  53.103  1.00  0.00     0.138 A 
HETATM   16  F1  UNL     1      22.534  -1.506  53.440  1.00  0.00    -0.204 F 
HETATM   17  C12 UNL     1      23.442   0.584  52.821  1.00  0.00     0.074 A 
HETATM   18 CL1  UNL     1      25.032  -0.093  52.910  1.00  0.00    -0.081 Cl
HETATM   19  C13 UNL     1      23.189   1.891  52.482  1.00  0.00     0.056 A 
ENDBRANCH   9  12
BRANCH   1  20
HETATM   20  N1  UNL     1      25.388   6.961  51.053  1.00  0.00    -0.334 N 
HETATM   21  H2  UNL     1      25.639   6.951  52.057  1.00  0.00     0.168 HD
BRANCH  20  22
HETATM   22  C1  UNL     1      26.107   7.770  50.127  1.00  0.00     0.353 C 
HETATM   23  O1  UNL     1      26.020   9.022  50.145  1.00  0.00    -0.283 OA
ENDBRANCH  20  22
ENDBRANCH   1  20
TORSDOF 3
ENDMDL
MODEL 8
REMARK VINA RESULT:      -6.6      4.265      6.783
REMARK  3 active torsions:
REMARK  status: ('A' for Active; 'I' for Inactive)
REMARK    1  A    between atoms: C1_2  and  N1_3 
REMARK    2  A    between atoms: N1_3  and  C2_4 
REMARK    3  A    between atoms: N4_12  and  C8_13 
ROOT
HETATM    1  C2  UNL     1      21.584   4.235  47.925  1.00  0.00     0.035 C 
HETATM    2  C3  UNL     1      21.070   5.284  48.570  1.00  0.00     0.031 C 
HETATM    3  C4  UNL     1      20.978   6.130  49.724  1.00  0.00     0.021 C 
HETATM    4  C5  UNL     1      21.591   6.138  50.895  1.00  0.00     0.112 C 
HETATM    5  N2  UNL     1      22.562   5.172  51.194  1.00  0.00    -0.278 N 
HETATM    6  C6  UNL     1      23.524   5.341  52.072  1.00  0.00     0.196 A 
HETATM    7  N3  UNL     1      23.464   4.107  51.384  1.00  0.00    -0.157 NA
HETATM    8  C7  UNL     1      24.624   3.569  51.065  1.00  0.00     0.230 C 
HETATM    9  N4  UNL     1      23.753   2.552  50.511  1.00  0.00    -0.334 N 
HETATM   10  C14 UNL     1      23.275   2.536  49.154  1.00  0.00     0.095 C 
HETATM   11  C15 UNL     1      22.512   3.127  48.247  1.00  0.00     0.046 C 
ENDROOT
BRANCH   9  12
HETATM   12  C8  UNL     1      23.338   1.482  51.407  1.00  0.00     0.037 A 
HETATM   13  C9  UNL     1      22.083   0.970  51.352  1.00  0.00     0.033 A 
HETATM   14  C10 UNL     1      21.661  -0.040  52.185  1.00  0.00     0.046 A 
HETATM   15  C11 UNL     1      22.592  -0.513  53.094  1.00  0.00     0.138 A 
HETATM   16  F1  UNL     1      22.205  -1.502  53.923  1.00  0.00    -0.204 F 
HETATM   17  C12 UNL     1      23.892  -0.022  53.192  1.00  0.00     0.074 A 
HETATM   18 CL1  UNL     1      24.972  -0.690  54.368  1.00  0.00    -0.081 Cl
HETATM   19  C13 UNL     1      24.240   0.987  52.325  1.00  0.00     0.056 A 
ENDBRANCH   9  12
BRANCH   1  20
HETATM   20  N1  UNL     1      21.062   4.050  46.583  1.00  0.00    -0.334 N 
HETATM   21  H2  UNL     1      20.040   4.156  46.464  1.00  0.00     0.168 HD
BRANCH  20  22
HETATM   22  C1  UNL     1      21.899   3.736  45.473  1.00  0.00     0.353 C 
HETATM   23  O1  UNL     1      21.431   3.600  44.317  1.00  0.00    -0.283 OA
ENDBRANCH  20  22
ENDBRANCH   1  20
TORSDOF 3
ENDMDL
MODEL 9
REMARK VINA RESULT:      -6.5      9.383     10.798
REMARK  3 active torsions:
REMARK  status: ('A' for Active; 'I' for Inactive)
REMARK    1  A    between atoms: C1_2  and  N1_3 
REMARK    2  A    between atoms: N1_3  and  C2_4 
REMARK    3  A    between atoms: N4_12  and  C8_13 
ROOT
HETATM    1  C2  UNL     1      32.275   3.823  46.325  1.00  0.00     0.035 C 
HETATM    2  C3  UNL     1      32.837   4.302  45.213  1.00  0.00     0.031 C 
HETATM    3  C4  UNL     1      33.478   5.354  44.480  1.00  0.00     0.021 C 
HETATM    4  C5  UNL     1      33.840   6.586  44.790  1.00  0.00     0.112 C 
HETATM    5  N2  UNL     1      33.609   7.090  46.078  1.00  0.00    -0.278 N 
HETATM    6  C6  UNL     1      34.303   8.063  46.624  1.00  0.00     0.196 A 
HETATM    7  N3  UNL     1      33.259   7.487  47.383  1.00  0.00    -0.157 NA
HETATM    8  C7  UNL     1      33.487   7.365  48.676  1.00  0.00     0.230 C 
HETATM    9  N4  UNL     1      32.153   6.800  48.636  1.00  0.00    -0.334 N 
HETATM   10  C14 UNL     1      31.863   5.401  48.468  1.00  0.00     0.095 C 
HETATM   11  C15 UNL     1      31.905   4.356  47.655  1.00  0.00     0.046 C 
ENDROOT
BRANCH   9  12
HETATM   12  C8  UNL     1      31.041   7.729  48.772  1.00  0.00     0.037 A 
HETATM   13  C9  UNL     1      31.203   8.931  49.379  1.00  0.00     0.033 A 
HETATM   14  C10 UNL     1      30.172   9.830  49.524  1.00  0.00     0.046 A 
HETATM   15  C11 UNL     1      28.945   9.442  49.013  1.00  0.00     0.138 A 
HETATM   16  F1  UNL     1      27.917  10.303  49.142  1.00  0.00    -0.204 F 
HETATM   17  C12 UNL     1      28.725   8.220  48.381  1.00  0.00     0.074 A 
HETATM   18 CL1  UNL     1      27.148   7.839  47.780  1.00  0.00    -0.081 Cl
HETATM   19  C13 UNL     1      29.804   7.375  48.274  1.00  0.00     0.056 A 
ENDBRANCH   9  12
BRANCH   1  20
HETATM   20  N1  UNL     1      31.822   2.447  46.215  1.00  0.00    -0.334 N 
HETATM   21  H2  UNL     1      30.989   2.279  45.624  1.00  0.00     0.168 HD
BRANCH  20  22
HETATM   22  C1  UNL     1      32.476   1.371  46.882  1.00  0.00     0.353 C 
HETATM   23  O1  UNL     1      32.044   0.195  46.806  1.00  0.00    -0.283 OA
ENDBRANCH  20  22
ENDBRANCH   1  20
TORSDOF 3
ENDMDL
