MODEL 1
REMARK VINA RESULT:      -8.1      0.000      0.000
REMARK  4 active torsions:
REMARK  status: ('A' for Active; 'I' for Inactive)
REMARK    1  A    between atoms: N1_1  and  C1_2 
REMARK    2  A    between atoms: C1_2  and  N2_3 
REMARK    3  A    between atoms: N2_3  and  C2_4 
REMARK    4  A    between atoms: C10_14  and  C11_15 
ROOT
HETATM    1  C2  UNL     1      28.508   0.090  53.893  1.00  0.00     0.724 A 
HETATM    2  N3  UNL     1      29.278   1.199  54.005  1.00  0.00    -0.075 NA
HETATM    3  C3  UNL     1      28.784   2.407  53.604  1.00  0.00     0.139 A 
HETATM    4  C4  UNL     1      27.515   2.375  53.112  1.00  0.00     0.053 A 
HETATM    5  C5  UNL     1      26.680   1.310  52.964  1.00  0.00     0.089 A 
HETATM    6  C6  UNL     1      25.311   1.202  52.529  1.00  0.00     0.023 A 
HETATM    7  C7  UNL     1      24.543   0.234  53.195  1.00  0.00     0.017 A 
HETATM    8  C8  UNL     1      23.212  -0.058  52.982  1.00  0.00     0.020 A 
HETATM    9  C9  UNL     1      22.601   0.696  52.008  1.00  0.00     0.117 A 
HETATM   10  N4  UNL     1      23.306   1.625  51.352  1.00  0.00    -0.259 NA
HETATM   11  C10 UNL     1      24.609   1.888  51.579  1.00  0.00     0.079 A 
HETATM   12  N5  UNL     1      27.274   0.159  53.396  1.00  0.00    -0.062 NA
ENDROOT
BRANCH  11  13
HETATM   13  C11 UNL     1      25.303   2.797  50.683  1.00  0.00    -0.006 C 
HETATM   14  C12 UNL     1      24.964   4.102  50.648  1.00  0.00     0.014 C 
HETATM   15  C13 UNL     1      25.768   4.887  49.685  1.00  0.00     0.013 C 
HETATM   16  C14 UNL     1      26.771   4.018  49.567  1.00  0.00    -0.025 C 
HETATM   17  C15 UNL     1      26.313   2.773  49.614  1.00  0.00     0.026 C 
ENDBRANCH  11  13
BRANCH   1  18
HETATM   18  N2  UNL     1      29.058  -1.163  54.325  1.00  0.00    -0.196 N 
HETATM   19  H5  UNL     1      29.318  -1.568  55.261  1.00  0.00     0.179 HD
BRANCH  18  20
HETATM   20  C1  UNL     1      29.293  -2.044  53.183  1.00  0.00     0.405 C 
BRANCH  20  21
HETATM   21  N1  UNL     1      28.359  -3.119  53.090  1.00  0.00     0.096 N 
HETATM   22  H1  UNL     1      27.678  -3.213  53.850  1.00  0.00     0.314 HD
HETATM   23  H2  UNL     1      28.793  -4.039  52.853  1.00  0.00     0.314 HD
ENDBRANCH  20  21
ENDBRANCH  18  20
ENDBRANCH   1  18
TORSDOF 4
ENDMDL
MODEL 2
REMARK VINA RESULT:      -7.8      2.537      5.788
REMARK  4 active torsions:
REMARK  status: ('A' for Active; 'I' for Inactive)
REMARK    1  A    between atoms: N1_1  and  C1_2 
REMARK    2  A    between atoms: C1_2  and  N2_3 
REMARK    3  A    between atoms: N2_3  and  C2_4 
REMARK    4  A    between atoms: C10_14  and  C11_15 
ROOT
HETATM    1  C2  UNL     1      22.403  -1.327  54.329  1.00  0.00     0.724 A 
HETATM    2  N3  UNL     1      22.879  -1.781  55.513  1.00  0.00    -0.075 NA
HETATM    3  C3  UNL     1      24.163  -1.496  55.877  1.00  0.00     0.139 A 
HETATM    4  C4  UNL     1      24.866  -0.755  54.977  1.00  0.00     0.053 A 
HETATM    5  C5  UNL     1      24.466  -0.265  53.772  1.00  0.00     0.089 A 
HETATM    6  C6  UNL     1      25.112   0.583  52.803  1.00  0.00     0.023 A 
HETATM    7  C7  UNL     1      24.274   1.497  52.148  1.00  0.00     0.017 A 
HETATM    8  C8  UNL     1      24.642   2.425  51.197  1.00  0.00     0.020 A 
HETATM    9  C9  UNL     1      25.979   2.430  50.878  1.00  0.00     0.117 A 
HETATM   10  N4  UNL     1      26.806   1.568  51.482  1.00  0.00    -0.259 NA
HETATM   11  C10 UNL     1      26.417   0.668  52.408  1.00  0.00     0.079 A 
HETATM   12  N5  UNL     1      23.169  -0.608  53.511  1.00  0.00    -0.062 NA
ENDROOT
BRANCH  11  13
HETATM   13  C11 UNL     1      27.376  -0.324  52.861  1.00  0.00    -0.006 C 
HETATM   14  C12 UNL     1      27.298  -1.594  52.414  1.00  0.00     0.014 C 
HETATM   15  C13 UNL     1      28.349  -2.474  52.971  1.00  0.00     0.013 C 
HETATM   16  C14 UNL     1      29.176  -1.507  53.366  1.00  0.00    -0.025 C 
HETATM   17  C15 UNL     1      28.488  -0.465  53.814  1.00  0.00     0.026 C 
ENDBRANCH  11  13
BRANCH   1  18
HETATM   18  N2  UNL     1      21.048  -1.643  53.977  1.00  0.00    -0.196 N 
HETATM   19  H5  UNL     1      20.530  -2.537  53.772  1.00  0.00     0.179 HD
BRANCH  18  20
HETATM   20  C1  UNL     1      20.239  -0.429  53.896  1.00  0.00     0.405 C 
BRANCH  20  21
HETATM   21  N1  UNL     1      20.516   0.511  54.935  1.00  0.00     0.096 N 
HETATM   22  H1  UNL     1      20.970   0.152  55.780  1.00  0.00     0.314 HD
HETATM   23  H2  UNL     1      19.710   1.131  55.171  1.00  0.00     0.314 HD
ENDBRANCH  20  21
ENDBRANCH  18  20
ENDBRANCH   1  18
TORSDOF 4
ENDMDL
MODEL 3
REMARK VINA RESULT:      -7.8      2.855      5.880
REMARK  4 active torsions:
REMARK  status: ('A' for Active; 'I' for Inactive)
REMARK    1  A    between atoms: N1_1  and  C1_2 
REMARK    2  A    between atoms: C1_2  and  N2_3 
REMARK    3  A    between atoms: N2_3  and  C2_4 
REMARK    4  A    between atoms: C10_14  and  C11_15 
ROOT
HETATM    1  C2  UNL     1      23.565   4.191  51.831  1.00  0.00     0.724 A 
HETATM    2  N3  UNL     1      24.559   4.184  50.911  1.00  0.00    -0.075 NA
HETATM    3  C3  UNL     1      25.281   3.044  50.705  1.00  0.00     0.139 A 
HETATM    4  C4  UNL     1      24.914   1.984  51.477  1.00  0.00     0.053 A 
HETATM    5  C5  UNL     1      23.935   1.908  52.420  1.00  0.00     0.089 A 
HETATM    6  C6  UNL     1      23.435   0.818  53.218  1.00  0.00     0.023 A 
HETATM    7  C7  UNL     1      22.052   0.826  53.450  1.00  0.00     0.017 A 
HETATM    8  C8  UNL     1      21.325  -0.104  54.163  1.00  0.00     0.020 A 
HETATM    9  C9  UNL     1      22.063  -1.137  54.690  1.00  0.00     0.117 A 
HETATM   10  N4  UNL     1      23.387  -1.173  54.489  1.00  0.00    -0.259 NA
HETATM   11  C10 UNL     1      24.072  -0.247  53.789  1.00  0.00     0.079 A 
HETATM   12  N5  UNL     1      23.279   3.101  52.540  1.00  0.00    -0.062 NA
ENDROOT
BRANCH  11  13
HETATM   13  C11 UNL     1      25.523  -0.306  53.791  1.00  0.00    -0.006 C 
HETATM   14  C12 UNL     1      26.170  -1.096  52.910  1.00  0.00     0.014 C 
HETATM   15  C13 UNL     1      27.642  -1.039  53.045  1.00  0.00     0.013 C 
HETATM   16  C14 UNL     1      27.696   0.105  53.727  1.00  0.00    -0.025 C 
HETATM   17  C15 UNL     1      26.671   0.193  54.565  1.00  0.00     0.026 C 
ENDBRANCH  11  13
BRANCH   1  18
HETATM   18  N2  UNL     1      22.826   5.406  52.020  1.00  0.00    -0.196 N 
HETATM   19  H5  UNL     1      21.979   5.671  52.588  1.00  0.00     0.179 HD
BRANCH  18  20
HETATM   20  C1  UNL     1      23.407   6.491  51.234  1.00  0.00     0.405 C 
BRANCH  20  21
HETATM   21  N1  UNL     1      24.526   7.116  51.864  1.00  0.00     0.096 N 
HETATM   22  H1  UNL     1      25.280   7.446  51.254  1.00  0.00     0.314 HD
HETATM   23  H2  UNL     1      24.903   6.585  52.681  1.00  0.00     0.314 HD
ENDBRANCH  20  21
ENDBRANCH  18  20
ENDBRANCH   1  18
TORSDOF 4
ENDMDL
MODEL 4
REMARK VINA RESULT:      -7.7      1.499      2.088
REMARK  4 active torsions:
REMARK  status: ('A' for Active; 'I' for Inactive)
REMARK    1  A    between atoms: N1_1  and  C1_2 
REMARK    2  A    between atoms: C1_2  and  N2_3 
REMARK    3  A    between atoms: N2_3  and  C2_4 
REMARK    4  A    between atoms: C10_14  and  C11_15 
ROOT
HETATM    1  C2  UNL     1      28.399  -0.173  53.970  1.00  0.00     0.724 A 
HETATM    2  N3  UNL     1      28.893   1.073  53.781  1.00  0.00    -0.075 NA
HETATM    3  C3  UNL     1      28.035   2.125  53.641  1.00  0.00     0.139 A 
HETATM    4  C4  UNL     1      26.714   1.803  53.706  1.00  0.00     0.053 A 
HETATM    5  C5  UNL     1      26.138   0.583  53.890  1.00  0.00     0.089 A 
HETATM    6  C6  UNL     1      24.767   0.168  54.047  1.00  0.00     0.023 A 
HETATM    7  C7  UNL     1      24.557  -0.887  54.948  1.00  0.00     0.017 A 
HETATM    8  C8  UNL     1      23.348  -1.457  55.289  1.00  0.00     0.020 A 
HETATM    9  C9  UNL     1      22.252  -0.912  54.664  1.00  0.00     0.117 A 
HETATM   10  N4  UNL     1      22.419   0.094  53.796  1.00  0.00    -0.259 NA
HETATM   11  C10 UNL     1      23.614   0.630  53.478  1.00  0.00     0.079 A 
HETATM   12  N5  UNL     1      27.087  -0.392  54.020  1.00  0.00    -0.062 NA
ENDROOT
BRANCH  11  13
HETATM   13  C11 UNL     1      23.679   1.598  52.397  1.00  0.00    -0.006 C 
HETATM   14  C12 UNL     1      23.459   2.905  52.644  1.00  0.00     0.014 C 
HETATM   15  C13 UNL     1      23.564   3.752  51.436  1.00  0.00     0.013 C 
HETATM   16  C14 UNL     1      24.244   2.884  50.688  1.00  0.00    -0.025 C 
HETATM   17  C15 UNL     1      23.838   1.644  50.935  1.00  0.00     0.026 C 
ENDBRANCH  11  13
BRANCH   1  18
HETATM   18  N2  UNL     1      29.330  -1.256  54.116  1.00  0.00    -0.196 N 
HETATM   19  H5  UNL     1      30.035  -1.527  54.851  1.00  0.00     0.179 HD
BRANCH  18  20
HETATM   20  C1  UNL     1      29.252  -2.162  52.972  1.00  0.00     0.405 C 
BRANCH  20  21
HETATM   21  N1  UNL     1      28.381  -3.274  53.183  1.00  0.00     0.096 N 
HETATM   22  H1  UNL     1      28.793  -4.117  53.594  1.00  0.00     0.314 HD
HETATM   23  H2  UNL     1      27.783  -3.506  52.359  1.00  0.00     0.314 HD
ENDBRANCH  20  21
ENDBRANCH  18  20
ENDBRANCH   1  18
TORSDOF 4
ENDMDL
MODEL 5
REMARK VINA RESULT:      -7.5      2.240      4.805
REMARK  4 active torsions:
REMARK  status: ('A' for Active; 'I' for Inactive)
REMARK    1  A    between atoms: N1_1  and  C1_2 
REMARK    2  A    between atoms: C1_2  and  N2_3 
REMARK    3  A    between atoms: N2_3  and  C2_4 
REMARK    4  A    between atoms: C10_14  and  C11_15 
ROOT
HETATM    1  C2  UNL     1      26.641   1.834  53.732  1.00  0.00     0.724 A 
HETATM    2  N3  UNL     1      26.860   0.674  54.395  1.00  0.00    -0.075 NA
HETATM    3  C3  UNL     1      25.968  -0.352  54.272  1.00  0.00     0.139 A 
HETATM    4  C4  UNL     1      24.904  -0.095  53.463  1.00  0.00     0.053 A 
HETATM    5  C5  UNL     1      24.610   1.037  52.766  1.00  0.00     0.089 A 
HETATM    6  C6  UNL     1      23.559   1.362  51.836  1.00  0.00     0.023 A 
HETATM    7  C7  UNL     1      23.934   2.193  50.770  1.00  0.00     0.017 A 
HETATM    8  C8  UNL     1      23.129   2.636  49.741  1.00  0.00     0.020 A 
HETATM    9  C9  UNL     1      21.826   2.200  49.795  1.00  0.00     0.117 A 
HETATM   10  N4  UNL     1      21.435   1.409  50.802  1.00  0.00    -0.259 NA
HETATM   11  C10 UNL     1      22.244   0.993  51.797  1.00  0.00     0.079 A 
HETATM   12  N5  UNL     1      25.567   1.993  52.961  1.00  0.00    -0.062 NA
ENDROOT
BRANCH  11  13
HETATM   13  C11 UNL     1      21.658   0.282  52.920  1.00  0.00    -0.006 C 
HETATM   14  C12 UNL     1      21.648  -1.066  52.936  1.00  0.00     0.014 C 
HETATM   15  C13 UNL     1      21.017  -1.631  54.149  1.00  0.00     0.013 C 
HETATM   16  C14 UNL     1      21.101  -0.533  54.900  1.00  0.00    -0.025 C 
HETATM   17  C15 UNL     1      20.909   0.551  54.157  1.00  0.00     0.026 C 
ENDBRANCH  11  13
BRANCH   1  18
HETATM   18  N2  UNL     1      27.600   2.892  53.882  1.00  0.00    -0.196 N 
HETATM   19  H5  UNL     1      27.538   3.909  54.147  1.00  0.00     0.179 HD
BRANCH  18  20
HETATM   20  C1  UNL     1      28.949   2.409  53.595  1.00  0.00     0.405 C 
BRANCH  20  21
HETATM   21  N1  UNL     1      29.712   2.118  54.766  1.00  0.00     0.096 N 
HETATM   22  H1  UNL     1      30.638   2.549  54.838  1.00  0.00     0.314 HD
HETATM   23  H2  UNL     1      29.745   1.103  55.009  1.00  0.00     0.314 HD
ENDBRANCH  20  21
ENDBRANCH  18  20
ENDBRANCH   1  18
TORSDOF 4
ENDMDL
MODEL 6
REMARK VINA RESULT:      -7.5      2.178      5.674
REMARK  4 active torsions:
REMARK  status: ('A' for Active; 'I' for Inactive)
REMARK    1  A    between atoms: N1_1  and  C1_2 
REMARK    2  A    between atoms: C1_2  and  N2_3 
REMARK    3  A    between atoms: N2_3  and  C2_4 
REMARK    4  A    between atoms: C10_14  and  C11_15 
ROOT
HETATM    1  C2  UNL     1      24.410   4.746  50.221  1.00  0.00     0.724 A 
HETATM    2  N3  UNL     1      25.595   4.898  49.585  1.00  0.00    -0.075 NA
HETATM    3  C3  UNL     1      26.564   3.947  49.728  1.00  0.00     0.139 A 
HETATM    4  C4  UNL     1      26.229   2.899  50.529  1.00  0.00     0.053 A 
HETATM    5  C5  UNL     1      25.067   2.673  51.203  1.00  0.00     0.089 A 
HETATM    6  C6  UNL     1      24.606   1.566  52.000  1.00  0.00     0.023 A 
HETATM    7  C7  UNL     1      23.240   1.266  51.882  1.00  0.00     0.017 A 
HETATM    8  C8  UNL     1      22.555   0.253  52.520  1.00  0.00     0.020 A 
HETATM    9  C9  UNL     1      23.319  -0.528  53.354  1.00  0.00     0.117 A 
HETATM   10  N4  UNL     1      24.625  -0.267  53.492  1.00  0.00    -0.259 NA
HETATM   11  C10 UNL     1      25.268   0.733  52.857  1.00  0.00     0.079 A 
HETATM   12  N5  UNL     1      24.173   3.683  50.987  1.00  0.00    -0.062 NA
ENDROOT
BRANCH  11  13
HETATM   13  C11 UNL     1      26.645   1.019  53.224  1.00  0.00    -0.006 C 
HETATM   14  C12 UNL     1      27.600   0.083  53.051  1.00  0.00     0.014 C 
HETATM   15  C13 UNL     1      28.943   0.536  53.472  1.00  0.00     0.013 C 
HETATM   16  C14 UNL     1      28.684   1.843  53.461  1.00  0.00    -0.025 C 
HETATM   17  C15 UNL     1      27.443   2.072  53.872  1.00  0.00     0.026 C 
ENDBRANCH  11  13
BRANCH   1  18
HETATM   18  N2  UNL     1      23.412   5.763  50.048  1.00  0.00    -0.196 N 
HETATM   19  H5  UNL     1      22.507   5.823  49.512  1.00  0.00     0.179 HD
BRANCH  18  20
HETATM   20  C1  UNL     1      23.768   6.966  50.797  1.00  0.00     0.405 C 
BRANCH  20  21
HETATM   21  N1  UNL     1      24.428   6.695  52.033  1.00  0.00     0.096 N 
HETATM   22  H1  UNL     1      25.081   7.403  52.378  1.00  0.00     0.314 HD
HETATM   23  H2  UNL     1      24.840   5.737  52.092  1.00  0.00     0.314 HD
ENDBRANCH  20  21
ENDBRANCH  18  20
ENDBRANCH   1  18
TORSDOF 4
ENDMDL
MODEL 7
REMARK VINA RESULT:      -7.3      2.218      6.259
REMARK  4 active torsions:
REMARK  status: ('A' for Active; 'I' for Inactive)
REMARK    1  A    between atoms: N1_1  and  C1_2 
REMARK    2  A    between atoms: C1_2  and  N2_3 
REMARK    3  A    between atoms: N2_3  and  C2_4 
REMARK    4  A    between atoms: C10_14  and  C11_15 
ROOT
HETATM    1  C2  UNL     1      23.869   3.796  50.225  1.00  0.00     0.724 A 
HETATM    2  N3  UNL     1      22.838   4.397  50.863  1.00  0.00    -0.075 NA
HETATM    3  C3  UNL     1      22.391   3.892  52.050  1.00  0.00     0.139 A 
HETATM    4  C4  UNL     1      23.053   2.788  52.491  1.00  0.00     0.053 A 
HETATM    5  C5  UNL     1      24.092   2.124  51.913  1.00  0.00     0.089 A 
HETATM    6  C6  UNL     1      24.892   1.007  52.344  1.00  0.00     0.023 A 
HETATM    7  C7  UNL     1      26.249   1.066  51.991  1.00  0.00     0.017 A 
HETATM    8  C8  UNL     1      27.226   0.140  52.293  1.00  0.00     0.020 A 
HETATM    9  C9  UNL     1      26.793  -0.944  53.018  1.00  0.00     0.117 A 
HETATM   10  N4  UNL     1      25.504  -1.033  53.368  1.00  0.00    -0.259 NA
HETATM   11  C10 UNL     1      24.569  -0.113  53.056  1.00  0.00     0.079 A 
HETATM   12  N5  UNL     1      24.456   2.715  50.736  1.00  0.00    -0.062 NA
ENDROOT
BRANCH  11  13
HETATM   13  C11 UNL     1      23.176  -0.410  53.345  1.00  0.00    -0.006 C 
HETATM   14  C12 UNL     1      22.813  -0.822  54.576  1.00  0.00     0.014 C 
HETATM   15  C13 UNL     1      21.361  -1.078  54.701  1.00  0.00     0.013 C 
HETATM   16  C14 UNL     1      20.982  -0.384  53.628  1.00  0.00    -0.025 C 
HETATM   17  C15 UNL     1      21.880  -0.508  52.657  1.00  0.00     0.026 C 
ENDBRANCH  11  13
BRANCH   1  18
HETATM   18  N2  UNL     1      24.315   4.354  48.980  1.00  0.00    -0.196 N 
HETATM   19  H5  UNL     1      23.979   4.294  47.984  1.00  0.00     0.179 HD
BRANCH  18  20
HETATM   20  C1  UNL     1      25.500   5.185  49.183  1.00  0.00     0.405 C 
BRANCH  20  21
HETATM   21  N1  UNL     1      25.602   5.720  50.503  1.00  0.00     0.096 N 
HETATM   22  H1  UNL     1      25.644   6.740  50.590  1.00  0.00     0.314 HD
HETATM   23  H2  UNL     1      26.330   5.258  51.092  1.00  0.00     0.314 HD
ENDBRANCH  20  21
ENDBRANCH  18  20
ENDBRANCH   1  18
TORSDOF 4
ENDMDL
MODEL 8
REMARK VINA RESULT:      -7.3      2.109      3.240
REMARK  4 active torsions:
REMARK  status: ('A' for Active; 'I' for Inactive)
REMARK    1  A    between atoms: N1_1  and  C1_2 
REMARK    2  A    between atoms: C1_2  and  N2_3 
REMARK    3  A    between atoms: N2_3  and  C2_4 
REMARK    4  A    between atoms: C10_14  and  C11_15 
ROOT
HETATM    1  C2  UNL     1      26.545  -0.323  52.964  1.00  0.00     0.724 A 
HETATM    2  N3  UNL     1      27.027   0.883  52.582  1.00  0.00    -0.075 NA
HETATM    3  C3  UNL     1      26.160   1.901  52.309  1.00  0.00     0.139 A 
HETATM    4  C4  UNL     1      24.843   1.589  52.454  1.00  0.00     0.053 A 
HETATM    5  C5  UNL     1      24.278   0.408  52.830  1.00  0.00     0.089 A 
HETATM    6  C6  UNL     1      22.914   0.019  53.080  1.00  0.00     0.023 A 
HETATM    7  C7  UNL     1      22.731  -0.893  54.131  1.00  0.00     0.017 A 
HETATM    8  C8  UNL     1      21.535  -1.409  54.583  1.00  0.00     0.020 A 
HETATM    9  C9  UNL     1      20.421  -0.964  53.911  1.00  0.00     0.117 A 
HETATM   10  N4  UNL     1      20.561  -0.097  52.900  1.00  0.00    -0.259 NA
HETATM   11  C10 UNL     1      21.745   0.390  52.478  1.00  0.00     0.079 A 
HETATM   12  N5  UNL     1      25.235  -0.535  53.078  1.00  0.00    -0.062 NA
ENDROOT
BRANCH  11  13
HETATM   13  C11 UNL     1      21.778   1.187  51.265  1.00  0.00    -0.006 C 
HETATM   14  C12 UNL     1      21.552   2.515  51.321  1.00  0.00     0.014 C 
HETATM   15  C13 UNL     1      21.623   3.176  50.000  1.00  0.00     0.013 C 
HETATM   16  C14 UNL     1      22.296   2.211  49.373  1.00  0.00    -0.025 C 
HETATM   17  C15 UNL     1      21.906   1.019  49.809  1.00  0.00     0.026 C 
ENDBRANCH  11  13
BRANCH   1  18
HETATM   18  N2  UNL     1      27.486  -1.371  53.245  1.00  0.00    -0.196 N 
HETATM   19  H5  UNL     1      27.453  -2.422  53.192  1.00  0.00     0.179 HD
BRANCH  18  20
HETATM   20  C1  UNL     1      28.757  -0.814  53.701  1.00  0.00     0.405 C 
BRANCH  20  21
HETATM   21  N1  UNL     1      28.668  -0.142  54.957  1.00  0.00     0.096 N 
HETATM   22  H1  UNL     1      29.425  -0.304  55.628  1.00  0.00     0.314 HD
HETATM   23  H2  UNL     1      27.732  -0.222  55.415  1.00  0.00     0.314 HD
ENDBRANCH  20  21
ENDBRANCH  18  20
ENDBRANCH   1  18
TORSDOF 4
ENDMDL
MODEL 9
REMARK VINA RESULT:      -7.0      2.663      6.182
REMARK  4 active torsions:
REMARK  status: ('A' for Active; 'I' for Inactive)
REMARK    1  A    between atoms: N1_1  and  C1_2 
REMARK    2  A    between atoms: C1_2  and  N2_3 
REMARK    3  A    between atoms: N2_3  and  C2_4 
REMARK    4  A    between atoms: C10_14  and  C11_15 
ROOT
HETATM    1  C2  UNL     1      21.424   0.690  51.500  1.00  0.00     0.724 A 
HETATM    2  N3  UNL     1      21.353   0.237  52.774  1.00  0.00    -0.075 NA
HETATM    3  C3  UNL     1      22.424   0.392  53.606  1.00  0.00     0.139 A 
HETATM    4  C4  UNL     1      23.501   1.010  53.048  1.00  0.00     0.053 A 
HETATM    5  C5  UNL     1      23.654   1.490  51.783  1.00  0.00     0.089 A 
HETATM    6  C6  UNL     1      24.718   2.219  51.142  1.00  0.00     0.023 A 
HETATM    7  C7  UNL     1      24.309   3.193  50.218  1.00  0.00     0.017 A 
HETATM    8  C8  UNL     1      25.121   4.033  49.485  1.00  0.00     0.020 A 
HETATM    9  C9  UNL     1      26.469   3.875  49.705  1.00  0.00     0.117 A 
HETATM   10  N4  UNL     1      26.892   2.952  50.578  1.00  0.00    -0.259 NA
HETATM   11  C10 UNL     1      26.075   2.141  51.279  1.00  0.00     0.079 A 
HETATM   12  N5  UNL     1      22.524   1.284  51.043  1.00  0.00    -0.062 NA
ENDROOT
BRANCH  11  13
HETATM   13  C11 UNL     1      26.662   1.068  52.062  1.00  0.00    -0.006 C 
HETATM   14  C12 UNL     1      27.443   1.353  53.124  1.00  0.00     0.014 C 
HETATM   15  C13 UNL     1      27.958   0.148  53.810  1.00  0.00     0.013 C 
HETATM   16  C14 UNL     1      27.074  -0.714  53.307  1.00  0.00    -0.025 C 
HETATM   17  C15 UNL     1      26.784  -0.398  52.051  1.00  0.00     0.026 C 
ENDBRANCH  11  13
BRANCH   1  18
HETATM   18  N2  UNL     1      20.279   0.513  50.653  1.00  0.00    -0.196 N 
HETATM   19  H5  UNL     1      20.145   0.263  49.638  1.00  0.00     0.179 HD
BRANCH  18  20
HETATM   20  C1  UNL     1      19.044   0.736  51.402  1.00  0.00     0.405 C 
BRANCH  20  21
HETATM   21  N1  UNL     1      18.480  -0.459  51.941  1.00  0.00     0.096 N 
HETATM   22  H1  UNL     1      17.569  -0.378  52.402  1.00  0.00     0.314 HD
HETATM   23  H2  UNL     1      19.147  -1.022  52.514  1.00  0.00     0.314 HD
ENDBRANCH  20  21
ENDBRANCH  18  20
ENDBRANCH   1  18
TORSDOF 4
ENDMDL
