MODEL 1
REMARK VINA RESULT:      -8.0      0.000      0.000
REMARK  4 active torsions:
REMARK  status: ('A' for Active; 'I' for Inactive)
REMARK    1  A    between atoms: C9_9  and  O1_10 
REMARK    2  A    between atoms: C13_15  and  C14_16 
REMARK    3  A    between atoms: C14_16  and  O2_17 
REMARK    4  A    between atoms: O2_17  and  C15_18 
ROOT
HETATM    1  C1  UNL     1      26.591   1.373  51.974  1.00  0.00     0.018 C 
HETATM    2  C2  UNL     1      25.444   1.156  52.353  1.00  0.00    -0.077 C 
HETATM    3  C3  UNL     1      24.109   0.881  52.782  1.00  0.00     0.030 A 
HETATM    4  C4  UNL     1      23.926  -0.359  53.370  1.00  0.00     0.021 A 
HETATM    5  C5  UNL     1      22.689  -0.751  53.778  1.00  0.00     0.004 A 
HETATM    6  C6  UNL     1      21.616   0.093  53.602  1.00  0.00     0.030 A 
HETATM    7  C7  UNL     1      21.781   1.330  53.018  1.00  0.00     0.046 A 
HETATM    8  C8  UNL     1      23.054   1.741  52.597  1.00  0.00     0.049 A 
HETATM    9  C9  UNL     1      23.683   2.997  51.935  1.00  0.00     0.201 C 
HETATM   10  C10 UNL     1      22.877   4.186  52.395  1.00  0.00     0.154 C 
HETATM   11  C11 UNL     1      21.768   4.599  51.523  1.00  0.00     0.127 C 
HETATM   12  N1  UNL     1      21.456   5.712  50.878  1.00  0.00    -0.272 NA
HETATM   13  C12 UNL     1      22.310   6.877  50.959  1.00  0.00     0.185 C 
HETATM   14  C13 UNL     1      23.361   6.719  49.849  1.00  0.00     0.165 C 
HETATM   15  O3  UNL     1      23.963   5.492  50.165  1.00  0.00    -0.380 OA
HETATM   16  C17 UNL     1      23.805   4.577  49.157  1.00  0.00     0.194 C 
HETATM   17  C18 UNL     1      24.345   3.251  49.632  1.00  0.00     0.198 C 
HETATM   18  O4  UNL     1      23.805   2.681  50.679  1.00  0.00    -0.348 OA
HETATM   19  N2  UNL     1      20.642   3.734  51.195  1.00  0.00    -0.229 NA
HETATM   20  C19 UNL     1      19.935   2.906  51.956  1.00  0.00     0.209 C 
HETATM   21  N3  UNL     1      20.485   1.974  52.927  1.00  0.00    -0.350 N 
HETATM   22  H23 UNL     1      19.918   1.629  53.753  1.00  0.00     0.166 HD
ENDROOT
BRANCH   9  23
HETATM   23  O1  UNL     1      24.898   3.189  52.664  1.00  0.00    -0.361 OA
HETATM   24  H5  UNL     1      24.896   2.530  53.394  1.00  0.00     0.213 HD
ENDBRANCH   9  23
BRANCH  14  25
HETATM   25  C14 UNL     1      24.418   7.784  50.046  1.00  0.00     0.201 C 
BRANCH  25  26
HETATM   26  O2  UNL     1      25.616   7.138  50.234  1.00  0.00    -0.389 OA
BRANCH  26  27
HETATM   27  C15 UNL     1      26.625   7.505  49.370  1.00  0.00     0.163 C 
HETATM   28  C16 UNL     1      27.068   6.320  48.573  1.00  0.00     0.033 C 
ENDBRANCH  26  27
ENDBRANCH  25  26
ENDBRANCH  14  25
TORSDOF 4
ENDMDL
MODEL 2
REMARK VINA RESULT:      -7.7      2.456      4.136
REMARK  4 active torsions:
REMARK  status: ('A' for Active; 'I' for Inactive)
REMARK    1  A    between atoms: C9_9  and  O1_10 
REMARK    2  A    between atoms: C13_15  and  C14_16 
REMARK    3  A    between atoms: C14_16  and  O2_17 
REMARK    4  A    between atoms: O2_17  and  C15_18 
ROOT
HETATM    1  C1  UNL     1      18.937   0.575  51.892  1.00  0.00     0.018 C 
HETATM    2  C2  UNL     1      19.981   0.229  52.437  1.00  0.00    -0.077 C 
HETATM    3  C3  UNL     1      21.185  -0.171  53.093  1.00  0.00     0.030 A 
HETATM    4  C4  UNL     1      21.044  -1.213  53.994  1.00  0.00     0.021 A 
HETATM    5  C5  UNL     1      22.112  -1.652  54.712  1.00  0.00     0.004 A 
HETATM    6  C6  UNL     1      23.340  -1.052  54.540  1.00  0.00     0.030 A 
HETATM    7  C7  UNL     1      23.497  -0.013  53.648  1.00  0.00     0.046 A 
HETATM    8  C8  UNL     1      22.400   0.442  52.903  1.00  0.00     0.049 A 
HETATM    9  C9  UNL     1      22.128   1.523  51.821  1.00  0.00     0.201 C 
HETATM   10  C10 UNL     1      23.399   1.675  51.023  1.00  0.00     0.154 C 
HETATM   11  C11 UNL     1      24.329   2.722  51.469  1.00  0.00     0.127 C 
HETATM   12  N1  UNL     1      24.854   3.800  50.909  1.00  0.00    -0.272 NA
HETATM   13  C12 UNL     1      24.532   4.155  49.544  1.00  0.00     0.185 C 
HETATM   14  C13 UNL     1      23.256   5.008  49.609  1.00  0.00     0.165 C 
HETATM   15  O3  UNL     1      22.347   4.157  50.254  1.00  0.00    -0.380 OA
HETATM   16  C17 UNL     1      21.904   4.690  51.437  1.00  0.00     0.194 C 
HETATM   17  C18 UNL     1      21.055   3.658  52.134  1.00  0.00     0.198 C 
HETATM   18  O4  UNL     1      21.592   2.513  52.473  1.00  0.00    -0.348 OA
HETATM   19  N2  UNL     1      24.943   2.740  52.791  1.00  0.00    -0.229 NA
HETATM   20  C19 UNL     1      25.464   1.757  53.516  1.00  0.00     0.209 C 
HETATM   21  N3  UNL     1      24.872   0.443  53.709  1.00  0.00    -0.350 N 
HETATM   22  H23 UNL     1      25.461  -0.405  53.950  1.00  0.00     0.166 HD
ENDROOT
BRANCH   9  23
HETATM   23  O1  UNL     1      21.289   0.852  50.878  1.00  0.00    -0.361 OA
HETATM   24  H5  UNL     1      21.693  -0.031  50.719  1.00  0.00     0.213 HD
ENDBRANCH   9  23
BRANCH  14  25
HETATM   25  C14 UNL     1      22.744   5.199  48.198  1.00  0.00     0.201 C 
BRANCH  25  26
HETATM   26  O2  UNL     1      21.755   4.268  47.995  1.00  0.00    -0.389 OA
BRANCH  26  27
HETATM   27  C15 UNL     1      21.973   3.396  46.950  1.00  0.00     0.163 C 
HETATM   28  C16 UNL     1      22.393   2.063  47.479  1.00  0.00     0.033 C 
ENDBRANCH  26  27
ENDBRANCH  25  26
ENDBRANCH  14  25
TORSDOF 4
ENDMDL
MODEL 3
REMARK VINA RESULT:      -7.4      1.924      3.504
REMARK  4 active torsions:
REMARK  status: ('A' for Active; 'I' for Inactive)
REMARK    1  A    between atoms: C9_9  and  O1_10 
REMARK    2  A    between atoms: C13_15  and  C14_16 
REMARK    3  A    between atoms: C14_16  and  O2_17 
REMARK    4  A    between atoms: O2_17  and  C15_18 
ROOT
HETATM    1  C1  UNL     1      26.425   3.618  49.785  1.00  0.00     0.018 C 
HETATM    2  C2  UNL     1      26.172   2.748  50.614  1.00  0.00    -0.077 C 
HETATM    3  C3  UNL     1      25.888   1.720  51.563  1.00  0.00     0.030 A 
HETATM    4  C4  UNL     1      26.986   0.980  51.972  1.00  0.00     0.021 A 
HETATM    5  C5  UNL     1      26.833  -0.055  52.841  1.00  0.00     0.004 A 
HETATM    6  C6  UNL     1      25.578  -0.368  53.311  1.00  0.00     0.030 A 
HETATM    7  C7  UNL     1      24.475   0.357  52.913  1.00  0.00     0.046 A 
HETATM    8  C8  UNL     1      24.626   1.427  52.020  1.00  0.00     0.049 A 
HETATM    9  C9  UNL     1      23.709   2.482  51.342  1.00  0.00     0.201 C 
HETATM   10  C10 UNL     1      22.575   2.756  52.298  1.00  0.00     0.154 C 
HETATM   11  C11 UNL     1      21.357   1.956  52.111  1.00  0.00     0.127 C 
HETATM   12  N1  UNL     1      20.088   2.236  51.862  1.00  0.00    -0.272 NA
HETATM   13  C12 UNL     1      19.649   3.607  51.716  1.00  0.00     0.185 C 
HETATM   14  C13 UNL     1      19.853   3.970  50.236  1.00  0.00     0.165 C 
HETATM   15  O3  UNL     1      21.223   3.739  50.047  1.00  0.00    -0.380 OA
HETATM   16  C17 UNL     1      21.448   2.774  49.100  1.00  0.00     0.194 C 
HETATM   17  C18 UNL     1      22.927   2.481  49.063  1.00  0.00     0.198 C 
HETATM   18  O4  UNL     1      23.514   2.024  50.141  1.00  0.00    -0.348 OA
HETATM   19  N2  UNL     1      21.330   0.502  52.213  1.00  0.00    -0.229 NA
HETATM   20  C19 UNL     1      21.917  -0.317  53.078  1.00  0.00     0.209 C 
HETATM   21  N3  UNL     1      23.296  -0.220  53.530  1.00  0.00    -0.350 N 
HETATM   22  H23 UNL     1      23.607  -0.619  54.462  1.00  0.00     0.166 HD
ENDROOT
BRANCH   9  23
HETATM   23  O1  UNL     1      24.458   3.696  51.447  1.00  0.00    -0.361 OA
HETATM   24  H5  UNL     1      23.906   4.403  51.045  1.00  0.00     0.213 HD
ENDBRANCH   9  23
BRANCH  14  25
HETATM   25  C14 UNL     1      19.639   5.460  50.082  1.00  0.00     0.201 C 
BRANCH  25  26
HETATM   26  O2  UNL     1      20.823   5.996  49.636  1.00  0.00    -0.389 OA
BRANCH  26  27
HETATM   27  C15 UNL     1      21.163   7.213  50.187  1.00  0.00     0.163 C 
HETATM   28  C16 UNL     1      22.508   7.121  50.831  1.00  0.00     0.033 C 
ENDBRANCH  26  27
ENDBRANCH  25  26
ENDBRANCH  14  25
TORSDOF 4
ENDMDL
MODEL 4
REMARK VINA RESULT:      -7.1      4.584      6.921
REMARK  4 active torsions:
REMARK  status: ('A' for Active; 'I' for Inactive)
REMARK    1  A    between atoms: C9_9  and  O1_10 
REMARK    2  A    between atoms: C13_15  and  C14_16 
REMARK    3  A    between atoms: C14_16  and  O2_17 
REMARK    4  A    between atoms: O2_17  and  C15_18 
ROOT
HETATM    1  C1  UNL     1      29.951   5.538  47.910  1.00  0.00     0.018 C 
HETATM    2  C2  UNL     1      28.795   5.453  48.314  1.00  0.00    -0.077 C 
HETATM    3  C3  UNL     1      27.446   5.337  48.767  1.00  0.00     0.030 A 
HETATM    4  C4  UNL     1      27.044   4.050  49.087  1.00  0.00     0.021 A 
HETATM    5  C5  UNL     1      25.767   3.808  49.488  1.00  0.00     0.004 A 
HETATM    6  C6  UNL     1      24.872   4.851  49.574  1.00  0.00     0.030 A 
HETATM    7  C7  UNL     1      25.257   6.137  49.260  1.00  0.00     0.046 A 
HETATM    8  C8  UNL     1      26.572   6.393  48.848  1.00  0.00     0.049 A 
HETATM    9  C9  UNL     1      27.412   7.630  48.428  1.00  0.00     0.201 C 
HETATM   10  C10 UNL     1      26.864   8.812  49.189  1.00  0.00     0.154 C 
HETATM   11  C11 UNL     1      25.832   9.605  48.508  1.00  0.00     0.127 C 
HETATM   12  N1  UNL     1      25.722  10.871  48.141  1.00  0.00    -0.272 NA
HETATM   13  C12 UNL     1      26.786  11.813  48.410  1.00  0.00     0.185 C 
HETATM   14  C13 UNL     1      27.755  11.721  47.220  1.00  0.00     0.165 C 
HETATM   15  O3  UNL     1      28.118  10.366  47.221  1.00  0.00    -0.380 OA
HETATM   16  C17 UNL     1      27.757   9.744  46.053  1.00  0.00     0.194 C 
HETATM   17  C18 UNL     1      28.044   8.271  46.192  1.00  0.00     0.198 C 
HETATM   18  O4  UNL     1      27.434   7.587  47.129  1.00  0.00    -0.348 OA
HETATM   19  N2  UNL     1      24.551   9.055  48.082  1.00  0.00    -0.229 NA
HETATM   20  C19 UNL     1      23.719   8.220  48.695  1.00  0.00     0.209 C 
HETATM   21  N3  UNL     1      24.107   7.009  49.401  1.00  0.00    -0.350 N 
HETATM   22  H23 UNL     1      23.508   6.597  50.173  1.00  0.00     0.166 HD
ENDROOT
BRANCH   9  23
HETATM   23  O1  UNL     1      28.662   7.429  49.093  1.00  0.00    -0.361 OA
HETATM   24  H5  UNL     1      28.512   7.636  50.043  1.00  0.00     0.213 HD
ENDBRANCH   9  23
BRANCH  14  25
HETATM   25  C14 UNL     1      29.003  12.503  47.566  1.00  0.00     0.201 C 
BRANCH  25  26
HETATM   26  O2  UNL     1      30.036  11.602  47.655  1.00  0.00    -0.389 OA
BRANCH  26  27
HETATM   27  C15 UNL     1      30.739  11.627  48.840  1.00  0.00     0.163 C 
HETATM   28  C16 UNL     1      30.666  10.290  49.503  1.00  0.00     0.033 C 
ENDBRANCH  26  27
ENDBRANCH  25  26
ENDBRANCH  14  25
TORSDOF 4
ENDMDL
MODEL 5
REMARK VINA RESULT:      -7.0      3.026      3.593
REMARK  4 active torsions:
REMARK  status: ('A' for Active; 'I' for Inactive)
REMARK    1  A    between atoms: C9_9  and  O1_10 
REMARK    2  A    between atoms: C13_15  and  C14_16 
REMARK    3  A    between atoms: C14_16  and  O2_17 
REMARK    4  A    between atoms: O2_17  and  C15_18 
ROOT
HETATM    1  C1  UNL     1      25.001   1.587  52.507  1.00  0.00     0.018 C 
HETATM    2  C2  UNL     1      24.038   0.951  52.925  1.00  0.00    -0.077 C 
HETATM    3  C3  UNL     1      22.928   0.190  53.403  1.00  0.00     0.030 A 
HETATM    4  C4  UNL     1      23.255  -0.845  54.264  1.00  0.00     0.021 A 
HETATM    5  C5  UNL     1      22.286  -1.667  54.750  1.00  0.00     0.004 A 
HETATM    6  C6  UNL     1      20.975  -1.466  54.381  1.00  0.00     0.030 A 
HETATM    7  C7  UNL     1      20.634  -0.440  53.526  1.00  0.00     0.046 A 
HETATM    8  C8  UNL     1      21.627   0.412  53.023  1.00  0.00     0.049 A 
HETATM    9  C9  UNL     1      21.698   1.650  52.088  1.00  0.00     0.201 C 
HETATM   10  C10 UNL     1      20.402   2.403  52.258  1.00  0.00     0.154 C 
HETATM   11  C11 UNL     1      19.327   2.073  51.313  1.00  0.00     0.127 C 
HETATM   12  N1  UNL     1      18.623   2.759  50.427  1.00  0.00    -0.272 NA
HETATM   13  C12 UNL     1      18.854   4.175  50.236  1.00  0.00     0.185 C 
HETATM   14  C13 UNL     1      19.978   4.292  49.194  1.00  0.00     0.165 C 
HETATM   15  O3  UNL     1      21.026   3.572  49.787  1.00  0.00    -0.380 OA
HETATM   16  C17 UNL     1      21.402   2.500  49.019  1.00  0.00     0.194 C 
HETATM   17  C18 UNL     1      22.421   1.700  49.789  1.00  0.00     0.198 C 
HETATM   18  O4  UNL     1      22.082   1.174  50.940  1.00  0.00    -0.348 OA
HETATM   19  N2  UNL     1      18.746   0.741  51.193  1.00  0.00    -0.229 NA
HETATM   20  C19 UNL     1      18.405  -0.142  52.124  1.00  0.00     0.209 C 
HETATM   21  N3  UNL     1      19.205  -0.497  53.286  1.00  0.00    -0.350 N 
HETATM   22  H23 UNL     1      18.765  -0.884  54.169  1.00  0.00     0.166 HD
ENDROOT
BRANCH   9  23
HETATM   23  O1  UNL     1      22.614   2.523  52.754  1.00  0.00    -0.361 OA
HETATM   24  H5  UNL     1      22.089   3.291  53.075  1.00  0.00     0.213 HD
ENDBRANCH   9  23
BRANCH  14  25
HETATM   25  C14 UNL     1      20.422   5.737  49.140  1.00  0.00     0.201 C 
BRANCH  25  26
HETATM   26  O2  UNL     1      19.303   6.513  49.321  1.00  0.00    -0.389 OA
BRANCH  26  27
HETATM   27  C15 UNL     1      19.507   7.873  49.229  1.00  0.00     0.163 C 
HETATM   28  C16 UNL     1      20.727   8.256  50.002  1.00  0.00     0.033 C 
ENDBRANCH  26  27
ENDBRANCH  25  26
ENDBRANCH  14  25
TORSDOF 4
ENDMDL
MODEL 6
REMARK VINA RESULT:      -6.8      6.661     10.028
REMARK  4 active torsions:
REMARK  status: ('A' for Active; 'I' for Inactive)
REMARK    1  A    between atoms: C9_9  and  O1_10 
REMARK    2  A    between atoms: C13_15  and  C14_16 
REMARK    3  A    between atoms: C14_16  and  O2_17 
REMARK    4  A    between atoms: O2_17  and  C15_18 
ROOT
HETATM    1  C1  UNL     1      30.822  11.502  48.515  1.00  0.00     0.018 C 
HETATM    2  C2  UNL     1      29.769  10.875  48.448  1.00  0.00    -0.077 C 
HETATM    3  C3  UNL     1      28.538  10.154  48.392  1.00  0.00     0.030 A 
HETATM    4  C4  UNL     1      27.399  10.925  48.564  1.00  0.00     0.021 A 
HETATM    5  C5  UNL     1      26.170  10.343  48.574  1.00  0.00     0.004 A 
HETATM    6  C6  UNL     1      26.061   8.981  48.415  1.00  0.00     0.030 A 
HETATM    7  C7  UNL     1      27.184   8.199  48.243  1.00  0.00     0.046 A 
HETATM    8  C8  UNL     1      28.454   8.793  48.229  1.00  0.00     0.049 A 
HETATM    9  C9  UNL     1      29.926   8.328  48.057  1.00  0.00     0.201 C 
HETATM   10  C10 UNL     1      29.902   7.124  47.148  1.00  0.00     0.154 C 
HETATM   11  C11 UNL     1      29.835   5.812  47.804  1.00  0.00     0.127 C 
HETATM   12  N1  UNL     1      30.600   4.732  47.807  1.00  0.00    -0.272 NA
HETATM   13  C12 UNL     1      31.818   4.687  47.028  1.00  0.00     0.185 C 
HETATM   14  C13 UNL     1      32.923   5.277  47.919  1.00  0.00     0.165 C 
HETATM   15  O3  UNL     1      32.430   6.556  48.219  1.00  0.00    -0.380 OA
HETATM   16  C17 UNL     1      32.245   6.725  49.566  1.00  0.00     0.194 C 
HETATM   17  C18 UNL     1      31.580   8.059  49.790  1.00  0.00     0.198 C 
HETATM   18  O4  UNL     1      30.398   8.278  49.268  1.00  0.00    -0.348 OA
HETATM   19  N2  UNL     1      28.735   5.404  48.670  1.00  0.00    -0.229 NA
HETATM   20  C19 UNL     1      27.424   5.578  48.545  1.00  0.00     0.209 C 
HETATM   21  N3  UNL     1      26.770   6.813  48.144  1.00  0.00    -0.350 N 
HETATM   22  H23 UNL     1      25.810   6.816  47.694  1.00  0.00     0.166 HD
ENDROOT
BRANCH   9  23
HETATM   23  O1  UNL     1      30.492   9.316  47.193  1.00  0.00    -0.361 OA
HETATM   24  H5  UNL     1      30.589   8.895  46.309  1.00  0.00     0.213 HD
ENDBRANCH   9  23
BRANCH  14  25
HETATM   25  C14 UNL     1      34.158   5.476  47.069  1.00  0.00     0.201 C 
BRANCH  25  26
HETATM   26  O2  UNL     1      35.070   4.521  47.447  1.00  0.00    -0.389 OA
BRANCH  26  27
HETATM   27  C15 UNL     1      35.084   3.381  46.672  1.00  0.00     0.163 C 
HETATM   28  C16 UNL     1      35.140   3.751  45.225  1.00  0.00     0.033 C 
ENDBRANCH  26  27
ENDBRANCH  25  26
ENDBRANCH  14  25
TORSDOF 4
ENDMDL
MODEL 7
REMARK VINA RESULT:      -6.6      2.442      3.590
REMARK  4 active torsions:
REMARK  status: ('A' for Active; 'I' for Inactive)
REMARK    1  A    between atoms: C9_9  and  O1_10 
REMARK    2  A    between atoms: C13_15  and  C14_16 
REMARK    3  A    between atoms: C14_16  and  O2_17 
REMARK    4  A    between atoms: O2_17  and  C15_18 
ROOT
HETATM    1  C1  UNL     1      27.300   4.590  48.781  1.00  0.00     0.018 C 
HETATM    2  C2  UNL     1      26.691   3.983  49.656  1.00  0.00    -0.077 C 
HETATM    3  C3  UNL     1      25.984   3.256  50.662  1.00  0.00     0.030 A 
HETATM    4  C4  UNL     1      26.636   2.130  51.139  1.00  0.00     0.021 A 
HETATM    5  C5  UNL     1      26.043   1.332  52.067  1.00  0.00     0.004 A 
HETATM    6  C6  UNL     1      24.786   1.648  52.532  1.00  0.00     0.030 A 
HETATM    7  C7  UNL     1      24.124   2.765  52.067  1.00  0.00     0.046 A 
HETATM    8  C8  UNL     1      24.731   3.592  51.112  1.00  0.00     0.049 A 
HETATM    9  C9  UNL     1      24.380   4.901  50.352  1.00  0.00     0.201 C 
HETATM   10  C10 UNL     1      23.501   5.717  51.266  1.00  0.00     0.154 C 
HETATM   11  C11 UNL     1      22.051   5.540  51.106  1.00  0.00     0.127 C 
HETATM   12  N1  UNL     1      21.041   6.345  50.815  1.00  0.00    -0.272 NA
HETATM   13  C12 UNL     1      21.265   7.753  50.575  1.00  0.00     0.185 C 
HETATM   14  C13 UNL     1      21.595   7.889  49.080  1.00  0.00     0.165 C 
HETATM   15  O3  UNL     1      22.712   7.055  48.932  1.00  0.00    -0.380 OA
HETATM   16  C17 UNL     1      22.469   6.033  48.052  1.00  0.00     0.194 C 
HETATM   17  C18 UNL     1      23.656   5.104  48.062  1.00  0.00     0.198 C 
HETATM   18  O4  UNL     1      23.986   4.503  49.178  1.00  0.00    -0.348 OA
HETATM   19  N2  UNL     1      21.374   4.263  51.298  1.00  0.00    -0.229 NA
HETATM   20  C19 UNL     1      21.539   3.326  52.224  1.00  0.00     0.209 C 
HETATM   21  N3  UNL     1      22.818   2.820  52.696  1.00  0.00    -0.350 N 
HETATM   22  H23 UNL     1      22.927   2.386  53.657  1.00  0.00     0.166 HD
ENDROOT
BRANCH   9  23
HETATM   23  O1  UNL     1      25.596   5.651  50.395  1.00  0.00    -0.361 OA
HETATM   24  H5  UNL     1      26.284   5.100  49.958  1.00  0.00     0.213 HD
ENDBRANCH   9  23
BRANCH  14  25
HETATM   25  C14 UNL     1      22.073   9.302  48.829  1.00  0.00     0.201 C 
BRANCH  25  26
HETATM   26  O2  UNL     1      21.109  10.150  49.317  1.00  0.00    -0.389 OA
BRANCH  26  27
HETATM   27  C15 UNL     1      20.921  11.308  48.593  1.00  0.00     0.163 C 
HETATM   28  C16 UNL     1      20.616  10.973  47.169  1.00  0.00     0.033 C 
ENDBRANCH  26  27
ENDBRANCH  25  26
ENDBRANCH  14  25
TORSDOF 4
ENDMDL
MODEL 8
REMARK VINA RESULT:      -6.4      9.969     11.607
REMARK  4 active torsions:
REMARK  status: ('A' for Active; 'I' for Inactive)
REMARK    1  A    between atoms: C9_9  and  O1_10 
REMARK    2  A    between atoms: C13_15  and  C14_16 
REMARK    3  A    between atoms: C14_16  and  O2_17 
REMARK    4  A    between atoms: O2_17  and  C15_18 
ROOT
HETATM    1  C1  UNL     1      34.307   6.481  42.982  1.00  0.00     0.018 C 
HETATM    2  C2  UNL     1      34.343   5.908  44.067  1.00  0.00    -0.077 C 
HETATM    3  C3  UNL     1      34.374   5.223  45.319  1.00  0.00     0.030 A 
HETATM    4  C4  UNL     1      34.990   3.982  45.294  1.00  0.00     0.021 A 
HETATM    5  C5  UNL     1      35.042   3.217  46.417  1.00  0.00     0.004 A 
HETATM    6  C6  UNL     1      34.476   3.680  47.583  1.00  0.00     0.030 A 
HETATM    7  C7  UNL     1      33.858   4.912  47.625  1.00  0.00     0.046 A 
HETATM    8  C8  UNL     1      33.804   5.707  46.471  1.00  0.00     0.049 A 
HETATM    9  C9  UNL     1      33.250   7.104  46.077  1.00  0.00     0.201 C 
HETATM   10  C10 UNL     1      33.337   7.974  47.307  1.00  0.00     0.154 C 
HETATM   11  C11 UNL     1      32.139   8.024  48.156  1.00  0.00     0.127 C 
HETATM   12  N1  UNL     1      31.332   8.987  48.572  1.00  0.00    -0.272 NA
HETATM   13  C12 UNL     1      31.559  10.361  48.181  1.00  0.00     0.185 C 
HETATM   14  C13 UNL     1      30.836  10.554  46.839  1.00  0.00     0.165 C 
HETATM   15  O3  UNL     1      31.427   9.576  46.025  1.00  0.00    -0.380 OA
HETATM   16  C17 UNL     1      30.506   8.667  45.574  1.00  0.00     0.194 C 
HETATM   17  C18 UNL     1      31.239   7.576  44.836  1.00  0.00     0.198 C 
HETATM   18  O4  UNL     1      32.123   6.854  45.479  1.00  0.00    -0.348 OA
HETATM   19  N2  UNL     1      31.567   6.850  48.806  1.00  0.00    -0.229 NA
HETATM   20  C19 UNL     1      32.152   5.835  49.430  1.00  0.00     0.209 C 
HETATM   21  N3  UNL     1      33.324   5.114  48.958  1.00  0.00    -0.350 N 
HETATM   22  H23 UNL     1      33.970   4.601  49.623  1.00  0.00     0.166 HD
ENDROOT
BRANCH   9  23
HETATM   23  O1  UNL     1      34.290   7.663  45.270  1.00  0.00    -0.361 OA
HETATM   24  H5  UNL     1      34.632   6.933  44.706  1.00  0.00     0.213 HD
ENDBRANCH   9  23
BRANCH  14  25
HETATM   25  C14 UNL     1      31.243  11.895  46.271  1.00  0.00     0.201 C 
BRANCH  25  26
HETATM   26  O2  UNL     1      30.105  12.497  45.793  1.00  0.00    -0.389 OA
BRANCH  26  27
HETATM   27  C15 UNL     1      29.036  12.510  46.661  1.00  0.00     0.163 C 
HETATM   28  C16 UNL     1      29.044  13.775  47.458  1.00  0.00     0.033 C 
ENDBRANCH  26  27
ENDBRANCH  25  26
ENDBRANCH  14  25
TORSDOF 4
ENDMDL
MODEL 9
REMARK VINA RESULT:      -6.4      5.515      8.621
REMARK  4 active torsions:
REMARK  status: ('A' for Active; 'I' for Inactive)
REMARK    1  A    between atoms: C9_9  and  O1_10 
REMARK    2  A    between atoms: C13_15  and  C14_16 
REMARK    3  A    between atoms: C14_16  and  O2_17 
REMARK    4  A    between atoms: O2_17  and  C15_18 
ROOT
HETATM    1  C1  UNL     1      23.995   8.632  48.555  1.00  0.00     0.018 C 
HETATM    2  C2  UNL     1      24.776   7.685  48.590  1.00  0.00    -0.077 C 
HETATM    3  C3  UNL     1      25.679   6.581  48.654  1.00  0.00     0.030 A 
HETATM    4  C4  UNL     1      25.132   5.403  49.136  1.00  0.00     0.021 A 
HETATM    5  C5  UNL     1      25.906   4.295  49.285  1.00  0.00     0.004 A 
HETATM    6  C6  UNL     1      27.241   4.348  48.954  1.00  0.00     0.030 A 
HETATM    7  C7  UNL     1      27.801   5.513  48.473  1.00  0.00     0.046 A 
HETATM    8  C8  UNL     1      27.008   6.658  48.316  1.00  0.00     0.049 A 
HETATM    9  C9  UNL     1      27.201   8.116  47.817  1.00  0.00     0.201 C 
HETATM   10  C10 UNL     1      28.281   8.081  46.764  1.00  0.00     0.154 C 
HETATM   11  C11 UNL     1      29.653   8.331  47.227  1.00  0.00     0.127 C 
HETATM   12  N1  UNL     1      30.585   9.225  46.938  1.00  0.00    -0.272 NA
HETATM   13  C12 UNL     1      30.339  10.256  45.954  1.00  0.00     0.185 C 
HETATM   14  C13 UNL     1      29.679  11.423  46.706  1.00  0.00     0.165 C 
HETATM   15  O3  UNL     1      28.542  10.826  47.269  1.00  0.00    -0.380 OA
HETATM   16  C17 UNL     1      28.560  10.892  48.638  1.00  0.00     0.194 C 
HETATM   17  C18 UNL     1      27.388  10.104  49.166  1.00  0.00     0.198 C 
HETATM   18  O4  UNL     1      27.310   8.823  48.903  1.00  0.00    -0.348 OA
HETATM   19  N2  UNL     1      30.332   7.495  48.210  1.00  0.00    -0.229 NA
HETATM   20  C19 UNL     1      30.364   6.174  48.348  1.00  0.00     0.209 C 
HETATM   21  N3  UNL     1      29.216   5.286  48.252  1.00  0.00    -0.350 N 
HETATM   22  H23 UNL     1      29.321   4.265  47.988  1.00  0.00     0.166 HD
ENDROOT
BRANCH   9  23
HETATM   23  O1  UNL     1      26.041   8.354  47.015  1.00  0.00    -0.361 OA
HETATM   24  H5  UNL     1      26.224   7.961  46.132  1.00  0.00     0.213 HD
ENDBRANCH   9  23
BRANCH  14  25
HETATM   25  C14 UNL     1      29.183  12.423  45.685  1.00  0.00     0.201 C 
BRANCH  25  26
HETATM   26  O2  UNL     1      28.485  13.389  46.368  1.00  0.00    -0.389 OA
BRANCH  26  27
HETATM   27  C15 UNL     1      29.249  14.410  46.891  1.00  0.00     0.163 C 
HETATM   28  C16 UNL     1      28.596  15.725  46.615  1.00  0.00     0.033 C 
ENDBRANCH  26  27
ENDBRANCH  25  26
ENDBRANCH  14  25
TORSDOF 4
ENDMDL
