MODEL 1
REMARK VINA RESULT:      -7.1      0.000      0.000
REMARK  5 active torsions:
REMARK  status: ('A' for Active; 'I' for Inactive)
REMARK    1  A    between atoms: C2_2  and  N1_3 
REMARK    2  A    between atoms: N1_3  and  O1_4 
REMARK    3  A    between atoms: N1_3  and  C3_5 
REMARK    4  A    between atoms: C9_11  and  N2_12 
REMARK    5  A    between atoms: C14_18  and  N3_19 
ROOT
HETATM    1  C3  UNL     1      25.916   1.565  53.364  1.00  0.00     0.056 A 
HETATM    2  C4  UNL     1      25.077   0.483  53.559  1.00  0.00     0.017 A 
HETATM    3  C5  UNL     1      23.736   0.897  53.255  1.00  0.00     0.011 A 
HETATM    4  C6  UNL     1      22.519   1.293  52.973  1.00  0.00     0.022 A 
HETATM    5  C7  UNL     1      23.717   2.169  52.872  1.00  0.00     0.021 A 
HETATM    6  C8  UNL     1      25.009   2.588  52.929  1.00  0.00     0.018 A 
HETATM    7  C9  UNL     1      23.059   2.814  51.633  1.00  0.00     0.122 A 
HETATM    8  C15 UNL     1      23.108   1.482  50.774  1.00  0.00    -0.003 A 
HETATM    9  N4  UNL     1      23.036   1.302  51.995  1.00  0.00     0.000 N 
ENDROOT
BRANCH   7  10
HETATM   10  N2  UNL     1      23.846   3.817  51.013  1.00  0.00    -0.354 N 
HETATM   11  C10 UNL     1      24.894   3.281  50.166  1.00  0.00     0.152 A 
HETATM   12  C11 UNL     1      25.690   4.304  49.497  1.00  0.00    -0.006 A 
HETATM   13  C12 UNL     1      25.590   5.610  49.568  1.00  0.00     0.020 A 
HETATM   14  C13 UNL     1      24.525   6.078  50.445  1.00  0.00     0.054 A 
HETATM   15 BR1  UNL     1      24.248   7.955  50.664  1.00  0.00    -0.047 Br
HETATM   16  C14 UNL     1      23.743   5.231  51.093  1.00  0.00     0.115 A 
BRANCH  16  17
HETATM   17  N3  UNL     1      22.712   5.721  51.940  1.00  0.00    -0.384 N 
HETATM   18  H13 UNL     1      23.104   6.379  52.655  1.00  0.00     0.157 HD
HETATM   19  H14 UNL     1      21.727   5.373  51.744  1.00  0.00     0.157 HD
ENDBRANCH  16  17
ENDBRANCH   7  10
BRANCH   1  20
HETATM   20  N1  UNL     1      27.261   1.627  53.563  1.00  0.00    -0.238 N 
BRANCH  20  21
HETATM   21  C2  UNL     1      27.832   0.427  53.114  1.00  0.00     0.113 C 
HETATM   22  C1  UNL     1      28.875  -0.124  53.694  1.00  0.00     0.032 C 
ENDBRANCH  20  21
BRANCH  20  23
HETATM   23  O1  UNL     1      27.558   2.803  54.112  1.00  0.00    -0.283 OA
HETATM   24  H4  UNL     1      26.850   3.233  54.615  1.00  0.00     0.245 HD
ENDBRANCH  20  23
ENDBRANCH   1  20
TORSDOF 5
ENDMDL
MODEL 2
REMARK VINA RESULT:      -6.8      1.291      1.293
REMARK  5 active torsions:
REMARK  status: ('A' for Active; 'I' for Inactive)
REMARK    1  A    between atoms: C2_2  and  N1_3 
REMARK    2  A    between atoms: N1_3  and  O1_4 
REMARK    3  A    between atoms: N1_3  and  C3_5 
REMARK    4  A    between atoms: C9_11  and  N2_12 
REMARK    5  A    between atoms: C14_18  and  N3_19 
ROOT
HETATM    1  C3  UNL     1      25.664   0.769  52.954  1.00  0.00     0.056 A 
HETATM    2  C4  UNL     1      24.796  -0.249  53.304  1.00  0.00     0.017 A 
HETATM    3  C5  UNL     1      23.466   0.288  53.337  1.00  0.00     0.011 A 
HETATM    4  C6  UNL     1      22.257   0.797  53.363  1.00  0.00     0.022 A 
HETATM    5  C7  UNL     1      23.475   1.576  53.012  1.00  0.00     0.021 A 
HETATM    6  C8  UNL     1      24.779   1.885  52.778  1.00  0.00     0.018 A 
HETATM    7  C9  UNL     1      22.611   2.339  51.984  1.00  0.00     0.122 A 
HETATM    8  C15 UNL     1      22.338   1.055  51.094  1.00  0.00    -0.003 A 
HETATM    9  N4  UNL     1      22.534   0.816  52.291  1.00  0.00     0.000 N 
ENDROOT
BRANCH   7  10
HETATM   10  N2  UNL     1      23.322   3.306  51.232  1.00  0.00    -0.354 N 
HETATM   11  C10 UNL     1      24.029   2.743  50.097  1.00  0.00     0.152 A 
HETATM   12  C11 UNL     1      24.738   3.734  49.294  1.00  0.00    -0.006 A 
HETATM   13  C12 UNL     1      24.826   5.031  49.467  1.00  0.00     0.020 A 
HETATM   14  C13 UNL     1      24.103   5.526  50.632  1.00  0.00     0.054 A 
HETATM   15 BR1  UNL     1      24.133   7.394  51.029  1.00  0.00    -0.047 Br
HETATM   16  C14 UNL     1      23.424   4.710  51.420  1.00  0.00     0.115 A 
BRANCH  16  17
HETATM   17  N3  UNL     1      22.728   5.227  52.546  1.00  0.00    -0.384 N 
HETATM   18  H13 UNL     1      23.394   5.441  53.325  1.00  0.00     0.157 HD
HETATM   19  H14 UNL     1      21.673   5.322  52.454  1.00  0.00     0.157 HD
ENDBRANCH  16  17
ENDBRANCH   7  10
BRANCH   1  20
HETATM   20  N1  UNL     1      27.018   0.710  52.833  1.00  0.00    -0.238 N 
BRANCH  20  21
HETATM   21  C2  UNL     1      27.523   2.019  52.851  1.00  0.00     0.113 C 
HETATM   22  C1  UNL     1      28.547   2.374  53.593  1.00  0.00     0.032 C 
ENDBRANCH  20  21
BRANCH  20  23
HETATM   23  O1  UNL     1      27.384  -0.567  52.742  1.00  0.00    -0.283 OA
HETATM   24  H4  UNL     1      27.521  -1.034  53.580  1.00  0.00     0.245 HD
ENDBRANCH  20  23
ENDBRANCH   1  20
TORSDOF 5
ENDMDL
MODEL 3
REMARK VINA RESULT:      -6.6      2.406      4.256
REMARK  5 active torsions:
REMARK  status: ('A' for Active; 'I' for Inactive)
REMARK    1  A    between atoms: C2_2  and  N1_3 
REMARK    2  A    between atoms: N1_3  and  O1_4 
REMARK    3  A    between atoms: N1_3  and  C3_5 
REMARK    4  A    between atoms: C9_11  and  N2_12 
REMARK    5  A    between atoms: C14_18  and  N3_19 
ROOT
HETATM    1  C3  UNL     1      22.537   0.260  53.445  1.00  0.00     0.056 A 
HETATM    2  C4  UNL     1      23.446  -0.615  54.012  1.00  0.00     0.017 A 
HETATM    3  C5  UNL     1      24.723  -0.397  53.394  1.00  0.00     0.011 A 
HETATM    4  C6  UNL     1      25.881  -0.183  52.817  1.00  0.00     0.022 A 
HETATM    5  C7  UNL     1      24.643   0.573  52.490  1.00  0.00     0.021 A 
HETATM    6  C8  UNL     1      23.345   0.981  52.504  1.00  0.00     0.018 A 
HETATM    7  C9  UNL     1      25.534   1.821  52.303  1.00  0.00     0.122 A 
HETATM    8  C15 UNL     1      25.984   1.865  53.823  1.00  0.00    -0.003 A 
HETATM    9  N4  UNL     1      25.701   0.736  53.405  1.00  0.00     0.000 N 
ENDROOT
BRANCH   7  10
HETATM   10  N2  UNL     1      24.820   3.001  51.976  1.00  0.00    -0.354 N 
HETATM   11  C10 UNL     1      24.089   3.558  53.099  1.00  0.00     0.152 A 
HETATM   12  C11 UNL     1      23.377   4.791  52.784  1.00  0.00    -0.006 A 
HETATM   13  C12 UNL     1      23.305   5.439  51.645  1.00  0.00     0.020 A 
HETATM   14  C13 UNL     1      24.053   4.817  50.559  1.00  0.00     0.054 A 
HETATM   15 BR1  UNL     1      24.048   5.633  48.832  1.00  0.00    -0.047 Br
HETATM   16  C14 UNL     1      24.736   3.701  50.743  1.00  0.00     0.115 A 
BRANCH  16  17
HETATM   17  N3  UNL     1      25.456   3.122  49.663  1.00  0.00    -0.384 N 
HETATM   18  H13 UNL     1      26.400   2.797  49.981  1.00  0.00     0.157 HD
HETATM   19  H14 UNL     1      24.966   3.098  48.720  1.00  0.00     0.157 HD
ENDBRANCH  16  17
ENDBRANCH   7  10
BRANCH   1  20
HETATM   20  N1  UNL     1      21.208   0.375  53.712  1.00  0.00    -0.238 N 
BRANCH  20  21
HETATM   21  C2  UNL     1      20.578   0.946  52.597  1.00  0.00     0.113 C 
HETATM   22  C1  UNL     1      19.676   0.307  51.886  1.00  0.00     0.032 C 
ENDBRANCH  20  21
BRANCH  20  23
HETATM   23  O1  UNL     1      20.975  -0.096  54.936  1.00  0.00    -0.283 OA
HETATM   24  H4  UNL     1      21.701  -0.011  55.573  1.00  0.00     0.245 HD
ENDBRANCH  20  23
ENDBRANCH   1  20
TORSDOF 5
ENDMDL
MODEL 4
REMARK VINA RESULT:      -6.6      1.263      1.851
REMARK  5 active torsions:
REMARK  status: ('A' for Active; 'I' for Inactive)
REMARK    1  A    between atoms: C2_2  and  N1_3 
REMARK    2  A    between atoms: N1_3  and  O1_4 
REMARK    3  A    between atoms: N1_3  and  C3_5 
REMARK    4  A    between atoms: C9_11  and  N2_12 
REMARK    5  A    between atoms: C14_18  and  N3_19 
ROOT
HETATM    1  C3  UNL     1      26.018   1.708  52.956  1.00  0.00     0.056 A 
HETATM    2  C4  UNL     1      25.220   0.579  52.943  1.00  0.00     0.017 A 
HETATM    3  C5  UNL     1      23.862   0.993  52.733  1.00  0.00     0.011 A 
HETATM    4  C6  UNL     1      22.627   1.391  52.542  1.00  0.00     0.022 A 
HETATM    5  C7  UNL     1      23.793   2.313  52.605  1.00  0.00     0.021 A 
HETATM    6  C8  UNL     1      25.070   2.762  52.734  1.00  0.00     0.018 A 
HETATM    7  C9  UNL     1      23.096   3.161  51.518  1.00  0.00     0.122 A 
HETATM    8  C15 UNL     1      23.180   2.023  50.417  1.00  0.00    -0.003 A 
HETATM    9  N4  UNL     1      23.131   1.608  51.581  1.00  0.00     0.000 N 
ENDROOT
BRANCH   7  10
HETATM   10  N2  UNL     1      23.839   4.294  51.100  1.00  0.00    -0.354 N 
HETATM   11  C10 UNL     1      23.382   5.532  51.702  1.00  0.00     0.152 A 
HETATM   12  C11 UNL     1      24.159   6.701  51.305  1.00  0.00    -0.006 A 
HETATM   13  C12 UNL     1      25.183   6.777  50.489  1.00  0.00     0.020 A 
HETATM   14  C13 UNL     1      25.581   5.499  49.913  1.00  0.00     0.054 A 
HETATM   15 BR1  UNL     1      27.054   5.437  48.699  1.00  0.00    -0.047 Br
HETATM   16  C14 UNL     1      24.944   4.380  50.213  1.00  0.00     0.115 A 
BRANCH  16  17
HETATM   17  N3  UNL     1      25.359   3.150  49.634  1.00  0.00    -0.384 N 
HETATM   18  H13 UNL     1      24.702   2.860  48.872  1.00  0.00     0.157 HD
HETATM   19  H14 UNL     1      26.240   2.707  50.033  1.00  0.00     0.157 HD
ENDBRANCH  16  17
ENDBRANCH   7  10
BRANCH   1  20
HETATM   20  N1  UNL     1      27.363   1.780  53.155  1.00  0.00    -0.238 N 
BRANCH  20  21
HETATM   21  C2  UNL     1      27.727   0.802  54.092  1.00  0.00     0.113 C 
HETATM   22  C1  UNL     1      28.778   0.028  53.939  1.00  0.00     0.032 C 
ENDBRANCH  20  21
BRANCH  20  23
HETATM   23  O1  UNL     1      27.856   2.751  52.390  1.00  0.00    -0.283 OA
HETATM   24  H4  UNL     1      27.700   3.658  52.694  1.00  0.00     0.245 HD
ENDBRANCH  20  23
ENDBRANCH   1  20
TORSDOF 5
ENDMDL
MODEL 5
REMARK VINA RESULT:      -6.5      2.981      5.551
REMARK  5 active torsions:
REMARK  status: ('A' for Active; 'I' for Inactive)
REMARK    1  A    between atoms: C2_2  and  N1_3 
REMARK    2  A    between atoms: N1_3  and  O1_4 
REMARK    3  A    between atoms: N1_3  and  C3_5 
REMARK    4  A    between atoms: C9_11  and  N2_12 
REMARK    5  A    between atoms: C14_18  and  N3_19 
ROOT
HETATM    1  C3  UNL     1      25.465   3.690  50.191  1.00  0.00     0.056 A 
HETATM    2  C4  UNL     1      24.084   3.756  50.212  1.00  0.00     0.017 A 
HETATM    3  C5  UNL     1      23.586   2.533  50.775  1.00  0.00     0.011 A 
HETATM    4  C6  UNL     1      23.150   1.409  51.291  1.00  0.00     0.022 A 
HETATM    5  C7  UNL     1      24.591   1.732  51.111  1.00  0.00     0.021 A 
HETATM    6  C8  UNL     1      25.724   2.404  50.771  1.00  0.00     0.018 A 
HETATM    7  C9  UNL     1      24.856   0.988  52.438  1.00  0.00     0.122 A 
HETATM    8  C15 UNL     1      24.025   2.019  53.311  1.00  0.00    -0.003 A 
HETATM    9  N4  UNL     1      23.646   1.919  52.139  1.00  0.00     0.000 N 
ENDROOT
BRANCH   7  10
HETATM   10  N2  UNL     1      26.213   0.993  52.846  1.00  0.00    -0.354 N 
HETATM   11  C10 UNL     1      26.677   2.298  53.278  1.00  0.00     0.152 A 
HETATM   12  C11 UNL     1      28.063   2.309  53.731  1.00  0.00    -0.006 A 
HETATM   13  C12 UNL     1      28.925   1.322  53.788  1.00  0.00     0.020 A 
HETATM   14  C13 UNL     1      28.395   0.044  53.330  1.00  0.00     0.054 A 
HETATM   15 BR1  UNL     1      29.523  -1.497  53.344  1.00  0.00    -0.047 Br
HETATM   16  C14 UNL     1      27.149  -0.073  52.904  1.00  0.00     0.115 A 
BRANCH  16  17
HETATM   17  N3  UNL     1      26.664  -1.335  52.465  1.00  0.00    -0.384 N 
HETATM   18  H13 UNL     1      26.878  -2.079  53.171  1.00  0.00     0.157 HD
HETATM   19  H14 UNL     1      26.171  -1.356  51.523  1.00  0.00     0.157 HD
ENDBRANCH  16  17
ENDBRANCH   7  10
BRANCH   1  20
HETATM   20  N1  UNL     1      26.340   4.618  49.714  1.00  0.00    -0.238 N 
BRANCH  20  21
HETATM   21  C2  UNL     1      25.622   5.776  49.380  1.00  0.00     0.113 C 
HETATM   22  C1  UNL     1      25.992   6.586  48.415  1.00  0.00     0.032 C 
ENDBRANCH  20  21
BRANCH  20  23
HETATM   23  O1  UNL     1      27.566   4.099  49.734  1.00  0.00    -0.283 OA
HETATM   24  H4  UNL     1      27.808   3.603  50.532  1.00  0.00     0.245 HD
ENDBRANCH  20  23
ENDBRANCH   1  20
TORSDOF 5
ENDMDL
MODEL 6
REMARK VINA RESULT:      -6.4      3.422      5.162
REMARK  5 active torsions:
REMARK  status: ('A' for Active; 'I' for Inactive)
REMARK    1  A    between atoms: C2_2  and  N1_3 
REMARK    2  A    between atoms: N1_3  and  O1_4 
REMARK    3  A    between atoms: N1_3  and  C3_5 
REMARK    4  A    between atoms: C9_11  and  N2_12 
REMARK    5  A    between atoms: C14_18  and  N3_19 
ROOT
HETATM    1  C3  UNL     1      21.830  -0.347  53.437  1.00  0.00     0.056 A 
HETATM    2  C4  UNL     1      23.083  -0.447  54.013  1.00  0.00     0.017 A 
HETATM    3  C5  UNL     1      24.021   0.232  53.165  1.00  0.00     0.011 A 
HETATM    4  C6  UNL     1      24.863   0.856  52.377  1.00  0.00     0.022 A 
HETATM    5  C7  UNL     1      23.403   0.751  52.110  1.00  0.00     0.021 A 
HETATM    6  C8  UNL     1      22.092   0.419  52.252  1.00  0.00     0.018 A 
HETATM    7  C9  UNL     1      23.474   2.183  51.535  1.00  0.00     0.122 A 
HETATM    8  C15 UNL     1      23.872   2.841  52.921  1.00  0.00    -0.003 A 
HETATM    9  N4  UNL     1      24.232   1.666  52.790  1.00  0.00     0.000 N 
ENDROOT
BRANCH   7  10
HETATM   10  N2  UNL     1      22.226   2.695  51.097  1.00  0.00    -0.354 N 
HETATM   11  C10 UNL     1      21.481   3.362  52.148  1.00  0.00     0.152 A 
HETATM   12  C11 UNL     1      20.210   3.922  51.704  1.00  0.00    -0.006 A 
HETATM   13  C12 UNL     1      19.664   3.894  50.511  1.00  0.00     0.020 A 
HETATM   14  C13 UNL     1      20.461   3.199  49.508  1.00  0.00     0.054 A 
HETATM   15 BR1  UNL     1      19.805   3.064  47.719  1.00  0.00    -0.047 Br
HETATM   16  C14 UNL     1      21.630   2.661  49.809  1.00  0.00     0.115 A 
BRANCH  16  17
HETATM   17  N3  UNL     1      22.384   1.992  48.806  1.00  0.00    -0.384 N 
HETATM   18  H13 UNL     1      23.181   2.590  48.483  1.00  0.00     0.157 HD
HETATM   19  H14 UNL     1      22.054   1.020  48.530  1.00  0.00     0.157 HD
ENDBRANCH  16  17
ENDBRANCH   7  10
BRANCH   1  20
HETATM   20  N1  UNL     1      20.657  -0.870  53.888  1.00  0.00    -0.238 N 
BRANCH  20  21
HETATM   21  C2  UNL     1      19.612  -0.359  53.104  1.00  0.00     0.113 C 
HETATM   22  C1  UNL     1      18.425  -0.921  53.050  1.00  0.00     0.032 C 
ENDBRANCH  20  21
BRANCH  20  23
HETATM   23  O1  UNL     1      20.917  -1.682  54.911  1.00  0.00    -0.283 OA
HETATM   24  H4  UNL     1      20.933  -1.272  55.789  1.00  0.00     0.245 HD
ENDBRANCH  20  23
ENDBRANCH   1  20
TORSDOF 5
ENDMDL
MODEL 7
REMARK VINA RESULT:      -6.3      3.144      4.877
REMARK  5 active torsions:
REMARK  status: ('A' for Active; 'I' for Inactive)
REMARK    1  A    between atoms: C2_2  and  N1_3 
REMARK    2  A    between atoms: N1_3  and  O1_4 
REMARK    3  A    between atoms: N1_3  and  C3_5 
REMARK    4  A    between atoms: C9_11  and  N2_12 
REMARK    5  A    between atoms: C14_18  and  N3_19 
ROOT
HETATM    1  C3  UNL     1      26.878   0.174  52.666  1.00  0.00     0.056 A 
HETATM    2  C4  UNL     1      27.401   1.403  52.308  1.00  0.00     0.017 A 
HETATM    3  C5  UNL     1      26.353   2.176  51.704  1.00  0.00     0.011 A 
HETATM    4  C6  UNL     1      25.382   2.866  51.155  1.00  0.00     0.022 A 
HETATM    5  C7  UNL     1      25.217   1.487  51.688  1.00  0.00     0.021 A 
HETATM    6  C8  UNL     1      25.507   0.288  52.258  1.00  0.00     0.018 A 
HETATM    7  C9  UNL     1      23.804   1.907  52.150  1.00  0.00     0.122 A 
HETATM    8  C15 UNL     1      24.341   2.983  53.184  1.00  0.00    -0.003 A 
HETATM    9  N4  UNL     1      25.085   2.786  52.218  1.00  0.00     0.000 N 
ENDROOT
BRANCH   7  10
HETATM   10  N2  UNL     1      23.092   0.891  52.836  1.00  0.00    -0.354 N 
HETATM   11  C10 UNL     1      23.911   0.153  53.777  1.00  0.00     0.152 A 
HETATM   12  C11 UNL     1      23.182  -0.874  54.513  1.00  0.00    -0.006 A 
HETATM   13  C12 UNL     1      21.917  -1.214  54.429  1.00  0.00     0.020 A 
HETATM   14  C13 UNL     1      21.158  -0.439  53.456  1.00  0.00     0.054 A 
HETATM   15 BR1  UNL     1      19.301  -0.812  53.206  1.00  0.00    -0.047 Br
HETATM   16  C14 UNL     1      21.725   0.518  52.742  1.00  0.00     0.115 A 
BRANCH  16  17
HETATM   17  N3  UNL     1      20.954   1.256  51.803  1.00  0.00    -0.384 N 
HETATM   18  H13 UNL     1      20.158   0.677  51.443  1.00  0.00     0.157 HD
HETATM   19  H14 UNL     1      21.271   2.250  51.600  1.00  0.00     0.157 HD
ENDBRANCH  16  17
ENDBRANCH   7  10
BRANCH   1  20
HETATM   20  N1  UNL     1      27.527  -0.876  53.240  1.00  0.00    -0.238 N 
BRANCH  20  21
HETATM   21  C2  UNL     1      28.730  -0.407  53.790  1.00  0.00     0.113 C 
HETATM   22  C1  UNL     1      29.872  -1.041  53.643  1.00  0.00     0.032 C 
ENDBRANCH  20  21
BRANCH  20  23
HETATM   23  O1  UNL     1      26.792  -1.973  53.078  1.00  0.00    -0.283 OA
HETATM   24  H4  UNL     1      25.836  -1.840  52.987  1.00  0.00     0.245 HD
ENDBRANCH  20  23
ENDBRANCH   1  20
TORSDOF 5
ENDMDL
MODEL 8
REMARK VINA RESULT:      -6.3      1.822      2.115
REMARK  5 active torsions:
REMARK  status: ('A' for Active; 'I' for Inactive)
REMARK    1  A    between atoms: C2_2  and  N1_3 
REMARK    2  A    between atoms: N1_3  and  O1_4 
REMARK    3  A    between atoms: N1_3  and  C3_5 
REMARK    4  A    between atoms: C9_11  and  N2_12 
REMARK    5  A    between atoms: C14_18  and  N3_19 
ROOT
HETATM    1  C3  UNL     1      24.655   0.866  53.291  1.00  0.00     0.056 A 
HETATM    2  C4  UNL     1      23.970  -0.251  53.732  1.00  0.00     0.017 A 
HETATM    3  C5  UNL     1      22.564  -0.002  53.582  1.00  0.00     0.011 A 
HETATM    4  C6  UNL     1      21.284   0.244  53.437  1.00  0.00     0.022 A 
HETATM    5  C7  UNL     1      22.358   1.202  53.060  1.00  0.00     0.021 A 
HETATM    6  C8  UNL     1      23.594   1.739  52.877  1.00  0.00     0.018 A 
HETATM    7  C9  UNL     1      21.474   1.618  51.864  1.00  0.00     0.122 A 
HETATM    8  C15 UNL     1      21.549   0.195  51.169  1.00  0.00    -0.003 A 
HETATM    9  N4  UNL     1      21.661   0.171  52.400  1.00  0.00     0.000 N 
ENDROOT
BRANCH   7  10
HETATM   10  N2  UNL     1      22.059   2.598  51.023  1.00  0.00    -0.354 N 
HETATM   11  C10 UNL     1      22.770   2.031  49.892  1.00  0.00     0.152 A 
HETATM   12  C11 UNL     1      23.349   3.030  49.000  1.00  0.00    -0.006 A 
HETATM   13  C12 UNL     1      23.320   4.339  49.091  1.00  0.00     0.020 A 
HETATM   14  C13 UNL     1      22.599   4.838  50.256  1.00  0.00     0.054 A 
HETATM   15 BR1  UNL     1      22.467   6.722  50.539  1.00  0.00    -0.047 Br
HETATM   16  C14 UNL     1      22.034   4.014  51.122  1.00  0.00     0.115 A 
BRANCH  16  17
HETATM   17  N3  UNL     1      21.337   4.535  52.246  1.00  0.00    -0.384 N 
HETATM   18  H13 UNL     1      21.739   5.458  52.534  1.00  0.00     0.157 HD
HETATM   19  H14 UNL     1      20.538   3.946  52.628  1.00  0.00     0.157 HD
ENDBRANCH  16  17
ENDBRANCH   7  10
BRANCH   1  20
HETATM   20  N1  UNL     1      26.000   1.073  53.282  1.00  0.00    -0.238 N 
BRANCH  20  21
HETATM   21  C2  UNL     1      26.456   0.968  51.959  1.00  0.00     0.113 C 
HETATM   22  C1  UNL     1      26.679   2.017  51.200  1.00  0.00     0.032 C 
ENDBRANCH  20  21
BRANCH  20  23
HETATM   23  O1  UNL     1      26.406   1.302  54.529  1.00  0.00    -0.283 OA
HETATM   24  H4  UNL     1      27.157   0.772  54.839  1.00  0.00     0.245 HD
ENDBRANCH  20  23
ENDBRANCH   1  20
TORSDOF 5
ENDMDL
MODEL 9
REMARK VINA RESULT:      -6.3      2.283      3.900
REMARK  5 active torsions:
REMARK  status: ('A' for Active; 'I' for Inactive)
REMARK    1  A    between atoms: C2_2  and  N1_3 
REMARK    2  A    between atoms: N1_3  and  O1_4 
REMARK    3  A    between atoms: N1_3  and  C3_5 
REMARK    4  A    between atoms: C9_11  and  N2_12 
REMARK    5  A    between atoms: C14_18  and  N3_19 
ROOT
HETATM    1  C3  UNL     1      24.137  -0.177  53.209  1.00  0.00     0.056 A 
HETATM    2  C4  UNL     1      25.060  -0.680  54.108  1.00  0.00     0.017 A 
HETATM    3  C5  UNL     1      26.371  -0.301  53.661  1.00  0.00     0.011 A 
HETATM    4  C6  UNL     1      27.560   0.053  53.237  1.00  0.00     0.022 A 
HETATM    5  C7  UNL     1      26.294   0.416  52.546  1.00  0.00     0.021 A 
HETATM    6  C8  UNL     1      24.968   0.504  52.258  1.00  0.00     0.018 A 
HETATM    7  C9  UNL     1      26.949   1.771  52.200  1.00  0.00     0.122 A 
HETATM    8  C15 UNL     1      27.061   2.231  53.713  1.00  0.00    -0.003 A 
HETATM    9  N4  UNL     1      27.091   1.006  53.546  1.00  0.00     0.000 N 
ENDROOT
BRANCH   7  10
HETATM   10  N2  UNL     1      26.105   2.659  51.486  1.00  0.00    -0.354 N 
HETATM   11  C10 UNL     1      26.453   2.777  50.083  1.00  0.00     0.152 A 
HETATM   12  C11 UNL     1      25.572   3.663  49.330  1.00  0.00    -0.006 A 
HETATM   13  C12 UNL     1      24.539   4.355  49.748  1.00  0.00     0.020 A 
HETATM   14  C13 UNL     1      24.254   4.198  51.169  1.00  0.00     0.054 A 
HETATM   15 BR1  UNL     1      22.784   5.144  51.939  1.00  0.00    -0.047 Br
HETATM   16  C14 UNL     1      24.990   3.414  51.937  1.00  0.00     0.115 A 
BRANCH  16  17
HETATM   17  N3  UNL     1      24.683   3.282  53.319  1.00  0.00    -0.384 N 
HETATM   18  H13 UNL     1      23.655   3.400  53.481  1.00  0.00     0.157 HD
HETATM   19  H14 UNL     1      25.498   3.091  53.974  1.00  0.00     0.157 HD
ENDBRANCH  16  17
ENDBRANCH   7  10
BRANCH   1  20
HETATM   20  N1  UNL     1      22.784  -0.323  53.230  1.00  0.00    -0.238 N 
BRANCH  20  21
HETATM   21  C2  UNL     1      22.431  -1.023  54.394  1.00  0.00     0.113 C 
HETATM   22  C1  UNL     1      21.319  -1.717  54.494  1.00  0.00     0.032 C 
ENDBRANCH  20  21
BRANCH  20  23
HETATM   23  O1  UNL     1      22.275   0.250  52.141  1.00  0.00    -0.283 OA
HETATM   24  H4  UNL     1      21.562   0.890  52.288  1.00  0.00     0.245 HD
ENDBRANCH  20  23
ENDBRANCH   1  20
TORSDOF 5
ENDMDL
