MODEL 1
REMARK VINA RESULT:      -8.0      0.000      0.000
REMARK  2 active torsions:
REMARK  status: ('A' for Active; 'I' for Inactive)
REMARK    1  A    between atoms: N1_1  and  C1_2 
REMARK    2  A    between atoms: C14_16  and  O2_17 
ROOT
HETATM    1  C1  UNL     1      26.781  -1.128  52.749  1.00  0.00     0.222 C 
HETATM    2  C2  UNL     1      26.793   0.133  51.887  1.00  0.00     0.040 C 
HETATM    3  C3  UNL     1      26.188   1.275  52.695  1.00  0.00     0.042 C 
HETATM    4  C4  UNL     1      24.837   0.971  53.161  1.00  0.00    -0.044 C 
HETATM    5  C5  UNL     1      24.744  -0.170  53.882  1.00  0.00    -0.065 C 
HETATM    6  C6  UNL     1      23.402  -0.463  54.342  1.00  0.00     0.030 C 
HETATM    7  C7  UNL     1      22.526  -1.154  55.017  1.00  0.00     0.025 C 
HETATM    8  C8  UNL     1      21.351  -0.290  54.585  1.00  0.00     0.173 C 
HETATM    9  O1  UNL     1      21.977   0.626  53.708  1.00  0.00    -0.390 OA
HETATM   10  C9  UNL     1      22.008  -0.094  52.483  1.00  0.00     0.172 C 
HETATM   11  C10 UNL     1      22.900   0.544  51.462  1.00  0.00     0.065 C 
HETATM   12  C11 UNL     1      22.882   2.018  51.730  1.00  0.00    -0.045 A 
HETATM   13  C12 UNL     1      22.183   3.121  51.364  1.00  0.00     0.011 A 
HETATM   14  C13 UNL     1      22.552   4.302  51.963  1.00  0.00     0.037 A 
HETATM   15  C14 UNL     1      23.562   4.400  52.881  1.00  0.00     0.066 A 
HETATM   16  C15 UNL     1      24.296   3.275  53.270  1.00  0.00     0.049 A 
HETATM   17  C16 UNL     1      23.936   2.054  52.672  1.00  0.00    -0.021 A 
HETATM   18  C17 UNL     1      26.067  -0.841  54.042  1.00  0.00     0.070 C 
ENDROOT
BRANCH   1  19
HETATM   19  N1  UNL     1      26.231  -2.188  51.964  1.00  0.00     0.083 N 
HETATM   20  H1  UNL     1      25.214  -2.275  51.969  1.00  0.00     0.313 HD
HETATM   21  H2  UNL     1      26.603  -2.252  50.999  1.00  0.00     0.313 HD
ENDBRANCH   1  19
BRANCH  15  22
HETATM   22  O2  UNL     1      23.843   5.642  53.417  1.00  0.00    -0.361 OA
HETATM   23  H18 UNL     1      23.426   5.971  54.294  1.00  0.00     0.217 HD
ENDBRANCH  15  22
TORSDOF 2
ENDMDL
MODEL 2
REMARK VINA RESULT:      -7.7      2.376      4.471
REMARK  2 active torsions:
REMARK  status: ('A' for Active; 'I' for Inactive)
REMARK    1  A    between atoms: N1_1  and  C1_2 
REMARK    2  A    between atoms: C14_16  and  O2_17 
ROOT
HETATM    1  C1  UNL     1      27.017   1.316  53.347  1.00  0.00     0.222 C 
HETATM    2  C2  UNL     1      25.680   1.024  54.026  1.00  0.00     0.040 C 
HETATM    3  C3  UNL     1      24.657   0.685  52.949  1.00  0.00     0.042 C 
HETATM    4  C4  UNL     1      24.520   1.750  51.957  1.00  0.00    -0.044 C 
HETATM    5  C5  UNL     1      25.682   2.101  51.359  1.00  0.00    -0.065 C 
HETATM    6  C6  UNL     1      25.538   3.155  50.377  1.00  0.00     0.030 C 
HETATM    7  C7  UNL     1      25.984   3.943  49.438  1.00  0.00     0.025 C 
HETATM    8  C8  UNL     1      24.647   4.640  49.237  1.00  0.00     0.173 C 
HETATM    9  O1  UNL     1      23.850   4.021  50.229  1.00  0.00    -0.390 OA
HETATM   10  C9  UNL     1      24.166   4.775  51.391  1.00  0.00     0.172 C 
HETATM   11  C10 UNL     1      23.679   4.123  52.649  1.00  0.00     0.065 C 
HETATM   12  C11 UNL     1      22.447   3.349  52.290  1.00  0.00    -0.045 A 
HETATM   13  C12 UNL     1      21.105   3.527  52.223  1.00  0.00     0.011 A 
HETATM   14  C13 UNL     1      20.372   2.460  51.762  1.00  0.00     0.037 A 
HETATM   15  C14 UNL     1      20.929   1.269  51.382  1.00  0.00     0.066 A 
HETATM   16  C15 UNL     1      22.310   1.065  51.445  1.00  0.00     0.049 A 
HETATM   17  C16 UNL     1      23.082   2.144  51.913  1.00  0.00    -0.021 A 
HETATM   18  C17 UNL     1      26.833   1.292  51.854  1.00  0.00     0.070 C 
ENDROOT
BRANCH   1  19
HETATM   19  N1  UNL     1      27.523   2.539  53.884  1.00  0.00     0.083 N 
HETATM   20  H1  UNL     1      27.750   2.537  54.879  1.00  0.00     0.313 HD
HETATM   21  H2  UNL     1      28.285   2.974  53.332  1.00  0.00     0.313 HD
ENDBRANCH   1  19
BRANCH  15  22
HETATM   22  O2  UNL     1      20.090   0.267  50.933  1.00  0.00    -0.361 OA
HETATM   23  H18 UNL     1      19.895   0.116  49.937  1.00  0.00     0.217 HD
ENDBRANCH  15  22
TORSDOF 2
ENDMDL
MODEL 3
REMARK VINA RESULT:      -7.5      2.875      5.108
REMARK  2 active torsions:
REMARK  status: ('A' for Active; 'I' for Inactive)
REMARK    1  A    between atoms: N1_1  and  C1_2 
REMARK    2  A    between atoms: C14_16  and  O2_17 
ROOT
HETATM    1  C1  UNL     1      23.368   5.489  51.705  1.00  0.00     0.222 C 
HETATM    2  C2  UNL     1      23.538   4.872  53.092  1.00  0.00     0.040 C 
HETATM    3  C3  UNL     1      24.202   3.509  52.934  1.00  0.00     0.042 C 
HETATM    4  C4  UNL     1      23.445   2.621  52.054  1.00  0.00    -0.044 C 
HETATM    5  C5  UNL     1      23.205   3.134  50.825  1.00  0.00    -0.065 C 
HETATM    6  C6  UNL     1      22.457   2.247  49.959  1.00  0.00     0.030 C 
HETATM    7  C7  UNL     1      21.923   1.908  48.818  1.00  0.00     0.025 C 
HETATM    8  C8  UNL     1      21.373   0.591  49.342  1.00  0.00     0.173 C 
HETATM    9  O1  UNL     1      21.748   0.647  50.705  1.00  0.00    -0.390 OA
HETATM   10  C9  UNL     1      20.699   1.413  51.281  1.00  0.00     0.172 C 
HETATM   11  C10 UNL     1      21.020   1.874  52.670  1.00  0.00     0.065 C 
HETATM   12  C11 UNL     1      21.924   0.843  53.274  1.00  0.00    -0.045 A 
HETATM   13  C12 UNL     1      21.839  -0.299  54.000  1.00  0.00     0.011 A 
HETATM   14  C13 UNL     1      23.026  -0.933  54.277  1.00  0.00     0.037 A 
HETATM   15  C14 UNL     1      24.245  -0.470  53.861  1.00  0.00     0.066 A 
HETATM   16  C15 UNL     1      24.353   0.706  53.113  1.00  0.00     0.049 A 
HETATM   17  C16 UNL     1      23.151   1.373  52.816  1.00  0.00    -0.021 A 
HETATM   18  C17 UNL     1      23.795   4.494  50.661  1.00  0.00     0.070 C 
ENDROOT
BRANCH   1  19
HETATM   19  N1  UNL     1      22.022   5.956  51.596  1.00  0.00     0.083 N 
HETATM   20  H1  UNL     1      21.877   6.794  51.034  1.00  0.00     0.313 HD
HETATM   21  H2  UNL     1      21.327   5.225  51.356  1.00  0.00     0.313 HD
ENDBRANCH   1  19
BRANCH  15  22
HETATM   22  O2  UNL     1      25.372  -1.195  54.199  1.00  0.00    -0.361 OA
HETATM   23  H18 UNL     1      25.462  -1.690  55.092  1.00  0.00     0.217 HD
ENDBRANCH  15  22
TORSDOF 2
ENDMDL
MODEL 4
REMARK VINA RESULT:      -7.4      2.311      5.405
REMARK  2 active torsions:
REMARK  status: ('A' for Active; 'I' for Inactive)
REMARK    1  A    between atoms: N1_1  and  C1_2 
REMARK    2  A    between atoms: C14_16  and  O2_17 
ROOT
HETATM    1  C1  UNL     1      21.241   2.280  48.464  1.00  0.00     0.222 C 
HETATM    2  C2  UNL     1      21.452   0.840  48.928  1.00  0.00     0.040 C 
HETATM    3  C3  UNL     1      21.047   0.742  50.394  1.00  0.00     0.042 C 
HETATM    4  C4  UNL     1      21.786   1.679  51.238  1.00  0.00    -0.044 C 
HETATM    5  C5  UNL     1      21.691   2.970  50.845  1.00  0.00    -0.065 C 
HETATM    6  C6  UNL     1      22.424   3.892  51.688  1.00  0.00     0.030 C 
HETATM    7  C7  UNL     1      22.793   5.085  52.065  1.00  0.00     0.025 C 
HETATM    8  C8  UNL     1      23.675   4.572  53.194  1.00  0.00     0.173 C 
HETATM    9  O1  UNL     1      23.554   3.172  53.038  1.00  0.00    -0.390 OA
HETATM   10  C9  UNL     1      24.523   2.889  52.038  1.00  0.00     0.172 C 
HETATM   11  C10 UNL     1      24.381   1.508  51.473  1.00  0.00     0.065 C 
HETATM   12  C11 UNL     1      23.821   0.648  52.564  1.00  0.00    -0.045 A 
HETATM   13  C12 UNL     1      24.258  -0.141  53.577  1.00  0.00     0.011 A 
HETATM   14  C13 UNL     1      23.287  -0.707  54.369  1.00  0.00     0.037 A 
HETATM   15  C14 UNL     1      21.947  -0.510  54.178  1.00  0.00     0.066 A 
HETATM   16  C15 UNL     1      21.477   0.297  53.138  1.00  0.00     0.049 A 
HETATM   17  C16 UNL     1      22.451   0.889  52.315  1.00  0.00    -0.021 A 
HETATM   18  C17 UNL     1      20.829   3.126  49.638  1.00  0.00     0.070 C 
ENDROOT
BRANCH   1  19
HETATM   19  N1  UNL     1      22.427   2.701  47.788  1.00  0.00     0.083 N 
HETATM   20  H1  UNL     1      22.628   3.700  47.806  1.00  0.00     0.313 HD
HETATM   21  H2  UNL     1      23.274   2.149  48.016  1.00  0.00     0.313 HD
ENDBRANCH   1  19
BRANCH  15  22
HETATM   22  O2  UNL     1      21.063  -1.132  55.040  1.00  0.00    -0.361 OA
HETATM   23  H18 UNL     1      20.125  -1.427  54.749  1.00  0.00     0.217 HD
ENDBRANCH  15  22
TORSDOF 2
ENDMDL
MODEL 5
REMARK VINA RESULT:      -7.3      2.646      4.992
REMARK  2 active torsions:
REMARK  status: ('A' for Active; 'I' for Inactive)
REMARK    1  A    between atoms: N1_1  and  C1_2 
REMARK    2  A    between atoms: C14_16  and  O2_17 
ROOT
HETATM    1  C1  UNL     1      20.296   0.940  51.927  1.00  0.00     0.222 C 
HETATM    2  C2  UNL     1      21.541   0.056  51.953  1.00  0.00     0.040 C 
HETATM    3  C3  UNL     1      22.577   0.710  52.860  1.00  0.00     0.042 C 
HETATM    4  C4  UNL     1      22.908   2.068  52.436  1.00  0.00    -0.044 C 
HETATM    5  C5  UNL     1      21.838   2.891  52.333  1.00  0.00    -0.065 C 
HETATM    6  C6  UNL     1      22.175   4.236  51.914  1.00  0.00     0.030 C 
HETATM    7  C7  UNL     1      21.890   5.483  51.657  1.00  0.00     0.025 C 
HETATM    8  C8  UNL     1      23.314   5.839  51.260  1.00  0.00     0.173 C 
HETATM    9  O1  UNL     1      23.964   4.588  51.372  1.00  0.00    -0.390 OA
HETATM   10  C9  UNL     1      23.676   3.979  50.121  1.00  0.00     0.172 C 
HETATM   11  C10 UNL     1      23.999   2.516  50.106  1.00  0.00     0.065 C 
HETATM   12  C11 UNL     1      25.142   2.313  51.053  1.00  0.00    -0.045 A 
HETATM   13  C12 UNL     1      26.498   2.302  51.040  1.00  0.00     0.011 A 
HETATM   14  C13 UNL     1      27.117   2.103  52.251  1.00  0.00     0.037 A 
HETATM   15  C14 UNL     1      26.438   1.923  53.425  1.00  0.00     0.066 A 
HETATM   16  C15 UNL     1      25.040   1.929  53.459  1.00  0.00     0.049 A 
HETATM   17  C16 UNL     1      24.384   2.132  52.232  1.00  0.00    -0.021 A 
HETATM   18  C17 UNL     1      20.566   2.204  52.698  1.00  0.00     0.070 C 
ENDROOT
BRANCH   1  19
HETATM   19  N1  UNL     1      19.917   1.122  50.561  1.00  0.00     0.083 N 
HETATM   20  H1  UNL     1      19.187   0.504  50.208  1.00  0.00     0.313 HD
HETATM   21  H2  UNL     1      19.733   2.105  50.289  1.00  0.00     0.313 HD
ENDBRANCH   1  19
BRANCH  15  22
HETATM   22  O2  UNL     1      27.168   1.732  54.582  1.00  0.00    -0.361 OA
HETATM   23  H18 UNL     1      26.857   2.081  55.495  1.00  0.00     0.217 HD
ENDBRANCH  15  22
TORSDOF 2
ENDMDL
MODEL 6
REMARK VINA RESULT:      -7.0      3.187      5.004
REMARK  2 active torsions:
REMARK  status: ('A' for Active; 'I' for Inactive)
REMARK    1  A    between atoms: N1_1  and  C1_2 
REMARK    2  A    between atoms: C14_16  and  O2_17 
ROOT
HETATM    1  C1  UNL     1      22.693   4.492  48.034  1.00  0.00     0.222 C 
HETATM    2  C2  UNL     1      23.839   5.047  48.879  1.00  0.00     0.040 C 
HETATM    3  C3  UNL     1      24.709   3.882  49.334  1.00  0.00     0.042 C 
HETATM    4  C4  UNL     1      23.950   2.877  50.076  1.00  0.00    -0.044 C 
HETATM    5  C5  UNL     1      22.882   2.387  49.405  1.00  0.00    -0.065 C 
HETATM    6  C6  UNL     1      22.136   1.390  50.145  1.00  0.00     0.030 C 
HETATM    7  C7  UNL     1      21.198   0.492  50.273  1.00  0.00     0.025 C 
HETATM    8  C8  UNL     1      21.556   0.166  51.715  1.00  0.00     0.173 C 
HETATM    9  O1  UNL     1      22.604   1.083  51.964  1.00  0.00    -0.390 OA
HETATM   10  C9  UNL     1      21.899   2.266  52.316  1.00  0.00     0.172 C 
HETATM   11  C10 UNL     1      22.781   3.478  52.332  1.00  0.00     0.065 C 
HETATM   12  C11 UNL     1      24.156   3.010  52.703  1.00  0.00    -0.045 A 
HETATM   13  C12 UNL     1      24.912   2.820  53.812  1.00  0.00     0.011 A 
HETATM   14  C13 UNL     1      26.167   2.299  53.611  1.00  0.00     0.037 A 
HETATM   15  C14 UNL     1      26.662   1.977  52.376  1.00  0.00     0.066 A 
HETATM   16  C15 UNL     1      25.899   2.167  51.221  1.00  0.00     0.049 A 
HETATM   17  C16 UNL     1      24.610   2.699  51.401  1.00  0.00    -0.021 A 
HETATM   18  C17 UNL     1      22.748   2.988  48.047  1.00  0.00     0.070 C 
ENDROOT
BRANCH   1  19
HETATM   19  N1  UNL     1      21.477   5.068  48.513  1.00  0.00     0.083 N 
HETATM   20  H1  UNL     1      20.630   4.516  48.376  1.00  0.00     0.313 HD
HETATM   21  H2  UNL     1      21.524   5.439  49.480  1.00  0.00     0.313 HD
ENDBRANCH   1  19
BRANCH  15  22
HETATM   22  O2  UNL     1      27.940   1.458  52.297  1.00  0.00    -0.361 OA
HETATM   23  H18 UNL     1      28.556   1.380  53.113  1.00  0.00     0.217 HD
ENDBRANCH  15  22
TORSDOF 2
ENDMDL
MODEL 7
REMARK VINA RESULT:      -6.9     10.686     12.657
REMARK  2 active torsions:
REMARK  status: ('A' for Active; 'I' for Inactive)
REMARK    1  A    between atoms: N1_1  and  C1_2 
REMARK    2  A    between atoms: C14_16  and  O2_17 
ROOT
HETATM    1  C1  UNL     1      33.799   7.405  44.063  1.00  0.00     0.222 C 
HETATM    2  C2  UNL     1      34.219   5.951  43.853  1.00  0.00     0.040 C 
HETATM    3  C3  UNL     1      33.109   5.049  44.378  1.00  0.00     0.042 C 
HETATM    4  C4  UNL     1      32.801   5.307  45.783  1.00  0.00    -0.044 C 
HETATM    5  C5  UNL     1      32.479   6.594  46.050  1.00  0.00    -0.065 C 
HETATM    6  C6  UNL     1      32.173   6.841  47.444  1.00  0.00     0.030 C 
HETATM    7  C7  UNL     1      31.775   7.590  48.435  1.00  0.00     0.025 C 
HETATM    8  C8  UNL     1      31.945   6.492  49.475  1.00  0.00     0.173 C 
HETATM    9  O1  UNL     1      32.471   5.437  48.693  1.00  0.00    -0.390 OA
HETATM   10  C9  UNL     1      33.859   5.741  48.662  1.00  0.00     0.172 C 
HETATM   11  C10 UNL     1      34.601   4.937  47.638  1.00  0.00     0.065 C 
HETATM   12  C11 UNL     1      33.883   3.629  47.508  1.00  0.00    -0.045 A 
HETATM   13  C12 UNL     1      33.902   2.387  48.053  1.00  0.00     0.011 A 
HETATM   14  C13 UNL     1      32.952   1.507  47.595  1.00  0.00     0.037 A 
HETATM   15  C14 UNL     1      32.022   1.827  46.644  1.00  0.00     0.066 A 
HETATM   16  C15 UNL     1      31.987   3.100  46.068  1.00  0.00     0.049 A 
HETATM   17  C16 UNL     1      32.949   4.020  46.522  1.00  0.00    -0.021 A 
HETATM   18  C17 UNL     1      32.502   7.443  44.825  1.00  0.00     0.070 C 
ENDROOT
BRANCH   1  19
HETATM   19  N1  UNL     1      34.892   8.092  44.675  1.00  0.00     0.083 N 
HETATM   20  H1  UNL     1      35.228   8.927  44.196  1.00  0.00     0.313 HD
HETATM   21  H2  UNL     1      34.781   8.268  45.691  1.00  0.00     0.313 HD
ENDBRANCH   1  19
BRANCH  15  22
HETATM   22  O2  UNL     1      31.114   0.857  46.261  1.00  0.00    -0.361 OA
HETATM   23  H18 UNL     1      30.361   0.534  46.877  1.00  0.00     0.217 HD
ENDBRANCH  15  22
TORSDOF 2
ENDMDL
MODEL 8
REMARK VINA RESULT:      -6.8     11.003     12.407
REMARK  2 active torsions:
REMARK  status: ('A' for Active; 'I' for Inactive)
REMARK    1  A    between atoms: N1_1  and  C1_2 
REMARK    2  A    between atoms: C14_16  and  O2_17 
ROOT
HETATM    1  C1  UNL     1      33.698   2.478  47.184  1.00  0.00     0.222 C 
HETATM    2  C2  UNL     1      32.439   2.816  46.388  1.00  0.00     0.040 C 
HETATM    3  C3  UNL     1      32.738   4.017  45.499  1.00  0.00     0.042 C 
HETATM    4  C4  UNL     1      33.200   5.173  46.265  1.00  0.00    -0.044 C 
HETATM    5  C5  UNL     1      34.280   4.925  47.041  1.00  0.00    -0.065 C 
HETATM    6  C6  UNL     1      34.734   6.076  47.795  1.00  0.00     0.030 C 
HETATM    7  C7  UNL     1      35.561   6.697  48.590  1.00  0.00     0.025 C 
HETATM    8  C8  UNL     1      34.774   7.999  48.568  1.00  0.00     0.173 C 
HETATM    9  O1  UNL     1      33.663   7.648  47.767  1.00  0.00    -0.390 OA
HETATM   10  C9  UNL     1      32.789   7.036  48.705  1.00  0.00     0.172 C 
HETATM   11  C10 UNL     1      31.661   6.302  48.047  1.00  0.00     0.065 C 
HETATM   12  C11 UNL     1      31.372   7.011  46.759  1.00  0.00    -0.045 A 
HETATM   13  C12 UNL     1      30.589   8.014  46.292  1.00  0.00     0.011 A 
HETATM   14  C13 UNL     1      30.737   8.334  44.963  1.00  0.00     0.037 A 
HETATM   15  C14 UNL     1      31.615   7.699  44.127  1.00  0.00     0.066 A 
HETATM   16  C15 UNL     1      32.431   6.662  44.589  1.00  0.00     0.049 A 
HETATM   17  C16 UNL     1      32.297   6.317  45.947  1.00  0.00    -0.021 A 
HETATM   18  C17 UNL     1      34.752   3.517  46.912  1.00  0.00     0.070 C 
ENDROOT
BRANCH   1  19
HETATM   19  N1  UNL     1      33.322   2.327  48.554  1.00  0.00     0.083 N 
HETATM   20  H1  UNL     1      32.891   1.439  48.810  1.00  0.00     0.313 HD
HETATM   21  H2  UNL     1      34.055   2.593  49.237  1.00  0.00     0.313 HD
ENDBRANCH   1  19
BRANCH  15  22
HETATM   22  O2  UNL     1      31.678   8.108  42.809  1.00  0.00    -0.361 OA
HETATM   23  H18 UNL     1      32.545   8.444  42.376  1.00  0.00     0.217 HD
ENDBRANCH  15  22
TORSDOF 2
ENDMDL
MODEL 9
REMARK VINA RESULT:      -6.6      3.393      5.590
REMARK  2 active torsions:
REMARK  status: ('A' for Active; 'I' for Inactive)
REMARK    1  A    between atoms: N1_1  and  C1_2 
REMARK    2  A    between atoms: C14_16  and  O2_17 
ROOT
HETATM    1  C1  UNL     1      23.623   6.303  49.592  1.00  0.00     0.222 C 
HETATM    2  C2  UNL     1      24.286   5.945  50.920  1.00  0.00     0.040 C 
HETATM    3  C3  UNL     1      25.003   4.610  50.757  1.00  0.00     0.042 C 
HETATM    4  C4  UNL     1      24.103   3.546  50.317  1.00  0.00    -0.044 C 
HETATM    5  C5  UNL     1      23.435   3.825  49.174  1.00  0.00    -0.065 C 
HETATM    6  C6  UNL     1      22.547   2.765  48.743  1.00  0.00     0.030 C 
HETATM    7  C7  UNL     1      21.718   2.207  47.905  1.00  0.00     0.025 C 
HETATM    8  C8  UNL     1      21.502   0.975  48.770  1.00  0.00     0.173 C 
HETATM    9  O1  UNL     1      22.281   1.286  49.910  1.00  0.00    -0.390 OA
HETATM   10  C9  UNL     1      21.394   2.087  50.678  1.00  0.00     0.172 C 
HETATM   11  C10 UNL     1      22.088   2.799  51.800  1.00  0.00     0.065 C 
HETATM   12  C11 UNL     1      23.238   1.934  52.219  1.00  0.00    -0.045 A 
HETATM   13  C12 UNL     1      23.506   0.933  53.093  1.00  0.00     0.011 A 
HETATM   14  C13 UNL     1      24.779   0.416  53.054  1.00  0.00     0.037 A 
HETATM   15  C14 UNL     1      25.748   0.860  52.197  1.00  0.00     0.066 A 
HETATM   16  C15 UNL     1      25.493   1.892  51.289  1.00  0.00     0.049 A 
HETATM   17  C16 UNL     1      24.196   2.436  51.309  1.00  0.00    -0.021 A 
HETATM   18  C17 UNL     1      23.798   5.163  48.625  1.00  0.00     0.070 C 
ENDROOT
BRANCH   1  19
HETATM   19  N1  UNL     1      22.270   6.676  49.864  1.00  0.00     0.083 N 
HETATM   20  H1  UNL     1      21.706   6.951  49.060  1.00  0.00     0.313 HD
HETATM   21  H2  UNL     1      21.752   6.015  50.471  1.00  0.00     0.313 HD
ENDBRANCH   1  19
BRANCH  15  22
HETATM   22  O2  UNL     1      26.993   0.262  52.249  1.00  0.00    -0.361 OA
HETATM   23  H18 UNL     1      27.813   0.729  52.650  1.00  0.00     0.217 HD
ENDBRANCH  15  22
TORSDOF 2
ENDMDL
