MODEL 1
REMARK VINA RESULT:      -8.4      0.000      0.000
REMARK  7 active torsions:
REMARK  status: ('A' for Active; 'I' for Inactive)
REMARK    1  A    between atoms: O1_2  and  C2_3 
REMARK    2  A    between atoms: C6_9  and  C7_10 
REMARK    3  A    between atoms: C15_20  and  O2_21 
REMARK    4  A    between atoms: O2_21  and  C16_22 
REMARK    5  A    between atoms: C16_22  and  C17_23 
REMARK    6  A    between atoms: C17_23  and  C18_24 
REMARK    7  A    between atoms: C18_24  and  N3_25 
ROOT
HETATM    1  C2  UNL     1      26.960   0.693  53.199  1.00  0.00     0.103 A 
HETATM    2  C3  UNL     1      26.634  -0.058  54.333  1.00  0.00     0.072 A 
HETATM    3  C4  UNL     1      25.336  -0.445  54.508  1.00  0.00     0.073 A 
HETATM    4  N1  UNL     1      24.975  -1.175  55.570  1.00  0.00    -0.241 NA
HETATM    5  C5  UNL     1      23.680  -1.558  55.716  1.00  0.00     0.234 A 
HETATM    6  N2  UNL     1      22.728  -1.222  54.814  1.00  0.00    -0.240 NA
HETATM    7  C6  UNL     1      23.034  -0.478  53.711  1.00  0.00     0.081 A 
HETATM    8  C13 UNL     1      24.354  -0.122  53.613  1.00  0.00     0.025 A 
HETATM    9  C14 UNL     1      24.714   0.614  52.516  1.00  0.00     0.055 A 
HETATM   10  C15 UNL     1      25.993   1.051  52.251  1.00  0.00     0.103 A 
ENDROOT
BRANCH  10  11
HETATM   11  O2  UNL     1      26.524   1.768  51.249  1.00  0.00    -0.348 OA
BRANCH  11  12
HETATM   12  C16 UNL     1      26.480   3.067  50.838  1.00  0.00     0.177 C 
BRANCH  12  13
HETATM   13  C17 UNL     1      25.583   3.207  49.629  1.00  0.00     0.057 C 
BRANCH  13  14
HETATM   14  C18 UNL     1      24.111   3.237  50.055  1.00  0.00     0.274 C 
BRANCH  14  15
HETATM   15  N3  UNL     1      23.973   4.270  51.036  1.00  0.00     0.092 N 
HETATM   16  C19 UNL     1      23.071   3.897  52.114  1.00  0.00     0.298 C 
HETATM   17  C20 UNL     1      21.623   4.040  51.788  1.00  0.00     0.198 C 
HETATM   18  O3  UNL     1      21.364   5.123  50.961  1.00  0.00    -0.388 OA
HETATM   19  C21 UNL     1      22.352   6.089  51.231  1.00  0.00     0.198 C 
HETATM   20  C22 UNL     1      23.590   5.562  50.482  1.00  0.00     0.298 C 
ENDBRANCH  14  15
ENDBRANCH  13  14
ENDBRANCH  12  13
ENDBRANCH  11  12
ENDBRANCH  10  11
BRANCH   1  21
HETATM   21  O1  UNL     1      28.306   1.045  53.100  1.00  0.00    -0.353 OA
HETATM   22  C1  UNL     1      29.140   1.045  54.234  1.00  0.00     0.210 C 
ENDBRANCH   1  21
BRANCH   7  23
HETATM   23  C7  UNL     1      21.950  -0.172  52.801  1.00  0.00    -0.005 A 
HETATM   24  C8  UNL     1      20.707  -0.379  53.400  1.00  0.00     0.017 A 
HETATM   25  C9  UNL     1      19.518  -0.139  52.736  1.00  0.00     0.045 A 
HETATM   26  C10 UNL     1      19.516   0.320  51.437  1.00  0.00     0.138 A 
HETATM   27  F1  UNL     1      18.427   0.595  50.678  1.00  0.00    -0.204 F 
HETATM   28  C11 UNL     1      20.745   0.524  50.848  1.00  0.00     0.073 A 
HETATM   29 CL1  UNL     1      20.862   1.108  49.203  1.00  0.00    -0.081 Cl
HETATM   30  C12 UNL     1      21.932   0.287  51.506  1.00  0.00     0.041 A 
ENDBRANCH   7  23
TORSDOF 7
ENDMDL
MODEL 2
REMARK VINA RESULT:      -8.2      3.519      5.673
REMARK  7 active torsions:
REMARK  status: ('A' for Active; 'I' for Inactive)
REMARK    1  A    between atoms: O1_2  and  C2_3 
REMARK    2  A    between atoms: C6_9  and  C7_10 
REMARK    3  A    between atoms: C15_20  and  O2_21 
REMARK    4  A    between atoms: O2_21  and  C16_22 
REMARK    5  A    between atoms: C16_22  and  C17_23 
REMARK    6  A    between atoms: C17_23  and  C18_24 
REMARK    7  A    between atoms: C18_24  and  N3_25 
ROOT
HETATM    1  C2  UNL     1      21.960   1.065  51.890  1.00  0.00     0.103 A 
HETATM    2  C3  UNL     1      21.593   0.257  52.972  1.00  0.00     0.072 A 
HETATM    3  C4  UNL     1      22.579  -0.266  53.759  1.00  0.00     0.073 A 
HETATM    4  N1  UNL     1      22.279  -1.035  54.813  1.00  0.00    -0.241 NA
HETATM    5  C5  UNL     1      23.276  -1.533  55.589  1.00  0.00     0.234 A 
HETATM    6  N2  UNL     1      24.581  -1.276  55.331  1.00  0.00    -0.240 NA
HETATM    7  C6  UNL     1      24.949  -0.500  54.271  1.00  0.00     0.081 A 
HETATM    8  C13 UNL     1      23.903  -0.022  53.524  1.00  0.00     0.025 A 
HETATM    9  C14 UNL     1      24.220   0.774  52.457  1.00  0.00     0.055 A 
HETATM   10  C15 UNL     1      23.302   1.346  51.605  1.00  0.00     0.103 A 
ENDROOT
BRANCH  10  11
HETATM   11  O2  UNL     1      23.424   2.138  50.528  1.00  0.00    -0.348 OA
BRANCH  11  12
HETATM   12  C16 UNL     1      24.368   2.988  50.035  1.00  0.00     0.177 C 
BRANCH  12  13
HETATM   13  C17 UNL     1      24.028   4.417  50.395  1.00  0.00     0.057 C 
BRANCH  13  14
HETATM   14  C18 UNL     1      24.825   5.393  49.520  1.00  0.00     0.274 C 
BRANCH  14  15
HETATM   15  N3  UNL     1      25.267   6.458  50.367  1.00  0.00     0.092 N 
HETATM   16  C19 UNL     1      24.165   7.135  51.032  1.00  0.00     0.298 C 
HETATM   17  C20 UNL     1      23.449   8.132  50.184  1.00  0.00     0.198 C 
HETATM   18  O3  UNL     1      24.295   8.798  49.310  1.00  0.00    -0.388 OA
HETATM   19  C21 UNL     1      25.562   8.844  49.921  1.00  0.00     0.198 C 
HETATM   20  C22 UNL     1      26.125   7.427  49.696  1.00  0.00     0.298 C 
ENDBRANCH  14  15
ENDBRANCH  13  14
ENDBRANCH  12  13
ENDBRANCH  11  12
ENDBRANCH  10  11
BRANCH   1  21
HETATM   21  O1  UNL     1      20.892   1.555  51.140  1.00  0.00    -0.353 OA
HETATM   22  C1  UNL     1      19.667   1.886  51.752  1.00  0.00     0.210 C 
ENDBRANCH   1  21
BRANCH   7  23
HETATM   23  C7  UNL     1      26.367  -0.277  54.078  1.00  0.00    -0.005 A 
HETATM   24  C8  UNL     1      26.950  -1.312  53.345  1.00  0.00     0.017 A 
HETATM   25  C9  UNL     1      28.293  -1.318  53.017  1.00  0.00     0.045 A 
HETATM   26  C10 UNL     1      29.119  -0.286  53.406  1.00  0.00     0.138 A 
HETATM   27  F1  UNL     1      30.445  -0.171  53.150  1.00  0.00    -0.204 F 
HETATM   28  C11 UNL     1      28.540   0.735  54.129  1.00  0.00     0.073 A 
HETATM   29 CL1  UNL     1      29.494   2.097  54.674  1.00  0.00    -0.081 Cl
HETATM   30  C12 UNL     1      27.203   0.745  54.458  1.00  0.00     0.041 A 
ENDBRANCH   7  23
TORSDOF 7
ENDMDL
MODEL 3
REMARK VINA RESULT:      -8.1      0.974      1.416
REMARK  7 active torsions:
REMARK  status: ('A' for Active; 'I' for Inactive)
REMARK    1  A    between atoms: O1_2  and  C2_3 
REMARK    2  A    between atoms: C6_9  and  C7_10 
REMARK    3  A    between atoms: C15_20  and  O2_21 
REMARK    4  A    between atoms: O2_21  and  C16_22 
REMARK    5  A    between atoms: C16_22  and  C17_23 
REMARK    6  A    between atoms: C17_23  and  C18_24 
REMARK    7  A    between atoms: C18_24  and  N3_25 
ROOT
HETATM    1  C2  UNL     1      27.036   0.691  53.174  1.00  0.00     0.103 A 
HETATM    2  C3  UNL     1      26.730  -0.058  54.315  1.00  0.00     0.072 A 
HETATM    3  C4  UNL     1      25.436  -0.445  54.514  1.00  0.00     0.073 A 
HETATM    4  N1  UNL     1      25.095  -1.174  55.584  1.00  0.00    -0.241 NA
HETATM    5  C5  UNL     1      23.803  -1.557  55.754  1.00  0.00     0.234 A 
HETATM    6  N2  UNL     1      22.834  -1.223  54.868  1.00  0.00    -0.240 NA
HETATM    7  C6  UNL     1      23.120  -0.481  53.759  1.00  0.00     0.081 A 
HETATM    8  C13 UNL     1      24.438  -0.124  53.637  1.00  0.00     0.025 A 
HETATM    9  C14 UNL     1      24.778   0.609  52.532  1.00  0.00     0.055 A 
HETATM   10  C15 UNL     1      26.051   1.046  52.243  1.00  0.00     0.103 A 
ENDROOT
BRANCH  10  11
HETATM   11  O2  UNL     1      26.564   1.762  51.230  1.00  0.00    -0.348 OA
BRANCH  11  12
HETATM   12  C16 UNL     1      26.492   3.055  50.804  1.00  0.00     0.177 C 
BRANCH  12  13
HETATM   13  C17 UNL     1      25.176   3.307  50.105  1.00  0.00     0.057 C 
BRANCH  13  14
HETATM   14  C18 UNL     1      24.268   4.186  50.973  1.00  0.00     0.274 C 
BRANCH  14  15
HETATM   15  N3  UNL     1      23.646   5.140  50.107  1.00  0.00     0.092 N 
HETATM   16  C19 UNL     1      24.612   5.995  49.435  1.00  0.00     0.298 C 
HETATM   17  C20 UNL     1      25.130   7.118  50.270  1.00  0.00     0.198 C 
HETATM   18  O3  UNL     1      24.171   7.633  51.129  1.00  0.00    -0.388 OA
HETATM   19  C21 UNL     1      22.920   7.439  50.512  1.00  0.00     0.198 C 
HETATM   20  C22 UNL     1      22.622   5.948  50.758  1.00  0.00     0.298 C 
ENDBRANCH  14  15
ENDBRANCH  13  14
ENDBRANCH  12  13
ENDBRANCH  11  12
ENDBRANCH  10  11
BRANCH   1  21
HETATM   21  O1  UNL     1      28.379   1.043  53.050  1.00  0.00    -0.353 OA
HETATM   22  C1  UNL     1      29.236   1.039  54.168  1.00  0.00     0.210 C 
ENDBRANCH   1  21
BRANCH   7  23
HETATM   23  C7  UNL     1      22.020  -0.178  52.868  1.00  0.00    -0.005 A 
HETATM   24  C8  UNL     1      20.788  -0.375  53.493  1.00  0.00     0.017 A 
HETATM   25  C9  UNL     1      19.587  -0.135  52.850  1.00  0.00     0.045 A 
HETATM   26  C10 UNL     1      19.562   0.315  51.548  1.00  0.00     0.138 A 
HETATM   27  F1  UNL     1      18.459   0.588  50.808  1.00  0.00    -0.204 F 
HETATM   28  C11 UNL     1      20.780   0.509  50.934  1.00  0.00     0.073 A 
HETATM   29 CL1  UNL     1      20.868   1.080  49.282  1.00  0.00    -0.081 Cl
HETATM   30  C12 UNL     1      21.978   0.272  51.570  1.00  0.00     0.041 A 
ENDBRANCH   7  23
TORSDOF 7
ENDMDL
MODEL 4
REMARK VINA RESULT:      -8.0      4.041      6.115
REMARK  7 active torsions:
REMARK  status: ('A' for Active; 'I' for Inactive)
REMARK    1  A    between atoms: O1_2  and  C2_3 
REMARK    2  A    between atoms: C6_9  and  C7_10 
REMARK    3  A    between atoms: C15_20  and  O2_21 
REMARK    4  A    between atoms: O2_21  and  C16_22 
REMARK    5  A    between atoms: C16_22  and  C17_23 
REMARK    6  A    between atoms: C17_23  and  C18_24 
REMARK    7  A    between atoms: C18_24  and  N3_25 
ROOT
HETATM    1  C2  UNL     1      22.361   2.630  51.327  1.00  0.00     0.103 A 
HETATM    2  C3  UNL     1      21.690   1.720  52.151  1.00  0.00     0.072 A 
HETATM    3  C4  UNL     1      22.430   0.856  52.907  1.00  0.00     0.073 A 
HETATM    4  N1  UNL     1      21.835  -0.025  53.720  1.00  0.00    -0.241 NA
HETATM    5  C5  UNL     1      22.592  -0.866  54.472  1.00  0.00     0.234 A 
HETATM    6  N2  UNL     1      23.946  -0.844  54.427  1.00  0.00    -0.240 NA
HETATM    7  C6  UNL     1      24.609   0.031  53.617  1.00  0.00     0.081 A 
HETATM    8  C13 UNL     1      23.796   0.856  52.883  1.00  0.00     0.025 A 
HETATM    9  C14 UNL     1      24.415   1.763  52.065  1.00  0.00     0.055 A 
HETATM   10  C15 UNL     1      23.760   2.672  51.266  1.00  0.00     0.103 A 
ENDROOT
BRANCH  10  11
HETATM   11  O2  UNL     1      24.189   3.617  50.415  1.00  0.00    -0.348 OA
BRANCH  11  12
HETATM   12  C16 UNL     1      25.304   4.392  50.287  1.00  0.00     0.177 C 
BRANCH  12  13
HETATM   13  C17 UNL     1      25.239   5.200  49.011  1.00  0.00     0.057 C 
BRANCH  13  14
HETATM   14  C18 UNL     1      26.547   5.971  48.798  1.00  0.00     0.274 C 
BRANCH  14  15
HETATM   15  N3  UNL     1      26.219   7.364  48.765  1.00  0.00     0.092 N 
HETATM   16  C19 UNL     1      26.973   8.089  47.755  1.00  0.00     0.298 C 
HETATM   17  C20 UNL     1      28.365   8.445  48.158  1.00  0.00     0.198 C 
HETATM   18  O3  UNL     1      28.470   8.749  49.507  1.00  0.00    -0.388 OA
HETATM   19  C21 UNL     1      27.227   9.276  49.907  1.00  0.00     0.198 C 
HETATM   20  C22 UNL     1      26.336   8.028  50.056  1.00  0.00     0.298 C 
ENDBRANCH  14  15
ENDBRANCH  13  14
ENDBRANCH  12  13
ENDBRANCH  11  12
ENDBRANCH  10  11
BRANCH   1  21
HETATM   21  O1  UNL     1      21.530   3.472  50.590  1.00  0.00    -0.353 OA
HETATM   22  C1  UNL     1      20.669   4.384  51.232  1.00  0.00     0.210 C 
ENDBRANCH   1  21
BRANCH   7  23
HETATM   23  C7  UNL     1      26.056  -0.017  53.640  1.00  0.00    -0.005 A 
HETATM   24  C8  UNL     1      26.537  -1.184  53.047  1.00  0.00     0.017 A 
HETATM   25  C9  UNL     1      27.889  -1.452  52.933  1.00  0.00     0.045 A 
HETATM   26  C10 UNL     1      28.827  -0.561  53.409  1.00  0.00     0.138 A 
HETATM   27  F1  UNL     1      30.174  -0.702  53.359  1.00  0.00    -0.204 F 
HETATM   28  C11 UNL     1      28.348   0.591  53.994  1.00  0.00     0.073 A 
HETATM   29 CL1  UNL     1      29.449   1.793  54.632  1.00  0.00    -0.081 Cl
HETATM   30  C12 UNL     1      27.003   0.862  54.109  1.00  0.00     0.041 A 
ENDBRANCH   7  23
TORSDOF 7
ENDMDL
MODEL 5
REMARK VINA RESULT:      -7.9      6.238     10.392
REMARK  7 active torsions:
REMARK  status: ('A' for Active; 'I' for Inactive)
REMARK    1  A    between atoms: O1_2  and  C2_3 
REMARK    2  A    between atoms: C6_9  and  C7_10 
REMARK    3  A    between atoms: C15_20  and  O2_21 
REMARK    4  A    between atoms: O2_21  and  C16_22 
REMARK    5  A    between atoms: C16_22  and  C17_23 
REMARK    6  A    between atoms: C17_23  and  C18_24 
REMARK    7  A    between atoms: C18_24  and  N3_25 
ROOT
HETATM    1  C2  UNL     1      26.677   6.110  48.519  1.00  0.00     0.103 A 
HETATM    2  C3  UNL     1      27.092   7.337  47.992  1.00  0.00     0.072 A 
HETATM    3  C4  UNL     1      28.398   7.480  47.620  1.00  0.00     0.073 A 
HETATM    4  N1  UNL     1      28.841   8.631  47.099  1.00  0.00    -0.241 NA
HETATM    5  C5  UNL     1      30.142   8.744  46.726  1.00  0.00     0.234 A 
HETATM    6  N2  UNL     1      31.018   7.721  46.864  1.00  0.00    -0.240 NA
HETATM    7  C6  UNL     1      30.627   6.524  47.389  1.00  0.00     0.081 A 
HETATM    8  C13 UNL     1      29.304   6.465  47.746  1.00  0.00     0.025 A 
HETATM    9  C14 UNL     1      28.859   5.279  48.265  1.00  0.00     0.055 A 
HETATM   10  C15 UNL     1      27.565   5.037  48.669  1.00  0.00     0.103 A 
ENDROOT
BRANCH  10  11
HETATM   11  O2  UNL     1      26.957   3.961  49.191  1.00  0.00    -0.348 OA
BRANCH  11  12
HETATM   12  C16 UNL     1      26.517   3.582  50.425  1.00  0.00     0.177 C 
BRANCH  12  13
HETATM   13  C17 UNL     1      26.507   2.074  50.540  1.00  0.00     0.057 C 
BRANCH  13  14
HETATM   14  C18 UNL     1      26.097   1.649  51.955  1.00  0.00     0.274 C 
BRANCH  14  15
HETATM   15  N3  UNL     1      27.056   0.687  52.404  1.00  0.00     0.092 N 
HETATM   16  C19 UNL     1      26.438  -0.440  53.085  1.00  0.00     0.298 C 
HETATM   17  C20 UNL     1      26.065  -0.176  54.505  1.00  0.00     0.198 C 
HETATM   18  O3  UNL     1      26.963   0.662  55.148  1.00  0.00    -0.388 OA
HETATM   19  C21 UNL     1      28.218   0.460  54.543  1.00  0.00     0.198 C 
HETATM   20  C22 UNL     1      28.118   1.252  53.226  1.00  0.00     0.298 C 
ENDBRANCH  14  15
ENDBRANCH  13  14
ENDBRANCH  12  13
ENDBRANCH  11  12
ENDBRANCH  10  11
BRANCH   1  21
HETATM   21  O1  UNL     1      25.329   6.052  48.872  1.00  0.00    -0.353 OA
HETATM   22  C1  UNL     1      24.817   6.852  49.912  1.00  0.00     0.210 C 
ENDBRANCH   1  21
BRANCH   7  23
HETATM   23  C7  UNL     1      31.634   5.489  47.493  1.00  0.00    -0.005 A 
HETATM   24  C8  UNL     1      32.823   5.986  48.026  1.00  0.00     0.017 A 
HETATM   25  C9  UNL     1      33.929   5.184  48.239  1.00  0.00     0.045 A 
HETATM   26  C10 UNL     1      33.898   3.842  47.928  1.00  0.00     0.138 A 
HETATM   27  F1  UNL     1      34.907   2.951  48.087  1.00  0.00    -0.204 F 
HETATM   28  C11 UNL     1      32.721   3.354  47.401  1.00  0.00     0.073 A 
HETATM   29 CL1  UNL     1      32.568   1.665  46.970  1.00  0.00    -0.081 Cl
HETATM   30  C12 UNL     1      31.617   4.149  47.188  1.00  0.00     0.041 A 
ENDBRANCH   7  23
TORSDOF 7
ENDMDL
MODEL 6
REMARK VINA RESULT:      -7.6      2.712      3.991
REMARK  7 active torsions:
REMARK  status: ('A' for Active; 'I' for Inactive)
REMARK    1  A    between atoms: O1_2  and  C2_3 
REMARK    2  A    between atoms: C6_9  and  C7_10 
REMARK    3  A    between atoms: C15_20  and  O2_21 
REMARK    4  A    between atoms: O2_21  and  C16_22 
REMARK    5  A    between atoms: C16_22  and  C17_23 
REMARK    6  A    between atoms: C17_23  and  C18_24 
REMARK    7  A    between atoms: C18_24  and  N3_25 
ROOT
HETATM    1  C2  UNL     1      25.775   3.518  50.591  1.00  0.00     0.103 A 
HETATM    2  C3  UNL     1      26.624   2.584  51.193  1.00  0.00     0.072 A 
HETATM    3  C4  UNL     1      26.066   1.532  51.862  1.00  0.00     0.073 A 
HETATM    4  N1  UNL     1      26.836   0.604  52.445  1.00  0.00    -0.241 NA
HETATM    5  C5  UNL     1      26.259  -0.439  53.094  1.00  0.00     0.234 A 
HETATM    6  N2  UNL     1      24.913  -0.577  53.174  1.00  0.00    -0.240 NA
HETATM    7  C6  UNL     1      24.077   0.336  52.601  1.00  0.00     0.081 A 
HETATM    8  C13 UNL     1      24.714   1.367  51.958  1.00  0.00     0.025 A 
HETATM    9  C14 UNL     1      23.917   2.302  51.354  1.00  0.00     0.055 A 
HETATM   10  C15 UNL     1      24.381   3.396  50.659  1.00  0.00     0.103 A 
ENDROOT
BRANCH  10  11
HETATM   11  O2  UNL     1      23.765   4.398  50.015  1.00  0.00    -0.348 OA
BRANCH  11  12
HETATM   12  C16 UNL     1      23.066   5.514  50.371  1.00  0.00     0.177 C 
BRANCH  12  13
HETATM   13  C17 UNL     1      23.865   6.345  51.350  1.00  0.00     0.057 C 
BRANCH  13  14
HETATM   14  C18 UNL     1      23.989   7.788  50.849  1.00  0.00     0.274 C 
BRANCH  14  15
HETATM   15  N3  UNL     1      24.783   7.759  49.659  1.00  0.00     0.092 N 
HETATM   16  C19 UNL     1      26.209   7.802  49.940  1.00  0.00     0.298 C 
HETATM   17  C20 UNL     1      26.741   9.163  50.239  1.00  0.00     0.198 C 
HETATM   18  O3  UNL     1      26.111  10.157  49.505  1.00  0.00    -0.388 OA
HETATM   19  C21 UNL     1      25.695   9.571  48.294  1.00  0.00     0.198 C 
HETATM   20  C22 UNL     1      24.429   8.786  48.688  1.00  0.00     0.298 C 
ENDBRANCH  14  15
ENDBRANCH  13  14
ENDBRANCH  12  13
ENDBRANCH  11  12
ENDBRANCH  10  11
BRANCH   1  21
HETATM   21  O1  UNL     1      26.428   4.559  49.930  1.00  0.00    -0.353 OA
HETATM   22  C1  UNL     1      27.300   4.300  48.855  1.00  0.00     0.210 C 
ENDBRANCH   1  21
BRANCH   7  23
HETATM   23  C7  UNL     1      22.654   0.103  52.736  1.00  0.00    -0.005 A 
HETATM   24  C8  UNL     1      22.339  -0.409  53.995  1.00  0.00     0.017 A 
HETATM   25  C9  UNL     1      21.039  -0.698  54.370  1.00  0.00     0.045 A 
HETATM   26  C10 UNL     1      19.991  -0.489  53.501  1.00  0.00     0.138 A 
HETATM   27  F1  UNL     1      18.679  -0.728  53.743  1.00  0.00    -0.204 F 
HETATM   28  C11 UNL     1      20.306   0.018  52.258  1.00  0.00     0.073 A 
HETATM   29 CL1  UNL     1      19.054   0.325  51.075  1.00  0.00    -0.081 Cl
HETATM   30  C12 UNL     1      21.598   0.308  51.881  1.00  0.00     0.041 A 
ENDBRANCH   7  23
TORSDOF 7
ENDMDL
MODEL 7
REMARK VINA RESULT:      -7.6      5.502     10.006
REMARK  7 active torsions:
REMARK  status: ('A' for Active; 'I' for Inactive)
REMARK    1  A    between atoms: O1_2  and  C2_3 
REMARK    2  A    between atoms: C6_9  and  C7_10 
REMARK    3  A    between atoms: C15_20  and  O2_21 
REMARK    4  A    between atoms: O2_21  and  C16_22 
REMARK    5  A    between atoms: C16_22  and  C17_23 
REMARK    6  A    between atoms: C17_23  and  C18_24 
REMARK    7  A    between atoms: C18_24  and  N3_25 
ROOT
HETATM    1  C2  UNL     1      25.172   5.239  48.988  1.00  0.00     0.103 A 
HETATM    2  C3  UNL     1      25.118   6.496  48.376  1.00  0.00     0.072 A 
HETATM    3  C4  UNL     1      26.290   7.094  48.010  1.00  0.00     0.073 A 
HETATM    4  N1  UNL     1      26.290   8.291  47.410  1.00  0.00    -0.241 NA
HETATM    5  C5  UNL     1      27.468   8.860  47.045  1.00  0.00     0.234 A 
HETATM    6  N2  UNL     1      28.658   8.252  47.269  1.00  0.00    -0.240 NA
HETATM    7  C6  UNL     1      28.721   7.032  47.877  1.00  0.00     0.081 A 
HETATM    8  C13 UNL     1      27.504   6.504  48.223  1.00  0.00     0.025 A 
HETATM    9  C14 UNL     1      27.514   5.274  48.824  1.00  0.00     0.055 A 
HETATM   10  C15 UNL     1      26.389   4.590  49.229  1.00  0.00     0.103 A 
ENDROOT
BRANCH  10  11
HETATM   11  O2  UNL     1      26.207   3.401  49.823  1.00  0.00    -0.348 OA
BRANCH  11  12
HETATM   12  C16 UNL     1      25.916   2.965  51.082  1.00  0.00     0.177 C 
BRANCH  12  13
HETATM   13  C17 UNL     1      26.789   1.785  51.445  1.00  0.00     0.057 C 
BRANCH  13  14
HETATM   14  C18 UNL     1      27.167   1.837  52.930  1.00  0.00     0.274 C 
BRANCH  14  15
HETATM   15  N3  UNL     1      26.887   0.548  53.485  1.00  0.00     0.092 N 
HETATM   16  C19 UNL     1      27.723   0.245  54.636  1.00  0.00     0.298 C 
HETATM   17  C20 UNL     1      29.099  -0.221  54.296  1.00  0.00     0.198 C 
HETATM   18  O3  UNL     1      29.134  -0.992  53.143  1.00  0.00    -0.388 OA
HETATM   19  C21 UNL     1      27.887  -1.638  53.045  1.00  0.00     0.198 C 
HETATM   20  C22 UNL     1      26.948  -0.537  52.515  1.00  0.00     0.298 C 
ENDBRANCH  14  15
ENDBRANCH  13  14
ENDBRANCH  12  13
ENDBRANCH  11  12
ENDBRANCH  10  11
BRANCH   1  21
HETATM   21  O1  UNL     1      23.930   4.703  49.329  1.00  0.00    -0.353 OA
HETATM   22  C1  UNL     1      23.049   5.397  50.181  1.00  0.00     0.210 C 
ENDBRANCH   1  21
BRANCH   7  23
HETATM   23  C7  UNL     1      30.037   6.460  48.071  1.00  0.00    -0.005 A 
HETATM   24  C8  UNL     1      30.843   7.287  48.854  1.00  0.00     0.017 A 
HETATM   25  C9  UNL     1      32.140   6.948  49.193  1.00  0.00     0.045 A 
HETATM   26  C10 UNL     1      32.694   5.762  48.762  1.00  0.00     0.138 A 
HETATM   27  F1  UNL     1      33.947   5.313  49.023  1.00  0.00    -0.204 F 
HETATM   28  C11 UNL     1      31.896   4.947  47.989  1.00  0.00     0.073 A 
HETATM   29 CL1  UNL     1      32.496   3.417  47.388  1.00  0.00    -0.081 Cl
HETATM   30  C12 UNL     1      30.604   5.281  47.650  1.00  0.00     0.041 A 
ENDBRANCH   7  23
TORSDOF 7
ENDMDL
MODEL 8
REMARK VINA RESULT:      -7.5      2.260      3.612
REMARK  7 active torsions:
REMARK  status: ('A' for Active; 'I' for Inactive)
REMARK    1  A    between atoms: O1_2  and  C2_3 
REMARK    2  A    between atoms: C6_9  and  C7_10 
REMARK    3  A    between atoms: C15_20  and  O2_21 
REMARK    4  A    between atoms: O2_21  and  C16_22 
REMARK    5  A    between atoms: C16_22  and  C17_23 
REMARK    6  A    between atoms: C17_23  and  C18_24 
REMARK    7  A    between atoms: C18_24  and  N3_25 
ROOT
HETATM    1  C2  UNL     1      25.613   3.543  50.336  1.00  0.00     0.103 A 
HETATM    2  C3  UNL     1      26.606   2.910  51.091  1.00  0.00     0.072 A 
HETATM    3  C4  UNL     1      26.241   1.898  51.931  1.00  0.00     0.073 A 
HETATM    4  N1  UNL     1      27.156   1.253  52.666  1.00  0.00    -0.241 NA
HETATM    5  C5  UNL     1      26.770   0.242  53.486  1.00  0.00     0.234 A 
HETATM    6  N2  UNL     1      25.475  -0.142  53.589  1.00  0.00    -0.240 NA
HETATM    7  C6  UNL     1      24.497   0.477  52.866  1.00  0.00     0.081 A 
HETATM    8  C13 UNL     1      24.943   1.488  52.054  1.00  0.00     0.025 A 
HETATM    9  C14 UNL     1      24.002   2.132  51.298  1.00  0.00     0.055 A 
HETATM   10  C15 UNL     1      24.268   3.162  50.423  1.00  0.00     0.103 A 
ENDROOT
BRANCH  10  11
HETATM   11  O2  UNL     1      23.491   3.899  49.616  1.00  0.00    -0.348 OA
BRANCH  11  12
HETATM   12  C16 UNL     1      22.955   3.758  48.370  1.00  0.00     0.177 C 
BRANCH  12  13
HETATM   13  C17 UNL     1      22.320   5.055  47.920  1.00  0.00     0.057 C 
BRANCH  13  14
HETATM   14  C18 UNL     1      23.367   6.174  47.872  1.00  0.00     0.274 C 
BRANCH  14  15
HETATM   15  N3  UNL     1      22.811   7.307  48.546  1.00  0.00     0.092 N 
HETATM   16  C19 UNL     1      23.704   7.846  49.559  1.00  0.00     0.298 C 
HETATM   17  C20 UNL     1      23.697   7.098  50.850  1.00  0.00     0.198 C 
HETATM   18  O3  UNL     1      22.445   6.595  51.172  1.00  0.00    -0.388 OA
HETATM   19  C21 UNL     1      21.496   7.463  50.601  1.00  0.00     0.198 C 
HETATM   20  C22 UNL     1      21.490   7.066  49.112  1.00  0.00     0.298 C 
ENDBRANCH  14  15
ENDBRANCH  13  14
ENDBRANCH  12  13
ENDBRANCH  11  12
ENDBRANCH  10  11
BRANCH   1  21
HETATM   21  O1  UNL     1      26.074   4.564  49.505  1.00  0.00    -0.353 OA
HETATM   22  C1  UNL     1      27.289   4.436  48.804  1.00  0.00     0.210 C 
ENDBRANCH   1  21
BRANCH   7  23
HETATM   23  C7  UNL     1      23.143  -0.006  53.039  1.00  0.00    -0.005 A 
HETATM   24  C8  UNL     1      23.041  -0.852  54.144  1.00  0.00     0.017 A 
HETATM   25  C9  UNL     1      21.843  -1.427  54.525  1.00  0.00     0.045 A 
HETATM   26  C10 UNL     1      20.686  -1.182  53.818  1.00  0.00     0.138 A 
HETATM   27  F1  UNL     1      19.454  -1.680  54.085  1.00  0.00    -0.204 F 
HETATM   28  C11 UNL     1      20.790  -0.345  52.728  1.00  0.00     0.073 A 
HETATM   29 CL1  UNL     1      19.385   0.037  51.757  1.00  0.00    -0.081 Cl
HETATM   30  C12 UNL     1      21.982   0.230  52.345  1.00  0.00     0.041 A 
ENDBRANCH   7  23
TORSDOF 7
ENDMDL
MODEL 9
REMARK VINA RESULT:      -7.4      2.467      3.788
REMARK  7 active torsions:
REMARK  status: ('A' for Active; 'I' for Inactive)
REMARK    1  A    between atoms: O1_2  and  C2_3 
REMARK    2  A    between atoms: C6_9  and  C7_10 
REMARK    3  A    between atoms: C15_20  and  O2_21 
REMARK    4  A    between atoms: O2_21  and  C16_22 
REMARK    5  A    between atoms: C16_22  and  C17_23 
REMARK    6  A    between atoms: C17_23  and  C18_24 
REMARK    7  A    between atoms: C18_24  and  N3_25 
ROOT
HETATM    1  C2  UNL     1      25.595   3.664  50.668  1.00  0.00     0.103 A 
HETATM    2  C3  UNL     1      26.492   2.732  51.199  1.00  0.00     0.072 A 
HETATM    3  C4  UNL     1      25.990   1.633  51.836  1.00  0.00     0.073 A 
HETATM    4  N1  UNL     1      26.808   0.706  52.350  1.00  0.00    -0.241 NA
HETATM    5  C5  UNL     1      26.285  -0.385  52.968  1.00  0.00     0.234 A 
HETATM    6  N2  UNL     1      24.948  -0.570  53.085  1.00  0.00    -0.240 NA
HETATM    7  C6  UNL     1      24.065   0.341  52.582  1.00  0.00     0.081 A 
HETATM    8  C13 UNL     1      24.647   1.419  51.967  1.00  0.00     0.025 A 
HETATM    9  C14 UNL     1      23.802   2.355  51.433  1.00  0.00     0.055 A 
HETATM   10  C15 UNL     1      24.209   3.494  50.775  1.00  0.00     0.103 A 
ENDROOT
BRANCH  10  11
HETATM   11  O2  UNL     1      23.540   4.504  50.198  1.00  0.00    -0.348 OA
BRANCH  11  12
HETATM   12  C16 UNL     1      22.475   5.290  50.523  1.00  0.00     0.177 C 
BRANCH  12  13
HETATM   13  C17 UNL     1      21.651   5.595  49.292  1.00  0.00     0.057 C 
BRANCH  13  14
HETATM   14  C18 UNL     1      20.371   4.751  49.284  1.00  0.00     0.274 C 
BRANCH  14  15
HETATM   15  N3  UNL     1      20.320   4.069  48.027  1.00  0.00     0.092 N 
HETATM   16  C19 UNL     1      19.983   2.661  48.170  1.00  0.00     0.298 C 
HETATM   17  C20 UNL     1      21.125   1.790  48.575  1.00  0.00     0.198 C 
HETATM   18  O3  UNL     1      22.332   2.201  48.029  1.00  0.00    -0.388 OA
HETATM   19  C21 UNL     1      22.036   2.828  46.804  1.00  0.00     0.198 C 
HETATM   20  C22 UNL     1      21.526   4.221  47.224  1.00  0.00     0.298 C 
ENDBRANCH  14  15
ENDBRANCH  13  14
ENDBRANCH  12  13
ENDBRANCH  11  12
ENDBRANCH  10  11
BRANCH   1  21
HETATM   21  O1  UNL     1      26.193   4.755  50.037  1.00  0.00    -0.353 OA
HETATM   22  C1  UNL     1      27.096   4.570  48.972  1.00  0.00     0.210 C 
ENDBRANCH   1  21
BRANCH   7  23
HETATM   23  C7  UNL     1      22.656   0.055  52.751  1.00  0.00    -0.005 A 
HETATM   24  C8  UNL     1      22.409  -0.596  53.960  1.00  0.00     0.017 A 
HETATM   25  C9  UNL     1      21.135  -0.959  54.357  1.00  0.00     0.045 A 
HETATM   26  C10 UNL     1      20.044  -0.688  53.560  1.00  0.00     0.138 A 
HETATM   27  F1  UNL     1      18.750  -0.988  53.831  1.00  0.00    -0.204 F 
HETATM   28  C11 UNL     1      20.291  -0.044  52.366  1.00  0.00     0.073 A 
HETATM   29 CL1  UNL     1      18.980   0.351  51.277  1.00  0.00    -0.081 Cl
HETATM   30  C12 UNL     1      21.558   0.319  51.968  1.00  0.00     0.041 A 
ENDBRANCH   7  23
TORSDOF 7
ENDMDL
