MODEL 1
REMARK VINA RESULT:      -7.6      0.000      0.000
REMARK  10 active torsions:
REMARK  status: ('A' for Active; 'I' for Inactive)
REMARK    1  A    between atoms: C2_2  and  C3_3 
REMARK    2  A    between atoms: C2_2  and  C7_9 
REMARK    3  A    between atoms: C3_3  and  C4_4 
REMARK    4  A    between atoms: C4_4  and  C5_5 
REMARK    5  A    between atoms: C5_5  and  C6_7 
REMARK    6  A    between atoms: C7_9  and  N1_10 
REMARK    7  A    between atoms: N1_10  and  C8_11 
REMARK    8  A    between atoms: C12_17  and  O1_18 
REMARK    9  A    between atoms: C15_21  and  O2_22 
REMARK   10  A    between atoms: O2_22  and  C16_23 
ROOT
HETATM    1  C8  UNL     1      23.391   2.118  52.109  1.00  0.00     0.140 A 
HETATM    2  N2  UNL     1      22.166   2.542  51.767  1.00  0.00    -0.224 NA
HETATM    3  C9  UNL     1      21.933   3.383  50.775  1.00  0.00     0.236 A 
HETATM    4  N3  UNL     1      22.942   3.872  50.035  1.00  0.00    -0.241 NA
HETATM    5  C10 UNL     1      24.213   3.513  50.294  1.00  0.00     0.077 A 
HETATM    6  C11 UNL     1      25.197   4.038  49.513  1.00  0.00     0.069 A 
HETATM    7  C12 UNL     1      26.504   3.672  49.771  1.00  0.00     0.073 A 
HETATM    8  C14 UNL     1      26.734   2.795  50.807  1.00  0.00     0.074 A 
HETATM    9  C15 UNL     1      25.713   2.283  51.577  1.00  0.00     0.088 A 
HETATM   10  C20 UNL     1      24.405   2.636  51.334  1.00  0.00     0.072 A 
ENDROOT
BRANCH   1  11
HETATM   11  N1  UNL     1      23.581   1.222  53.195  1.00  0.00    -0.370 N 
HETATM   12  H8  UNL     1      24.006   1.217  54.131  1.00  0.00     0.161 HD
BRANCH  11  13
HETATM   13  C7  UNL     1      23.039  -0.109  53.007  1.00  0.00     0.156 C 
BRANCH  13  14
HETATM   14  C2  UNL     1      22.291  -0.470  54.234  1.00  0.00    -0.054 C 
HETATM   15  C1  UNL     1      22.664  -1.333  55.166  1.00  0.00     0.041 C 
BRANCH  14  16
HETATM   16  C3  UNL     1      21.026   0.071  54.595  1.00  0.00     0.061 C 
BRANCH  16  17
HETATM   17  C4  UNL     1      19.965  -0.088  53.808  1.00  0.00    -0.106 C 
BRANCH  17  18
HETATM   18  C5  UNL     1      19.143  -0.470  52.834  1.00  0.00     0.085 C 
HETATM   19 CL1  UNL     1      19.636   0.183  51.327  1.00  0.00    -0.077 Cl
BRANCH  18  20
HETATM   20  C6  UNL     1      18.026  -1.324  53.207  1.00  0.00     0.282 C 
HETATM   21  F1  UNL     1      18.534  -2.413  53.922  1.00  0.00    -0.249 F 
ENDBRANCH  18  20
ENDBRANCH  17  18
ENDBRANCH  16  17
ENDBRANCH  14  16
ENDBRANCH  13  14
ENDBRANCH  11  13
ENDBRANCH   1  11
BRANCH   9  22
HETATM   22  O2  UNL     1      26.061   1.430  52.566  1.00  0.00    -0.343 OA
BRANCH  22  23
HETATM   23  C16 UNL     1      27.172   0.713  52.863  1.00  0.00     0.154 C 
HETATM   24  C17 UNL     1      27.141  -0.751  52.487  1.00  0.00     0.061 C 
HETATM   25  C18 UNL     1      28.329  -1.235  53.296  1.00  0.00     0.170 C 
HETATM   26  O3  UNL     1      28.234  -0.565  54.492  1.00  0.00    -0.389 OA
HETATM   27  C19 UNL     1      27.511   0.591  54.331  1.00  0.00     0.200 C 
ENDBRANCH  22  23
ENDBRANCH   9  22
BRANCH   7  28
HETATM   28  O1  UNL     1      27.492   4.219  48.963  1.00  0.00    -0.356 OA
HETATM   29  C13 UNL     1      27.407   5.553  48.564  1.00  0.00     0.210 C 
ENDBRANCH   7  28
TORSDOF 10
ENDMDL
MODEL 2
REMARK VINA RESULT:      -7.5      2.420      4.835
REMARK  10 active torsions:
REMARK  status: ('A' for Active; 'I' for Inactive)
REMARK    1  A    between atoms: C2_2  and  C3_3 
REMARK    2  A    between atoms: C2_2  and  C7_9 
REMARK    3  A    between atoms: C3_3  and  C4_4 
REMARK    4  A    between atoms: C4_4  and  C5_5 
REMARK    5  A    between atoms: C5_5  and  C6_7 
REMARK    6  A    between atoms: C7_9  and  N1_10 
REMARK    7  A    between atoms: N1_10  and  C8_11 
REMARK    8  A    between atoms: C12_17  and  O1_18 
REMARK    9  A    between atoms: C15_21  and  O2_22 
REMARK   10  A    between atoms: O2_22  and  C16_23 
ROOT
HETATM    1  C8  UNL     1      24.448   2.393  51.433  1.00  0.00     0.140 A 
HETATM    2  N2  UNL     1      25.012   3.290  50.612  1.00  0.00    -0.224 NA
HETATM    3  C9  UNL     1      26.318   3.429  50.466  1.00  0.00     0.236 A 
HETATM    4  N3  UNL     1      27.175   2.655  51.154  1.00  0.00    -0.241 NA
HETATM    5  C10 UNL     1      26.714   1.722  52.008  1.00  0.00     0.077 A 
HETATM    6  C11 UNL     1      27.626   0.965  52.679  1.00  0.00     0.069 A 
HETATM    7  C12 UNL     1      27.161   0.003  53.555  1.00  0.00     0.073 A 
HETATM    8  C14 UNL     1      25.799  -0.132  53.698  1.00  0.00     0.074 A 
HETATM    9  C15 UNL     1      24.905   0.651  53.002  1.00  0.00     0.088 A 
HETATM   10  C20 UNL     1      25.350   1.615  52.125  1.00  0.00     0.072 A 
ENDROOT
BRANCH   1  11
HETATM   11  N1  UNL     1      23.036   2.298  51.557  1.00  0.00    -0.370 N 
HETATM   12  H8  UNL     1      22.338   1.883  52.188  1.00  0.00     0.161 HD
BRANCH  11  13
HETATM   13  C7  UNL     1      22.273   2.962  50.518  1.00  0.00     0.156 C 
BRANCH  13  14
HETATM   14  C2  UNL     1      21.967   1.958  49.472  1.00  0.00    -0.054 C 
HETATM   15  C1  UNL     1      22.333   2.000  48.200  1.00  0.00     0.041 C 
BRANCH  14  16
HETATM   16  C3  UNL     1      21.210   0.773  49.689  1.00  0.00     0.061 C 
BRANCH  16  17
HETATM   17  C4  UNL     1      20.012   0.823  50.265  1.00  0.00    -0.106 C 
BRANCH  17  18
HETATM   18  C5  UNL     1      19.002   1.083  51.092  1.00  0.00     0.085 C 
HETATM   19 CL1  UNL     1      18.012  -0.301  51.302  1.00  0.00    -0.077 Cl
BRANCH  18  20
HETATM   20  C6  UNL     1      18.921   2.430  51.635  1.00  0.00     0.282 C 
HETATM   21  F1  UNL     1      19.799   2.513  52.720  1.00  0.00    -0.249 F 
ENDBRANCH  18  20
ENDBRANCH  17  18
ENDBRANCH  16  17
ENDBRANCH  14  16
ENDBRANCH  13  14
ENDBRANCH  11  13
ENDBRANCH   1  11
BRANCH   9  22
HETATM   22  O2  UNL     1      23.590   0.426  53.225  1.00  0.00    -0.343 OA
BRANCH  22  23
HETATM   23  C16 UNL     1      22.848  -0.661  53.547  1.00  0.00     0.154 C 
HETATM   24  C17 UNL     1      21.350  -0.511  53.405  1.00  0.00     0.061 C 
HETATM   25  C18 UNL     1      20.908  -1.731  54.191  1.00  0.00     0.170 C 
HETATM   26  O3  UNL     1      21.755  -1.775  55.273  1.00  0.00    -0.389 OA
HETATM   27  C19 UNL     1      22.922  -1.111  54.988  1.00  0.00     0.200 C 
ENDBRANCH  22  23
ENDBRANCH   9  22
BRANCH   7  28
HETATM   28  O1  UNL     1      28.107  -0.756  54.229  1.00  0.00    -0.356 OA
HETATM   29  C13 UNL     1      29.455  -0.658  53.886  1.00  0.00     0.210 C 
ENDBRANCH   7  28
TORSDOF 10
ENDMDL
MODEL 3
REMARK VINA RESULT:      -7.4      3.608      7.385
REMARK  10 active torsions:
REMARK  status: ('A' for Active; 'I' for Inactive)
REMARK    1  A    between atoms: C2_2  and  C3_3 
REMARK    2  A    between atoms: C2_2  and  C7_9 
REMARK    3  A    between atoms: C3_3  and  C4_4 
REMARK    4  A    between atoms: C4_4  and  C5_5 
REMARK    5  A    between atoms: C5_5  and  C6_7 
REMARK    6  A    between atoms: C7_9  and  N1_10 
REMARK    7  A    between atoms: N1_10  and  C8_11 
REMARK    8  A    between atoms: C12_17  and  O1_18 
REMARK    9  A    between atoms: C15_21  and  O2_22 
REMARK   10  A    between atoms: O2_22  and  C16_23 
ROOT
HETATM    1  C8  UNL     1      23.397  -0.103  53.262  1.00  0.00     0.140 A 
HETATM    2  N2  UNL     1      23.819  -0.685  54.394  1.00  0.00    -0.224 NA
HETATM    3  C9  UNL     1      23.019  -1.315  55.236  1.00  0.00     0.236 A 
HETATM    4  N3  UNL     1      21.700  -1.409  54.994  1.00  0.00    -0.241 NA
HETATM    5  C10 UNL     1      21.170  -0.860  53.886  1.00  0.00     0.077 A 
HETATM    6  C11 UNL     1      19.829  -0.985  53.689  1.00  0.00     0.069 A 
HETATM    7  C12 UNL     1      19.278  -0.426  52.552  1.00  0.00     0.073 A 
HETATM    8  C14 UNL     1      20.121   0.229  51.683  1.00  0.00     0.074 A 
HETATM    9  C15 UNL     1      21.475   0.336  51.914  1.00  0.00     0.088 A 
HETATM   10  C20 UNL     1      22.042  -0.216  53.041  1.00  0.00     0.072 A 
ENDROOT
BRANCH   1  11
HETATM   11  N1  UNL     1      24.304   0.573  52.402  1.00  0.00    -0.370 N 
HETATM   12  H8  UNL     1      24.722   0.457  51.470  1.00  0.00     0.161 HD
BRANCH  11  13
HETATM   13  C7  UNL     1      24.852   1.810  52.923  1.00  0.00     0.156 C 
BRANCH  13  14
HETATM   14  C2  UNL     1      26.221   1.962  52.376  1.00  0.00    -0.054 C 
HETATM   15  C1  UNL     1      26.548   2.267  51.130  1.00  0.00     0.041 C 
BRANCH  14  16
HETATM   16  C3  UNL     1      27.414   1.794  53.132  1.00  0.00     0.061 C 
BRANCH  16  17
HETATM   17  C4  UNL     1      27.989   0.599  53.245  1.00  0.00    -0.106 C 
BRANCH  17  18
HETATM   18  C5  UNL     1      28.219  -0.711  53.260  1.00  0.00     0.085 C 
HETATM   19 CL1  UNL     1      29.840  -1.042  53.709  1.00  0.00    -0.077 Cl
BRANCH  18  20
HETATM   20  C6  UNL     1      27.110  -1.582  52.903  1.00  0.00     0.282 C 
HETATM   21  F1  UNL     1      26.714  -1.265  51.600  1.00  0.00    -0.249 F 
ENDBRANCH  18  20
ENDBRANCH  17  18
ENDBRANCH  16  17
ENDBRANCH  14  16
ENDBRANCH  13  14
ENDBRANCH  11  13
ENDBRANCH   1  11
BRANCH   9  22
HETATM   22  O2  UNL     1      22.204   1.001  50.989  1.00  0.00    -0.343 OA
BRANCH  22  23
HETATM   23  C16 UNL     1      21.914   1.862  49.983  1.00  0.00     0.154 C 
HETATM   24  C17 UNL     1      21.782   1.254  48.604  1.00  0.00     0.061 C 
HETATM   25  C18 UNL     1      21.847   2.522  47.773  1.00  0.00     0.170 C 
HETATM   26  O3  UNL     1      22.813   3.289  48.380  1.00  0.00    -0.389 OA
HETATM   27  C19 UNL     1      22.952   2.921  49.696  1.00  0.00     0.200 C 
ENDBRANCH  22  23
ENDBRANCH   9  22
BRANCH   7  28
HETATM   28  O1  UNL     1      17.909  -0.565  52.372  1.00  0.00    -0.356 OA
HETATM   29  C13 UNL     1      17.292  -0.007  51.252  1.00  0.00     0.210 C 
ENDBRANCH   7  28
TORSDOF 10
ENDMDL
MODEL 4
REMARK VINA RESULT:      -7.4      4.117      7.984
REMARK  10 active torsions:
REMARK  status: ('A' for Active; 'I' for Inactive)
REMARK    1  A    between atoms: C2_2  and  C3_3 
REMARK    2  A    between atoms: C2_2  and  C7_9 
REMARK    3  A    between atoms: C3_3  and  C4_4 
REMARK    4  A    between atoms: C4_4  and  C5_5 
REMARK    5  A    between atoms: C5_5  and  C6_7 
REMARK    6  A    between atoms: C7_9  and  N1_10 
REMARK    7  A    between atoms: N1_10  and  C8_11 
REMARK    8  A    between atoms: C12_17  and  O1_18 
REMARK    9  A    between atoms: C15_21  and  O2_22 
REMARK   10  A    between atoms: O2_22  and  C16_23 
ROOT
HETATM    1  C8  UNL     1      26.700   2.118  52.294  1.00  0.00     0.140 A 
HETATM    2  N2  UNL     1      27.970   1.831  52.615  1.00  0.00    -0.224 NA
HETATM    3  C9  UNL     1      28.316   0.840  53.418  1.00  0.00     0.236 A 
HETATM    4  N3  UNL     1      27.384   0.044  53.971  1.00  0.00    -0.241 NA
HETATM    5  C10 UNL     1      26.078   0.244  53.716  1.00  0.00     0.077 A 
HETATM    6  C11 UNL     1      25.177  -0.591  54.302  1.00  0.00     0.069 A 
HETATM    7  C12 UNL     1      23.834  -0.394  54.043  1.00  0.00     0.073 A 
HETATM    8  C14 UNL     1      23.487   0.642  53.205  1.00  0.00     0.074 A 
HETATM    9  C15 UNL     1      24.426   1.469  52.629  1.00  0.00     0.088 A 
HETATM   10  C20 UNL     1      25.768   1.286  52.875  1.00  0.00     0.072 A 
ENDROOT
BRANCH   1  11
HETATM   11  N1  UNL     1      26.388   3.206  51.435  1.00  0.00    -0.370 N 
HETATM   12  H8  UNL     1      26.000   4.156  51.496  1.00  0.00     0.161 HD
BRANCH  11  13
HETATM   13  C7  UNL     1      26.675   2.992  50.030  1.00  0.00     0.156 C 
BRANCH  13  14
HETATM   14  C2  UNL     1      26.662   4.315  49.361  1.00  0.00    -0.054 C 
HETATM   15  C1  UNL     1      27.632   4.845  48.633  1.00  0.00     0.041 C 
BRANCH  14  16
HETATM   16  C3  UNL     1      25.575   5.232  49.409  1.00  0.00     0.061 C 
BRANCH  16  17
HETATM   17  C4  UNL     1      25.790   6.541  49.506  1.00  0.00    -0.106 C 
BRANCH  17  18
HETATM   18  C5  UNL     1      25.769   7.813  49.895  1.00  0.00     0.085 C 
HETATM   19 CL1  UNL     1      24.252   8.217  50.585  1.00  0.00    -0.077 Cl
BRANCH  18  20
HETATM   20  C6  UNL     1      26.975   8.594  49.668  1.00  0.00     0.282 C 
HETATM   21  F1  UNL     1      27.366   9.149  50.890  1.00  0.00    -0.249 F 
ENDBRANCH  18  20
ENDBRANCH  17  18
ENDBRANCH  16  17
ENDBRANCH  14  16
ENDBRANCH  13  14
ENDBRANCH  11  13
ENDBRANCH   1  11
BRANCH   9  22
HETATM   22  O2  UNL     1      23.965   2.452  51.823  1.00  0.00    -0.343 OA
BRANCH  22  23
HETATM   23  C16 UNL     1      22.903   3.293  51.853  1.00  0.00     0.154 C 
HETATM   24  C17 UNL     1      22.290   3.640  50.515  1.00  0.00     0.061 C 
HETATM   25  C18 UNL     1      21.448   4.830  50.935  1.00  0.00     0.170 C 
HETATM   26  O3  UNL     1      22.238   5.522  51.821  1.00  0.00    -0.389 OA
HETATM   27  C19 UNL     1      23.172   4.683  52.379  1.00  0.00     0.200 C 
ENDBRANCH  22  23
ENDBRANCH   9  22
BRANCH   7  28
HETATM   28  O1  UNL     1      22.933  -1.257  54.650  1.00  0.00    -0.356 OA
HETATM   29  C13 UNL     1      21.570  -0.961  54.643  1.00  0.00     0.210 C 
ENDBRANCH   7  28
TORSDOF 10
ENDMDL
MODEL 5
REMARK VINA RESULT:      -7.4      4.160      8.090
REMARK  10 active torsions:
REMARK  status: ('A' for Active; 'I' for Inactive)
REMARK    1  A    between atoms: C2_2  and  C3_3 
REMARK    2  A    between atoms: C2_2  and  C7_9 
REMARK    3  A    between atoms: C3_3  and  C4_4 
REMARK    4  A    between atoms: C4_4  and  C5_5 
REMARK    5  A    between atoms: C5_5  and  C6_7 
REMARK    6  A    between atoms: C7_9  and  N1_10 
REMARK    7  A    between atoms: N1_10  and  C8_11 
REMARK    8  A    between atoms: C12_17  and  O1_18 
REMARK    9  A    between atoms: C15_21  and  O2_22 
REMARK   10  A    between atoms: O2_22  and  C16_23 
ROOT
HETATM    1  C8  UNL     1      26.269   1.725  52.986  1.00  0.00     0.140 A 
HETATM    2  N2  UNL     1      27.492   1.492  53.483  1.00  0.00    -0.224 NA
HETATM    3  C9  UNL     1      27.756   0.541  54.361  1.00  0.00     0.236 A 
HETATM    4  N3  UNL     1      26.783  -0.268  54.815  1.00  0.00    -0.241 NA
HETATM    5  C10 UNL     1      25.518  -0.121  54.381  1.00  0.00     0.077 A 
HETATM    6  C11 UNL     1      24.571  -0.967  54.872  1.00  0.00     0.069 A 
HETATM    7  C12 UNL     1      23.270  -0.824  54.430  1.00  0.00     0.073 A 
HETATM    8  C14 UNL     1      23.008   0.171  53.515  1.00  0.00     0.074 A 
HETATM    9  C15 UNL     1      23.991   1.010  53.039  1.00  0.00     0.088 A 
HETATM   10  C20 UNL     1      25.293   0.882  53.468  1.00  0.00     0.072 A 
ENDROOT
BRANCH   1  11
HETATM   11  N1  UNL     1      26.044   2.773  52.053  1.00  0.00    -0.370 N 
HETATM   12  H8  UNL     1      25.576   3.687  52.011  1.00  0.00     0.161 HD
BRANCH  11  13
HETATM   13  C7  UNL     1      26.614   2.568  50.736  1.00  0.00     0.156 C 
BRANCH  13  14
HETATM   14  C2  UNL     1      26.323   3.774  49.925  1.00  0.00    -0.054 C 
HETATM   15  C1  UNL     1      25.203   4.481  49.928  1.00  0.00     0.041 C 
BRANCH  14  16
HETATM   16  C3  UNL     1      27.228   4.359  48.997  1.00  0.00     0.061 C 
BRANCH  16  17
HETATM   17  C4  UNL     1      27.110   5.634  48.637  1.00  0.00    -0.106 C 
BRANCH  17  18
HETATM   18  C5  UNL     1      27.350   6.919  48.393  1.00  0.00     0.085 C 
HETATM   19 CL1  UNL     1      28.708   7.102  47.362  1.00  0.00    -0.077 Cl
BRANCH  18  20
HETATM   20  C6  UNL     1      26.466   7.889  49.019  1.00  0.00     0.282 C 
HETATM   21  F1  UNL     1      26.509   7.685  50.402  1.00  0.00    -0.249 F 
ENDBRANCH  18  20
ENDBRANCH  17  18
ENDBRANCH  16  17
ENDBRANCH  14  16
ENDBRANCH  13  14
ENDBRANCH  11  13
ENDBRANCH   1  11
BRANCH   9  22
HETATM   22  O2  UNL     1      23.614   1.949  52.142  1.00  0.00    -0.343 OA
BRANCH  22  23
HETATM   23  C16 UNL     1      22.472   2.220  51.465  1.00  0.00     0.154 C 
HETATM   24  C17 UNL     1      22.535   2.061  49.962  1.00  0.00     0.061 C 
HETATM   25  C18 UNL     1      21.260   2.794  49.587  1.00  0.00     0.170 C 
HETATM   26  O3  UNL     1      21.226   3.885  50.422  1.00  0.00    -0.389 OA
HETATM   27  C19 UNL     1      21.970   3.643  51.550  1.00  0.00     0.200 C 
ENDBRANCH  22  23
ENDBRANCH   9  22
BRANCH   7  28
HETATM   28  O1  UNL     1      22.321  -1.696  54.944  1.00  0.00    -0.356 OA
HETATM   29  C13 UNL     1      21.047  -1.752  54.380  1.00  0.00     0.210 C 
ENDBRANCH   7  28
TORSDOF 10
ENDMDL
MODEL 6
REMARK VINA RESULT:      -7.3      4.213      7.924
REMARK  10 active torsions:
REMARK  status: ('A' for Active; 'I' for Inactive)
REMARK    1  A    between atoms: C2_2  and  C3_3 
REMARK    2  A    between atoms: C2_2  and  C7_9 
REMARK    3  A    between atoms: C3_3  and  C4_4 
REMARK    4  A    between atoms: C4_4  and  C5_5 
REMARK    5  A    between atoms: C5_5  and  C6_7 
REMARK    6  A    between atoms: C7_9  and  N1_10 
REMARK    7  A    between atoms: N1_10  and  C8_11 
REMARK    8  A    between atoms: C12_17  and  O1_18 
REMARK    9  A    between atoms: C15_21  and  O2_22 
REMARK   10  A    between atoms: O2_22  and  C16_23 
ROOT
HETATM    1  C8  UNL     1      26.495   2.473  51.868  1.00  0.00     0.140 A 
HETATM    2  N2  UNL     1      27.731   2.168  52.289  1.00  0.00    -0.224 NA
HETATM    3  C9  UNL     1      27.997   1.173  53.116  1.00  0.00     0.236 A 
HETATM    4  N3  UNL     1      27.014   0.390  53.593  1.00  0.00    -0.241 NA
HETATM    5  C10 UNL     1      25.735   0.609  53.234  1.00  0.00     0.077 A 
HETATM    6  C11 UNL     1      24.779  -0.214  53.745  1.00  0.00     0.069 A 
HETATM    7  C12 UNL     1      23.464   0.002  53.380  1.00  0.00     0.073 A 
HETATM    8  C14 UNL     1      23.199   1.042  52.518  1.00  0.00     0.074 A 
HETATM    9  C15 UNL     1      24.193   1.856  52.019  1.00  0.00     0.088 A 
HETATM   10  C20 UNL     1      25.508   1.654  52.372  1.00  0.00     0.072 A 
ENDROOT
BRANCH   1  11
HETATM   11  N1  UNL     1      26.268   3.565  50.988  1.00  0.00    -0.370 N 
HETATM   12  H8  UNL     1      25.888   4.519  51.017  1.00  0.00     0.161 HD
BRANCH  11  13
HETATM   13  C7  UNL     1      26.667   3.348  49.611  1.00  0.00     0.156 C 
BRANCH  13  14
HETATM   14  C2  UNL     1      26.910   4.675  48.997  1.00  0.00    -0.054 C 
HETATM   15  C1  UNL     1      28.058   5.131  48.520  1.00  0.00     0.041 C 
BRANCH  14  16
HETATM   16  C3  UNL     1      25.917   5.680  48.831  1.00  0.00     0.061 C 
BRANCH  16  17
HETATM   17  C4  UNL     1      25.897   6.757  49.611  1.00  0.00    -0.106 C 
BRANCH  17  18
HETATM   18  C5  UNL     1      25.603   7.936  50.153  1.00  0.00     0.085 C 
HETATM   19 CL1  UNL     1      27.003   8.918  50.277  1.00  0.00    -0.077 Cl
BRANCH  18  20
HETATM   20  C6  UNL     1      24.217   8.163  50.531  1.00  0.00     0.282 C 
HETATM   21  F1  UNL     1      23.607   8.903  49.514  1.00  0.00    -0.249 F 
ENDBRANCH  18  20
ENDBRANCH  17  18
ENDBRANCH  16  17
ENDBRANCH  14  16
ENDBRANCH  13  14
ENDBRANCH  11  13
ENDBRANCH   1  11
BRANCH   9  22
HETATM   22  O2  UNL     1      23.811   2.845  51.180  1.00  0.00    -0.343 OA
BRANCH  22  23
HETATM   23  C16 UNL     1      22.724   3.648  51.080  1.00  0.00     0.154 C 
HETATM   24  C17 UNL     1      22.628   4.486  49.826  1.00  0.00     0.061 C 
HETATM   25  C18 UNL     1      21.553   5.461  50.268  1.00  0.00     0.170 C 
HETATM   26  O3  UNL     1      21.859   5.750  51.576  1.00  0.00    -0.389 OA
HETATM   27  C19 UNL     1      22.605   4.735  52.123  1.00  0.00     0.200 C 
ENDBRANCH  22  23
ENDBRANCH   9  22
BRANCH   7  28
HETATM   28  O1  UNL     1      22.505  -0.848  53.913  1.00  0.00    -0.356 OA
HETATM   29  C13 UNL     1      22.649  -1.336  55.211  1.00  0.00     0.210 C 
ENDBRANCH   7  28
TORSDOF 10
ENDMDL
MODEL 7
REMARK VINA RESULT:      -7.1      4.015      7.332
REMARK  10 active torsions:
REMARK  status: ('A' for Active; 'I' for Inactive)
REMARK    1  A    between atoms: C2_2  and  C3_3 
REMARK    2  A    between atoms: C2_2  and  C7_9 
REMARK    3  A    between atoms: C3_3  and  C4_4 
REMARK    4  A    between atoms: C4_4  and  C5_5 
REMARK    5  A    between atoms: C5_5  and  C6_7 
REMARK    6  A    between atoms: C7_9  and  N1_10 
REMARK    7  A    between atoms: N1_10  and  C8_11 
REMARK    8  A    between atoms: C12_17  and  O1_18 
REMARK    9  A    between atoms: C15_21  and  O2_22 
REMARK   10  A    between atoms: O2_22  and  C16_23 
ROOT
HETATM    1  C8  UNL     1      24.535   2.938  50.772  1.00  0.00     0.140 A 
HETATM    2  N2  UNL     1      23.596   3.489  49.990  1.00  0.00    -0.224 NA
HETATM    3  C9  UNL     1      22.337   3.087  49.964  1.00  0.00     0.236 A 
HETATM    4  N3  UNL     1      21.920   2.074  50.744  1.00  0.00    -0.241 NA
HETATM    5  C10 UNL     1      22.783   1.449  51.566  1.00  0.00     0.077 A 
HETATM    6  C11 UNL     1      22.308   0.430  52.334  1.00  0.00     0.069 A 
HETATM    7  C12 UNL     1      23.187  -0.215  53.184  1.00  0.00     0.073 A 
HETATM    8  C14 UNL     1      24.495   0.213  53.202  1.00  0.00     0.074 A 
HETATM    9  C15 UNL     1      24.941   1.249  52.411  1.00  0.00     0.088 A 
HETATM   10  C20 UNL     1      24.080   1.903  51.559  1.00  0.00     0.072 A 
ENDROOT
BRANCH   1  11
HETATM   11  N1  UNL     1      25.877   3.405  50.747  1.00  0.00    -0.370 N 
HETATM   12  H8  UNL     1      26.568   3.814  51.388  1.00  0.00     0.161 HD
BRANCH  11  13
HETATM   13  C7  UNL     1      26.545   3.311  49.464  1.00  0.00     0.156 C 
BRANCH  13  14
HETATM   14  C2  UNL     1      26.929   4.683  49.054  1.00  0.00    -0.054 C 
HETATM   15  C1  UNL     1      28.065   5.052  48.483  1.00  0.00     0.041 C 
BRANCH  14  16
HETATM   16  C3  UNL     1      26.110   5.834  49.224  1.00  0.00     0.061 C 
BRANCH  16  17
HETATM   17  C4  UNL     1      26.628   7.058  49.157  1.00  0.00    -0.106 C 
BRANCH  17  18
HETATM   18  C5  UNL     1      26.811   8.356  48.935  1.00  0.00     0.085 C 
HETATM   19 CL1  UNL     1      27.323   9.156  50.363  1.00  0.00    -0.077 Cl
BRANCH  18  20
HETATM   20  C6  UNL     1      26.549   8.840  47.589  1.00  0.00     0.282 C 
HETATM   21  F1  UNL     1      26.847   7.810  46.692  1.00  0.00    -0.249 F 
ENDBRANCH  18  20
ENDBRANCH  17  18
ENDBRANCH  16  17
ENDBRANCH  14  16
ENDBRANCH  13  14
ENDBRANCH  11  13
ENDBRANCH   1  11
BRANCH   9  22
HETATM   22  O2  UNL     1      26.248   1.580  52.515  1.00  0.00    -0.343 OA
BRANCH  22  23
HETATM   23  C16 UNL     1      27.221   1.353  53.430  1.00  0.00     0.154 C 
HETATM   24  C17 UNL     1      28.317   2.392  53.508  1.00  0.00     0.061 C 
HETATM   25  C18 UNL     1      29.336   1.609  54.315  1.00  0.00     0.170 C 
HETATM   26  O3  UNL     1      29.278   0.333  53.808  1.00  0.00    -0.389 OA
HETATM   27  C19 UNL     1      28.059   0.115  53.214  1.00  0.00     0.200 C 
ENDBRANCH  22  23
ENDBRANCH   9  22
BRANCH   7  28
HETATM   28  O1  UNL     1      22.682  -1.251  53.957  1.00  0.00    -0.356 OA
HETATM   29  C13 UNL     1      21.552  -1.045  54.749  1.00  0.00     0.210 C 
ENDBRANCH   7  28
TORSDOF 10
ENDMDL
MODEL 8
REMARK VINA RESULT:      -6.9      3.768      7.687
REMARK  10 active torsions:
REMARK  status: ('A' for Active; 'I' for Inactive)
REMARK    1  A    between atoms: C2_2  and  C3_3 
REMARK    2  A    between atoms: C2_2  and  C7_9 
REMARK    3  A    between atoms: C3_3  and  C4_4 
REMARK    4  A    between atoms: C4_4  and  C5_5 
REMARK    5  A    between atoms: C5_5  and  C6_7 
REMARK    6  A    between atoms: C7_9  and  N1_10 
REMARK    7  A    between atoms: N1_10  and  C8_11 
REMARK    8  A    between atoms: C12_17  and  O1_18 
REMARK    9  A    between atoms: C15_21  and  O2_22 
REMARK   10  A    between atoms: O2_22  and  C16_23 
ROOT
HETATM    1  C8  UNL     1      23.569   0.118  53.451  1.00  0.00     0.140 A 
HETATM    2  N2  UNL     1      24.251  -0.527  54.408  1.00  0.00    -0.224 NA
HETATM    3  C9  UNL     1      23.700  -1.385  55.249  1.00  0.00     0.236 A 
HETATM    4  N3  UNL     1      22.386  -1.663  55.187  1.00  0.00    -0.241 NA
HETATM    5  C10 UNL     1      21.607  -1.069  54.264  1.00  0.00     0.077 A 
HETATM    6  C11 UNL     1      20.283  -1.386  54.244  1.00  0.00     0.069 A 
HETATM    7  C12 UNL     1      19.477  -0.783  53.298  1.00  0.00     0.073 A 
HETATM    8  C14 UNL     1      20.064   0.108  52.428  1.00  0.00     0.074 A 
HETATM    9  C15 UNL     1      21.408   0.406  52.476  1.00  0.00     0.088 A 
HETATM   10  C20 UNL     1      22.226  -0.186  53.412  1.00  0.00     0.072 A 
ENDROOT
BRANCH   1  11
HETATM   11  N1  UNL     1      24.215   1.040  52.585  1.00  0.00    -0.370 N 
HETATM   12  H8  UNL     1      24.308   1.223  51.577  1.00  0.00     0.161 HD
BRANCH  11  13
HETATM   13  C7  UNL     1      25.004   2.064  53.240  1.00  0.00     0.156 C 
BRANCH  13  14
HETATM   14  C2  UNL     1      26.363   2.036  52.648  1.00  0.00    -0.054 C 
HETATM   15  C1  UNL     1      27.514   2.089  53.301  1.00  0.00     0.041 C 
BRANCH  14  16
HETATM   16  C3  UNL     1      26.633   1.950  51.255  1.00  0.00     0.061 C 
BRANCH  16  17
HETATM   17  C4  UNL     1      26.580   3.030  50.480  1.00  0.00    -0.106 C 
BRANCH  17  18
HETATM   18  C5  UNL     1      26.174   4.123  49.839  1.00  0.00     0.085 C 
HETATM   19 CL1  UNL     1      27.362   4.654  48.722  1.00  0.00    -0.077 Cl
BRANCH  18  20
HETATM   20  C6  UNL     1      24.864   4.648  50.190  1.00  0.00     0.282 C 
HETATM   21  F1  UNL     1      25.040   5.930  50.720  1.00  0.00    -0.249 F 
ENDBRANCH  18  20
ENDBRANCH  17  18
ENDBRANCH  16  17
ENDBRANCH  14  16
ENDBRANCH  13  14
ENDBRANCH  11  13
ENDBRANCH   1  11
BRANCH   9  22
HETATM   22  O2  UNL     1      21.871   1.296  51.569  1.00  0.00    -0.343 OA
BRANCH  22  23
HETATM   23  C16 UNL     1      21.429   1.763  50.376  1.00  0.00     0.154 C 
HETATM   24  C17 UNL     1      22.472   1.913  49.292  1.00  0.00     0.061 C 
HETATM   25  C18 UNL     1      21.689   2.776  48.321  1.00  0.00     0.170 C 
HETATM   26  O3  UNL     1      21.015   3.673  49.114  1.00  0.00    -0.389 OA
HETATM   27  C19 UNL     1      20.862   3.163  50.380  1.00  0.00     0.200 C 
ENDBRANCH  22  23
ENDBRANCH   9  22
BRANCH   7  28
HETATM   28  O1  UNL     1      18.131  -1.121  53.297  1.00  0.00    -0.356 OA
HETATM   29  C13 UNL     1      17.742  -2.437  53.547  1.00  0.00     0.210 C 
ENDBRANCH   7  28
TORSDOF 10
ENDMDL
MODEL 9
REMARK VINA RESULT:      -6.9      3.947      6.932
REMARK  10 active torsions:
REMARK  status: ('A' for Active; 'I' for Inactive)
REMARK    1  A    between atoms: C2_2  and  C3_3 
REMARK    2  A    between atoms: C2_2  and  C7_9 
REMARK    3  A    between atoms: C3_3  and  C4_4 
REMARK    4  A    between atoms: C4_4  and  C5_5 
REMARK    5  A    between atoms: C5_5  and  C6_7 
REMARK    6  A    between atoms: C7_9  and  N1_10 
REMARK    7  A    between atoms: N1_10  and  C8_11 
REMARK    8  A    between atoms: C12_17  and  O1_18 
REMARK    9  A    between atoms: C15_21  and  O2_22 
REMARK   10  A    between atoms: O2_22  and  C16_23 
ROOT
HETATM    1  C8  UNL     1      22.509  -0.291  53.214  1.00  0.00     0.140 A 
HETATM    2  N2  UNL     1      22.138  -1.210  54.117  1.00  0.00    -0.224 NA
HETATM    3  C9  UNL     1      20.889  -1.605  54.288  1.00  0.00     0.236 A 
HETATM    4  N3  UNL     1      19.895  -1.092  53.542  1.00  0.00    -0.241 NA
HETATM    5  C10 UNL     1      20.157  -0.161  52.606  1.00  0.00     0.077 A 
HETATM    6  C11 UNL     1      19.114   0.325  51.879  1.00  0.00     0.069 A 
HETATM    7  C12 UNL     1      19.375   1.279  50.913  1.00  0.00     0.073 A 
HETATM    8  C14 UNL     1      20.680   1.683  50.745  1.00  0.00     0.074 A 
HETATM    9  C15 UNL     1      21.712   1.168  51.499  1.00  0.00     0.088 A 
HETATM   10  C20 UNL     1      21.470   0.217  52.465  1.00  0.00     0.072 A 
ENDROOT
BRANCH   1  11
HETATM   11  N1  UNL     1      23.867   0.104  53.085  1.00  0.00    -0.370 N 
HETATM   12  H8  UNL     1      24.418   0.863  52.663  1.00  0.00     0.161 HD
BRANCH  11  13
HETATM   13  C7  UNL     1      24.834  -0.778  53.709  1.00  0.00     0.156 C 
BRANCH  13  14
HETATM   14  C2  UNL     1      26.021  -0.845  52.823  1.00  0.00    -0.054 C 
HETATM   15  C1  UNL     1      26.705  -1.930  52.494  1.00  0.00     0.041 C 
BRANCH  14  16
HETATM   16  C3  UNL     1      26.616   0.279  52.187  1.00  0.00     0.061 C 
BRANCH  16  17
HETATM   17  C4  UNL     1      27.733   0.824  52.664  1.00  0.00    -0.106 C 
BRANCH  17  18
HETATM   18  C5  UNL     1      28.805   1.099  53.401  1.00  0.00     0.085 C 
HETATM   19 CL1  UNL     1      29.734  -0.316  53.680  1.00  0.00    -0.077 Cl
BRANCH  18  20
HETATM   20  C6  UNL     1      28.983   2.479  53.822  1.00  0.00     0.282 C 
HETATM   21  F1  UNL     1      29.925   2.499  54.855  1.00  0.00    -0.249 F 
ENDBRANCH  18  20
ENDBRANCH  17  18
ENDBRANCH  16  17
ENDBRANCH  14  16
ENDBRANCH  13  14
ENDBRANCH  11  13
ENDBRANCH   1  11
BRANCH   9  22
HETATM   22  O2  UNL     1      22.952   1.641  51.243  1.00  0.00    -0.343 OA
BRANCH  22  23
HETATM   23  C16 UNL     1      23.455   2.829  50.827  1.00  0.00     0.154 C 
HETATM   24  C17 UNL     1      23.828   2.918  49.364  1.00  0.00     0.061 C 
HETATM   25  C18 UNL     1      24.661   4.186  49.403  1.00  0.00     0.170 C 
HETATM   26  O3  UNL     1      25.394   4.087  50.561  1.00  0.00    -0.389 OA
HETATM   27  C19 UNL     1      24.766   3.250  51.450  1.00  0.00     0.200 C 
ENDBRANCH  22  23
ENDBRANCH   9  22
BRANCH   7  28
HETATM   28  O1  UNL     1      18.297   1.761  50.184  1.00  0.00    -0.356 OA
HETATM   29  C13 UNL     1      18.513   2.603  49.093  1.00  0.00     0.210 C 
ENDBRANCH   7  28
TORSDOF 10
ENDMDL
