MODEL 1
REMARK VINA RESULT:      -7.0      0.000      0.000
REMARK  8 active torsions:
REMARK  status: ('A' for Active; 'I' for Inactive)
REMARK    1  A    between atoms: C2_2  and  C4_4 
REMARK    2  A    between atoms: C12_15  and  O1_16 
REMARK    3  A    between atoms: C15_19  and  O2_20 
REMARK    4  A    between atoms: O2_20  and  C16_21 
REMARK    5  A    between atoms: C16_21  and  C17_22 
REMARK    6  A    between atoms: C17_22  and  C18_23 
REMARK    7  A    between atoms: C18_23  and  N4_24 
REMARK    8  A    between atoms: N4_24  and  C19_25 
ROOT
HETATM    1  C4  UNL     1      23.487   2.876  49.982  1.00  0.00    -0.031 C 
HETATM    2  C5  UNL     1      23.014   2.309  48.859  1.00  0.00     0.010 C 
HETATM    3  C6  UNL     1      21.895   1.392  48.546  1.00  0.00     0.018 C 
HETATM    4  C7  UNL     1      20.753   1.402  49.268  1.00  0.00     0.089 C 
HETATM    5  N1  UNL     1      20.403   2.234  50.404  1.00  0.00    -0.353 N 
HETATM    6  C8  UNL     1      21.375   3.004  51.101  1.00  0.00     0.127 C 
HETATM    7  N2  UNL     1      21.051   4.255  51.359  1.00  0.00    -0.227 NA
HETATM    8  C9  UNL     1      21.920   5.118  52.061  1.00  0.00     0.235 C 
HETATM    9  N3  UNL     1      23.083   4.719  52.522  1.00  0.00    -0.245 NA
HETATM   10  C10 UNL     1      23.496   3.359  52.345  1.00  0.00     0.062 C 
HETATM   11  C11 UNL     1      24.576   3.126  53.034  1.00  0.00     0.065 C 
HETATM   12  C12 UNL     1      25.097   1.771  52.991  1.00  0.00     0.069 C 
HETATM   13  C14 UNL     1      24.338   0.964  52.276  1.00  0.00     0.043 C 
HETATM   14  C15 UNL     1      23.028   1.120  51.500  1.00  0.00     0.173 C 
HETATM   15  C20 UNL     1      22.795   2.574  51.364  1.00  0.00     0.121 C 
HETATM   16  H9  UNL     1      19.460   2.364  50.802  1.00  0.00     0.166 HD
ENDROOT
BRANCH  14  17
HETATM   17  O2  UNL     1      22.149   0.500  52.402  1.00  0.00    -0.380 OA
BRANCH  17  18
HETATM   18  C16 UNL     1      22.606  -0.590  53.057  1.00  0.00     0.170 C 
BRANCH  18  19
HETATM   19  C17 UNL     1      21.843  -0.624  54.399  1.00  0.00     0.046 C 
BRANCH  19  20
HETATM   20  C18 UNL     1      20.485   0.015  54.225  1.00  0.00     0.124 C 
BRANCH  20  21
HETATM   21  N4  UNL     1      19.542  -1.015  53.863  1.00  0.00    -0.368 N 
HETATM   22  H23 UNL     1      19.453  -2.000  54.250  1.00  0.00     0.161 HD
BRANCH  21  23
HETATM   23  C19 UNL     1      18.642  -0.584  52.844  1.00  0.00     0.348 C 
HETATM   24  O3  UNL     1      18.937  -0.161  51.713  1.00  0.00    -0.284 OA
ENDBRANCH  21  23
ENDBRANCH  20  21
ENDBRANCH  19  20
ENDBRANCH  18  19
ENDBRANCH  17  18
ENDBRANCH  14  17
BRANCH  12  25
HETATM   25  O1  UNL     1      26.241   1.289  53.594  1.00  0.00    -0.356 OA
HETATM   26  C13 UNL     1      26.205   0.185  54.504  1.00  0.00     0.210 C 
ENDBRANCH  12  25
BRANCH   1  27
HETATM   27  C2  UNL     1      24.617   3.694  49.683  1.00  0.00    -0.075 C 
HETATM   28  C1  UNL     1      26.013   3.231  49.750  1.00  0.00     0.044 C 
HETATM   29  C3  UNL     1      24.466   4.918  49.329  1.00  0.00     0.038 C 
ENDBRANCH   1  27
TORSDOF 8
ENDMDL
MODEL 2
REMARK VINA RESULT:      -6.9      1.321      1.805
REMARK  8 active torsions:
REMARK  status: ('A' for Active; 'I' for Inactive)
REMARK    1  A    between atoms: C2_2  and  C4_4 
REMARK    2  A    between atoms: C12_15  and  O1_16 
REMARK    3  A    between atoms: C15_19  and  O2_20 
REMARK    4  A    between atoms: O2_20  and  C16_21 
REMARK    5  A    between atoms: C16_21  and  C17_22 
REMARK    6  A    between atoms: C17_22  and  C18_23 
REMARK    7  A    between atoms: C18_23  and  N4_24 
REMARK    8  A    between atoms: N4_24  and  C19_25 
ROOT
HETATM    1  C4  UNL     1      23.763   3.203  49.680  1.00  0.00    -0.031 C 
HETATM    2  C5  UNL     1      23.383   2.762  48.468  1.00  0.00     0.010 C 
HETATM    3  C6  UNL     1      22.141   2.177  47.915  1.00  0.00     0.018 C 
HETATM    4  C7  UNL     1      20.926   2.512  48.403  1.00  0.00     0.089 C 
HETATM    5  N1  UNL     1      20.600   3.431  49.477  1.00  0.00    -0.353 N 
HETATM    6  C8  UNL     1      21.589   3.922  50.374  1.00  0.00     0.127 C 
HETATM    7  N2  UNL     1      21.570   5.218  50.607  1.00  0.00    -0.227 NA
HETATM    8  C9  UNL     1      22.485   5.827  51.492  1.00  0.00     0.235 C 
HETATM    9  N3  UNL     1      23.385   5.137  52.154  1.00  0.00    -0.245 NA
HETATM   10  C10 UNL     1      23.441   3.714  52.015  1.00  0.00     0.062 C 
HETATM   11  C11 UNL     1      24.263   3.210  52.892  1.00  0.00     0.065 C 
HETATM   12  C12 UNL     1      24.398   1.764  52.905  1.00  0.00     0.069 C 
HETATM   13  C14 UNL     1      23.603   1.179  52.030  1.00  0.00     0.043 C 
HETATM   14  C15 UNL     1      22.561   1.668  51.021  1.00  0.00     0.173 C 
HETATM   15  C20 UNL     1      22.761   3.128  50.891  1.00  0.00     0.121 C 
HETATM   16  H9  UNL     1      19.668   3.819  49.690  1.00  0.00     0.166 HD
ENDROOT
BRANCH  14  17
HETATM   17  O2  UNL     1      21.389   1.329  51.715  1.00  0.00    -0.380 OA
BRANCH  17  18
HETATM   18  C16 UNL     1      20.751   0.200  51.332  1.00  0.00     0.170 C 
BRANCH  18  19
HETATM   19  C17 UNL     1      19.654  -0.042  52.390  1.00  0.00     0.046 C 
BRANCH  19  20
HETATM   20  C18 UNL     1      20.281  -0.110  53.763  1.00  0.00     0.124 C 
BRANCH  20  21
HETATM   21  N4  UNL     1      21.359  -1.067  53.723  1.00  0.00    -0.368 N 
HETATM   22  H23 UNL     1      21.566  -1.803  52.986  1.00  0.00     0.161 HD
BRANCH  21  23
HETATM   23  C19 UNL     1      22.219  -0.954  54.854  1.00  0.00     0.348 C 
HETATM   24  O3  UNL     1      22.594  -1.872  55.606  1.00  0.00    -0.284 OA
ENDBRANCH  21  23
ENDBRANCH  20  21
ENDBRANCH  19  20
ENDBRANCH  18  19
ENDBRANCH  17  18
ENDBRANCH  14  17
BRANCH  12  25
HETATM   25  O1  UNL     1      25.229   1.002  53.700  1.00  0.00    -0.356 OA
HETATM   26  C13 UNL     1      26.541   1.446  54.061  1.00  0.00     0.210 C 
ENDBRANCH  12  25
BRANCH   1  27
HETATM   27  C2  UNL     1      25.108   3.678  49.633  1.00  0.00    -0.075 C 
HETATM   28  C1  UNL     1      26.283   2.871  50.003  1.00  0.00     0.044 C 
HETATM   29  C3  UNL     1      25.369   4.874  49.252  1.00  0.00     0.038 C 
ENDBRANCH   1  27
TORSDOF 8
ENDMDL
MODEL 3
REMARK VINA RESULT:      -6.7      2.264      5.191
REMARK  8 active torsions:
REMARK  status: ('A' for Active; 'I' for Inactive)
REMARK    1  A    between atoms: C2_2  and  C4_4 
REMARK    2  A    between atoms: C12_15  and  O1_16 
REMARK    3  A    between atoms: C15_19  and  O2_20 
REMARK    4  A    between atoms: O2_20  and  C16_21 
REMARK    5  A    between atoms: C16_21  and  C17_22 
REMARK    6  A    between atoms: C17_22  and  C18_23 
REMARK    7  A    between atoms: C18_23  and  N4_24 
REMARK    8  A    between atoms: N4_24  and  C19_25 
ROOT
HETATM    1  C4  UNL     1      21.873   3.433  51.069  1.00  0.00    -0.031 C 
HETATM    2  C5  UNL     1      22.422   4.618  51.388  1.00  0.00     0.010 C 
HETATM    3  C6  UNL     1      23.803   5.148  51.433  1.00  0.00     0.018 C 
HETATM    4  C7  UNL     1      24.758   4.700  50.589  1.00  0.00     0.089 C 
HETATM    5  N1  UNL     1      24.653   3.693  49.550  1.00  0.00    -0.353 N 
HETATM    6  C8  UNL     1      23.535   2.817  49.461  1.00  0.00     0.127 C 
HETATM    7  N2  UNL     1      23.005   2.670  48.263  1.00  0.00    -0.227 NA
HETATM    8  C9  UNL     1      21.906   1.815  48.038  1.00  0.00     0.235 C 
HETATM    9  N3  UNL     1      21.368   1.096  48.996  1.00  0.00    -0.245 NA
HETATM   10  C10 UNL     1      21.915   1.141  50.318  1.00  0.00     0.062 C 
HETATM   11  C11 UNL     1      21.367   0.222  51.061  1.00  0.00     0.065 C 
HETATM   12  C12 UNL     1      21.850   0.112  52.426  1.00  0.00     0.069 C 
HETATM   13  C14 UNL     1      22.831   0.957  52.680  1.00  0.00     0.043 C 
HETATM   14  C15 UNL     1      23.587   2.010  51.867  1.00  0.00     0.173 C 
HETATM   15  C20 UNL     1      22.796   2.233  50.637  1.00  0.00     0.121 C 
HETATM   16  H9  UNL     1      25.332   3.518  48.794  1.00  0.00     0.166 HD
ENDROOT
BRANCH  14  17
HETATM   17  O2  UNL     1      24.782   1.310  51.637  1.00  0.00    -0.380 OA
BRANCH  17  18
HETATM   18  C16 UNL     1      25.403   0.782  52.715  1.00  0.00     0.170 C 
BRANCH  18  19
HETATM   19  C17 UNL     1      26.712   0.161  52.183  1.00  0.00     0.046 C 
BRANCH  19  20
HETATM   20  C18 UNL     1      27.159  -0.947  53.108  1.00  0.00     0.124 C 
BRANCH  20  21
HETATM   21  N4  UNL     1      27.197  -0.427  54.453  1.00  0.00    -0.368 N 
HETATM   22  H23 UNL     1      26.414  -0.376  55.168  1.00  0.00     0.161 HD
BRANCH  21  23
HETATM   23  C19 UNL     1      28.489   0.067  54.801  1.00  0.00     0.348 C 
HETATM   24  O3  UNL     1      28.820   1.255  54.954  1.00  0.00    -0.284 OA
ENDBRANCH  21  23
ENDBRANCH  20  21
ENDBRANCH  19  20
ENDBRANCH  18  19
ENDBRANCH  17  18
ENDBRANCH  14  17
BRANCH  12  25
HETATM   25  O1  UNL     1      21.403  -0.743  53.412  1.00  0.00    -0.356 OA
HETATM   26  C13 UNL     1      22.265  -1.206  54.456  1.00  0.00     0.210 C 
ENDBRANCH  12  25
BRANCH   1  27
HETATM   27  C2  UNL     1      20.454   3.493  51.205  1.00  0.00    -0.075 C 
HETATM   28  C1  UNL     1      19.535   3.875  50.119  1.00  0.00     0.044 C 
HETATM   29  C3  UNL     1      19.889   3.206  52.319  1.00  0.00     0.038 C 
ENDBRANCH   1  27
TORSDOF 8
ENDMDL
MODEL 4
REMARK VINA RESULT:      -6.4      2.241      4.478
REMARK  8 active torsions:
REMARK  status: ('A' for Active; 'I' for Inactive)
REMARK    1  A    between atoms: C2_2  and  C4_4 
REMARK    2  A    between atoms: C12_15  and  O1_16 
REMARK    3  A    between atoms: C15_19  and  O2_20 
REMARK    4  A    between atoms: O2_20  and  C16_21 
REMARK    5  A    between atoms: C16_21  and  C17_22 
REMARK    6  A    between atoms: C17_22  and  C18_23 
REMARK    7  A    between atoms: C18_23  and  N4_24 
REMARK    8  A    between atoms: N4_24  and  C19_25 
ROOT
HETATM    1  C4  UNL     1      21.669   1.897  49.933  1.00  0.00    -0.031 C 
HETATM    2  C5  UNL     1      21.292   0.657  50.289  1.00  0.00     0.010 C 
HETATM    3  C6  UNL     1      21.216  -0.082  51.570  1.00  0.00     0.018 C 
HETATM    4  C7  UNL     1      20.964   0.553  52.736  1.00  0.00     0.089 C 
HETATM    5  N1  UNL     1      20.734   1.967  52.969  1.00  0.00    -0.353 N 
HETATM    6  C8  UNL     1      21.022   2.950  51.982  1.00  0.00     0.127 C 
HETATM    7  N2  UNL     1      20.089   3.857  51.775  1.00  0.00    -0.227 NA
HETATM    8  C9  UNL     1      20.260   4.897  50.837  1.00  0.00     0.235 C 
HETATM    9  N3  UNL     1      21.364   5.039  50.140  1.00  0.00    -0.245 NA
HETATM   10  C10 UNL     1      22.459   4.139  50.342  1.00  0.00     0.062 C 
HETATM   11  C11 UNL     1      23.512   4.565  49.704  1.00  0.00     0.065 C 
HETATM   12  C12 UNL     1      24.724   3.777  49.845  1.00  0.00     0.069 C 
HETATM   13  C14 UNL     1      24.564   2.754  50.662  1.00  0.00     0.043 C 
HETATM   14  C15 UNL     1      23.406   2.218  51.507  1.00  0.00     0.173 C 
HETATM   15  C20 UNL     1      22.187   2.903  51.027  1.00  0.00     0.121 C 
HETATM   16  H9  UNL     1      20.346   2.392  53.825  1.00  0.00     0.166 HD
ENDROOT
BRANCH  14  17
HETATM   17  O2  UNL     1      23.823   2.654  52.775  1.00  0.00    -0.380 OA
BRANCH  17  18
HETATM   18  C16 UNL     1      24.935   2.081  53.288  1.00  0.00     0.170 C 
BRANCH  18  19
HETATM   19  C17 UNL     1      24.584   0.591  53.491  1.00  0.00     0.046 C 
BRANCH  19  20
HETATM   20  C18 UNL     1      25.824  -0.251  53.301  1.00  0.00     0.124 C 
BRANCH  20  21
HETATM   21  N4  UNL     1      26.417  -0.483  54.595  1.00  0.00    -0.368 N 
HETATM   22  H23 UNL     1      26.013  -1.002  55.428  1.00  0.00     0.161 HD
BRANCH  21  23
HETATM   23  C19 UNL     1      27.720   0.089  54.698  1.00  0.00     0.348 C 
HETATM   24  O3  UNL     1      28.799  -0.519  54.808  1.00  0.00    -0.284 OA
ENDBRANCH  21  23
ENDBRANCH  20  21
ENDBRANCH  19  20
ENDBRANCH  18  19
ENDBRANCH  17  18
ENDBRANCH  14  17
BRANCH  12  25
HETATM   25  O1  UNL     1      25.945   3.993  49.240  1.00  0.00    -0.356 OA
HETATM   26  C13 UNL     1      26.393   5.308  48.896  1.00  0.00     0.210 C 
ENDBRANCH  12  25
BRANCH   1  27
HETATM   27  C2  UNL     1      21.528   2.070  48.524  1.00  0.00    -0.075 C 
HETATM   28  C1  UNL     1      22.611   1.846  47.551  1.00  0.00     0.044 C 
HETATM   29  C3  UNL     1      20.410   2.440  48.016  1.00  0.00     0.038 C 
ENDBRANCH   1  27
TORSDOF 8
ENDMDL
MODEL 5
REMARK VINA RESULT:      -6.1      6.832      9.597
REMARK  8 active torsions:
REMARK  status: ('A' for Active; 'I' for Inactive)
REMARK    1  A    between atoms: C2_2  and  C4_4 
REMARK    2  A    between atoms: C12_15  and  O1_16 
REMARK    3  A    between atoms: C15_19  and  O2_20 
REMARK    4  A    between atoms: O2_20  and  C16_21 
REMARK    5  A    between atoms: C16_21  and  C17_22 
REMARK    6  A    between atoms: C17_22  and  C18_23 
REMARK    7  A    between atoms: C18_23  and  N4_24 
REMARK    8  A    between atoms: N4_24  and  C19_25 
ROOT
HETATM    1  C4  UNL     1      30.133   8.386  46.420  1.00  0.00    -0.031 C 
HETATM    2  C5  UNL     1      29.324   8.529  45.356  1.00  0.00     0.010 C 
HETATM    3  C6  UNL     1      27.863   8.423  45.137  1.00  0.00     0.018 C 
HETATM    4  C7  UNL     1      26.980   8.732  46.111  1.00  0.00     0.089 C 
HETATM    5  N1  UNL     1      27.241   9.193  47.462  1.00  0.00    -0.353 N 
HETATM    6  C8  UNL     1      28.537   9.120  48.045  1.00  0.00     0.127 C 
HETATM    7  N2  UNL     1      28.957  10.203  48.667  1.00  0.00    -0.227 NA
HETATM    8  C9  UNL     1      30.216  10.253  49.303  1.00  0.00     0.235 C 
HETATM    9  N3  UNL     1      31.025   9.220  49.339  1.00  0.00    -0.245 NA
HETATM   10  C10 UNL     1      30.630   7.979  48.745  1.00  0.00     0.062 C 
HETATM   11  C11 UNL     1      31.480   7.042  49.055  1.00  0.00     0.065 C 
HETATM   12  C12 UNL     1      31.191   5.708  48.560  1.00  0.00     0.069 C 
HETATM   13  C14 UNL     1      30.053   5.655  47.896  1.00  0.00     0.043 C 
HETATM   14  C15 UNL     1      28.960   6.667  47.545  1.00  0.00     0.173 C 
HETATM   15  C20 UNL     1      29.526   8.005  47.822  1.00  0.00     0.121 C 
HETATM   16  H9  UNL     1      26.558   9.613  48.110  1.00  0.00     0.166 HD
ENDROOT
BRANCH  14  17
HETATM   17  O2  UNL     1      27.979   6.279  48.472  1.00  0.00    -0.380 OA
BRANCH  17  18
HETATM   18  C16 UNL     1      27.755   4.954  48.612  1.00  0.00     0.170 C 
BRANCH  18  19
HETATM   19  C17 UNL     1      26.326   4.828  49.182  1.00  0.00     0.046 C 
BRANCH  19  20
HETATM   20  C18 UNL     1      25.663   6.185  49.192  1.00  0.00     0.124 C 
BRANCH  20  21
HETATM   21  N4  UNL     1      26.036   6.863  50.409  1.00  0.00    -0.368 N 
HETATM   22  H23 UNL     1      26.578   6.486  51.240  1.00  0.00     0.161 HD
BRANCH  21  23
HETATM   23  C19 UNL     1      25.582   8.215  50.431  1.00  0.00     0.348 C 
HETATM   24  O3  UNL     1      25.121   8.867  49.477  1.00  0.00    -0.284 OA
ENDBRANCH  21  23
ENDBRANCH  20  21
ENDBRANCH  19  20
ENDBRANCH  18  19
ENDBRANCH  17  18
ENDBRANCH  14  17
BRANCH  12  25
HETATM   25  O1  UNL     1      31.954   4.569  48.714  1.00  0.00    -0.356 OA
HETATM   26  C13 UNL     1      33.092   4.307  47.886  1.00  0.00     0.210 C 
ENDBRANCH  12  25
BRANCH   1  27
HETATM   27  C2  UNL     1      31.490   8.613  46.041  1.00  0.00    -0.075 C 
HETATM   28  C1  UNL     1      32.417   7.552  45.613  1.00  0.00     0.044 C 
HETATM   29  C3  UNL     1      31.987   9.795  46.054  1.00  0.00     0.038 C 
ENDBRANCH   1  27
TORSDOF 8
ENDMDL
MODEL 6
REMARK VINA RESULT:      -6.1      6.360      9.066
REMARK  8 active torsions:
REMARK  status: ('A' for Active; 'I' for Inactive)
REMARK    1  A    between atoms: C2_2  and  C4_4 
REMARK    2  A    between atoms: C12_15  and  O1_16 
REMARK    3  A    between atoms: C15_19  and  O2_20 
REMARK    4  A    between atoms: O2_20  and  C16_21 
REMARK    5  A    between atoms: C16_21  and  C17_22 
REMARK    6  A    between atoms: C17_22  and  C18_23 
REMARK    7  A    between atoms: C18_23  and  N4_24 
REMARK    8  A    between atoms: N4_24  and  C19_25 
ROOT
HETATM    1  C4  UNL     1      29.883   8.186  46.629  1.00  0.00    -0.031 C 
HETATM    2  C5  UNL     1      28.871   8.414  45.775  1.00  0.00     0.010 C 
HETATM    3  C6  UNL     1      27.397   8.307  45.853  1.00  0.00     0.018 C 
HETATM    4  C7  UNL     1      26.737   8.512  47.014  1.00  0.00     0.089 C 
HETATM    5  N1  UNL     1      27.275   8.849  48.319  1.00  0.00    -0.353 N 
HETATM    6  C8  UNL     1      28.663   8.743  48.611  1.00  0.00     0.127 C 
HETATM    7  N2  UNL     1      29.208   9.770  49.231  1.00  0.00    -0.227 NA
HETATM    8  C9  UNL     1      30.571   9.780  49.594  1.00  0.00     0.235 C 
HETATM    9  N3  UNL     1      31.366   8.761  49.365  1.00  0.00    -0.245 NA
HETATM   10  C10 UNL     1      30.850   7.574  48.753  1.00  0.00     0.062 C 
HETATM   11  C11 UNL     1      31.742   6.625  48.791  1.00  0.00     0.065 C 
HETATM   12  C12 UNL     1      31.351   5.338  48.244  1.00  0.00     0.069 C 
HETATM   13  C14 UNL     1      30.099   5.330  47.829  1.00  0.00     0.043 C 
HETATM   14  C15 UNL     1      28.962   6.353  47.808  1.00  0.00     0.173 C 
HETATM   15  C20 UNL     1      29.579   7.668  48.084  1.00  0.00     0.121 C 
HETATM   16  H9  UNL     1      26.742   9.197  49.130  1.00  0.00     0.166 HD
ENDROOT
BRANCH  14  17
HETATM   17  O2  UNL     1      28.193   5.867  48.877  1.00  0.00    -0.380 OA
BRANCH  17  18
HETATM   18  C16 UNL     1      27.418   4.786  48.636  1.00  0.00     0.170 C 
BRANCH  18  19
HETATM   19  C17 UNL     1      25.989   5.192  49.056  1.00  0.00     0.046 C 
BRANCH  19  20
HETATM   20  C18 UNL     1      25.535   4.326  50.207  1.00  0.00     0.124 C 
BRANCH  20  21
HETATM   21  N4  UNL     1      26.682   3.625  50.728  1.00  0.00    -0.368 N 
HETATM   22  H23 UNL     1      27.710   3.883  50.651  1.00  0.00     0.161 HD
BRANCH  21  23
HETATM   23  C19 UNL     1      26.315   2.436  51.425  1.00  0.00     0.348 C 
HETATM   24  O3  UNL     1      27.079   1.607  51.949  1.00  0.00    -0.284 OA
ENDBRANCH  21  23
ENDBRANCH  20  21
ENDBRANCH  19  20
ENDBRANCH  18  19
ENDBRANCH  17  18
ENDBRANCH  14  17
BRANCH  12  25
HETATM   25  O1  UNL     1      32.124   4.201  48.130  1.00  0.00    -0.356 OA
HETATM   26  C13 UNL     1      32.102   3.391  46.950  1.00  0.00     0.210 C 
ENDBRANCH  12  25
BRANCH   1  27
HETATM   27  C2  UNL     1      31.133   8.468  46.001  1.00  0.00    -0.075 C 
HETATM   28  C1  UNL     1      31.944   7.465  45.289  1.00  0.00     0.044 C 
HETATM   29  C3  UNL     1      31.629   9.650  46.025  1.00  0.00     0.038 C 
ENDBRANCH   1  27
TORSDOF 8
ENDMDL
MODEL 7
REMARK VINA RESULT:      -5.9      2.084      5.030
REMARK  8 active torsions:
REMARK  status: ('A' for Active; 'I' for Inactive)
REMARK    1  A    between atoms: C2_2  and  C4_4 
REMARK    2  A    between atoms: C12_15  and  O1_16 
REMARK    3  A    between atoms: C15_19  and  O2_20 
REMARK    4  A    between atoms: O2_20  and  C16_21 
REMARK    5  A    between atoms: C16_21  and  C17_22 
REMARK    6  A    between atoms: C17_22  and  C18_23 
REMARK    7  A    between atoms: C18_23  and  N4_24 
REMARK    8  A    between atoms: N4_24  and  C19_25 
ROOT
HETATM    1  C4  UNL     1      21.156   3.370  51.235  1.00  0.00    -0.031 C 
HETATM    2  C5  UNL     1      21.909   4.210  51.964  1.00  0.00     0.010 C 
HETATM    3  C6  UNL     1      23.226   4.116  52.634  1.00  0.00     0.018 C 
HETATM    4  C7  UNL     1      24.210   3.330  52.145  1.00  0.00     0.089 C 
HETATM    5  N1  UNL     1      24.196   2.483  50.967  1.00  0.00    -0.353 N 
HETATM    6  C8  UNL     1      22.989   2.155  50.290  1.00  0.00     0.127 C 
HETATM    7  N2  UNL     1      23.008   2.270  48.977  1.00  0.00    -0.227 NA
HETATM    8  C9  UNL     1      21.881   1.956  48.188  1.00  0.00     0.235 C 
HETATM    9  N3  UNL     1      20.764   1.505  48.709  1.00  0.00    -0.245 NA
HETATM   10  C10 UNL     1      20.668   1.286  50.120  1.00  0.00     0.062 C 
HETATM   11  C11 UNL     1      19.560   0.662  50.404  1.00  0.00     0.065 C 
HETATM   12  C12 UNL     1      19.337   0.329  51.799  1.00  0.00     0.069 C 
HETATM   13  C14 UNL     1      20.349   0.683  52.567  1.00  0.00     0.043 C 
HETATM   14  C15 UNL     1      21.708   1.344  52.326  1.00  0.00     0.173 C 
HETATM   15  C20 UNL     1      21.661   1.904  50.958  1.00  0.00     0.121 C 
HETATM   16  H9  UNL     1      25.016   2.059  50.506  1.00  0.00     0.166 HD
ENDROOT
BRANCH  14  17
HETATM   17  O2  UNL     1      22.536   0.215  52.434  1.00  0.00    -0.380 OA
BRANCH  17  18
HETATM   18  C16 UNL     1      22.172  -0.733  53.325  1.00  0.00     0.170 C 
BRANCH  18  19
HETATM   19  C17 UNL     1      23.361  -0.874  54.299  1.00  0.00     0.046 C 
BRANCH  19  20
HETATM   20  C18 UNL     1      24.499   0.006  53.838  1.00  0.00     0.124 C 
BRANCH  20  21
HETATM   21  N4  UNL     1      25.326  -0.757  52.936  1.00  0.00    -0.368 N 
HETATM   22  H23 UNL     1      25.159  -1.729  52.544  1.00  0.00     0.161 HD
BRANCH  21  23
HETATM   23  C19 UNL     1      26.509  -0.051  52.565  1.00  0.00     0.348 C 
HETATM   24  O3  UNL     1      26.675   0.654  51.554  1.00  0.00    -0.284 OA
ENDBRANCH  21  23
ENDBRANCH  20  21
ENDBRANCH  19  20
ENDBRANCH  18  19
ENDBRANCH  17  18
ENDBRANCH  14  17
BRANCH  12  25
HETATM   25  O1  UNL     1      18.231  -0.284  52.353  1.00  0.00    -0.356 OA
HETATM   26  C13 UNL     1      18.357  -1.359  53.290  1.00  0.00     0.210 C 
ENDBRANCH  12  25
BRANCH   1  27
HETATM   27  C2  UNL     1      19.948   4.012  50.832  1.00  0.00    -0.075 C 
HETATM   28  C1  UNL     1      18.655   3.848  51.519  1.00  0.00     0.044 C 
HETATM   29  C3  UNL     1      19.926   4.793  49.815  1.00  0.00     0.038 C 
ENDBRANCH   1  27
TORSDOF 8
ENDMDL
MODEL 8
REMARK VINA RESULT:      -5.6      8.492     11.718
REMARK  8 active torsions:
REMARK  status: ('A' for Active; 'I' for Inactive)
REMARK    1  A    between atoms: C2_2  and  C4_4 
REMARK    2  A    between atoms: C12_15  and  O1_16 
REMARK    3  A    between atoms: C15_19  and  O2_20 
REMARK    4  A    between atoms: O2_20  and  C16_21 
REMARK    5  A    between atoms: C16_21  and  C17_22 
REMARK    6  A    between atoms: C17_22  and  C18_23 
REMARK    7  A    between atoms: C18_23  and  N4_24 
REMARK    8  A    between atoms: N4_24  and  C19_25 
ROOT
HETATM    1  C4  UNL     1      32.666   8.936  47.517  1.00  0.00    -0.031 C 
HETATM    2  C5  UNL     1      32.199  10.069  48.068  1.00  0.00     0.010 C 
HETATM    3  C6  UNL     1      30.908  10.485  48.660  1.00  0.00     0.018 C 
HETATM    4  C7  UNL     1      30.106   9.603  49.295  1.00  0.00     0.089 C 
HETATM    5  N1  UNL     1      30.313   8.184  49.517  1.00  0.00    -0.353 N 
HETATM    6  C8  UNL     1      31.319   7.452  48.826  1.00  0.00     0.127 C 
HETATM    7  N2  UNL     1      32.068   6.656  49.561  1.00  0.00    -0.227 NA
HETATM    8  C9  UNL     1      33.087   5.862  48.994  1.00  0.00     0.235 C 
HETATM    9  N3  UNL     1      33.328   5.847  47.703  1.00  0.00    -0.245 NA
HETATM   10  C10 UNL     1      32.524   6.632  46.815  1.00  0.00     0.062 C 
HETATM   11  C11 UNL     1      32.798   6.330  45.578  1.00  0.00     0.065 C 
HETATM   12  C12 UNL     1      32.030   7.016  44.553  1.00  0.00     0.069 C 
HETATM   13  C14 UNL     1      31.120   7.821  45.065  1.00  0.00     0.043 C 
HETATM   14  C15 UNL     1      30.674   8.185  46.483  1.00  0.00     0.173 C 
HETATM   15  C20 UNL     1      31.725   7.679  47.392  1.00  0.00     0.121 C 
HETATM   16  H9  UNL     1      29.792   7.583  50.174  1.00  0.00     0.166 HD
ENDROOT
BRANCH  14  17
HETATM   17  O2  UNL     1      29.482   7.446  46.548  1.00  0.00    -0.380 OA
BRANCH  17  18
HETATM   18  C16 UNL     1      28.329   8.118  46.333  1.00  0.00     0.170 C 
BRANCH  18  19
HETATM   19  C17 UNL     1      27.399   7.741  47.506  1.00  0.00     0.046 C 
BRANCH  19  20
HETATM   20  C18 UNL     1      27.831   6.416  48.089  1.00  0.00     0.124 C 
BRANCH  20  21
HETATM   21  N4  UNL     1      27.016   6.143  49.247  1.00  0.00    -0.368 N 
HETATM   22  H23 UNL     1      26.757   6.793  50.046  1.00  0.00     0.161 HD
BRANCH  21  23
HETATM   23  C19 UNL     1      26.528   4.803  49.256  1.00  0.00     0.348 C 
HETATM   24  O3  UNL     1      27.202   3.759  49.196  1.00  0.00    -0.284 OA
ENDBRANCH  21  23
ENDBRANCH  20  21
ENDBRANCH  19  20
ENDBRANCH  18  19
ENDBRANCH  17  18
ENDBRANCH  14  17
BRANCH  12  25
HETATM   25  O1  UNL     1      32.162   6.903  43.185  1.00  0.00    -0.356 OA
HETATM   26  C13 UNL     1      32.953   5.871  42.587  1.00  0.00     0.210 C 
ENDBRANCH  12  25
BRANCH   1  27
HETATM   27  C2  UNL     1      34.022   9.107  47.109  1.00  0.00    -0.075 C 
HETATM   28  C1  UNL     1      35.184   8.673  47.903  1.00  0.00     0.044 C 
HETATM   29  C3  UNL     1      34.306   9.665  45.991  1.00  0.00     0.038 C 
ENDBRANCH   1  27
TORSDOF 8
ENDMDL
MODEL 9
REMARK VINA RESULT:      -5.6     10.384     12.913
REMARK  8 active torsions:
REMARK  status: ('A' for Active; 'I' for Inactive)
REMARK    1  A    between atoms: C2_2  and  C4_4 
REMARK    2  A    between atoms: C12_15  and  O1_16 
REMARK    3  A    between atoms: C15_19  and  O2_20 
REMARK    4  A    between atoms: O2_20  and  C16_21 
REMARK    5  A    between atoms: C16_21  and  C17_22 
REMARK    6  A    between atoms: C17_22  and  C18_23 
REMARK    7  A    between atoms: C18_23  and  N4_24 
REMARK    8  A    between atoms: N4_24  and  C19_25 
ROOT
HETATM    1  C4  UNL     1      31.077   8.289  46.742  1.00  0.00    -0.031 C 
HETATM    2  C5  UNL     1      30.534   7.066  46.861  1.00  0.00     0.010 C 
HETATM    3  C6  UNL     1      30.692   5.945  47.815  1.00  0.00     0.018 C 
HETATM    4  C7  UNL     1      31.000   6.161  49.112  1.00  0.00     0.089 C 
HETATM    5  N1  UNL     1      31.225   7.421  49.795  1.00  0.00    -0.353 N 
HETATM    6  C8  UNL     1      31.418   8.638  49.085  1.00  0.00     0.127 C 
HETATM    7  N2  UNL     1      30.731   9.678  49.514  1.00  0.00    -0.227 NA
HETATM    8  C9  UNL     1      30.847  10.947  48.908  1.00  0.00     0.235 C 
HETATM    9  N3  UNL     1      31.664  11.172  47.905  1.00  0.00    -0.245 NA
HETATM   10  C10 UNL     1      32.499  10.120  47.410  1.00  0.00     0.062 C 
HETATM   11  C11 UNL     1      33.361  10.595  46.556  1.00  0.00     0.065 C 
HETATM   12  C12 UNL     1      34.311   9.652  45.994  1.00  0.00     0.069 C 
HETATM   13  C14 UNL     1      34.170   8.440  46.494  1.00  0.00     0.043 C 
HETATM   14  C15 UNL     1      33.251   7.804  47.540  1.00  0.00     0.173 C 
HETATM   15  C20 UNL     1      32.159   8.772  47.779  1.00  0.00     0.121 C 
HETATM   16  H9  UNL     1      31.256   7.569  50.815  1.00  0.00     0.166 HD
ENDROOT
BRANCH  14  17
HETATM   17  O2  UNL     1      34.152   7.710  48.612  1.00  0.00    -0.380 OA
BRANCH  17  18
HETATM   18  C16 UNL     1      35.161   6.818  48.493  1.00  0.00     0.170 C 
BRANCH  18  19
HETATM   19  C17 UNL     1      34.523   5.430  48.717  1.00  0.00     0.046 C 
BRANCH  19  20
HETATM   20  C18 UNL     1      34.874   4.520  47.563  1.00  0.00     0.124 C 
BRANCH  20  21
HETATM   21  N4  UNL     1      33.666   4.229  46.831  1.00  0.00    -0.368 N 
HETATM   22  H23 UNL     1      33.239   4.760  46.016  1.00  0.00     0.161 HD
BRANCH  21  23
HETATM   23  C19 UNL     1      33.008   3.063  47.321  1.00  0.00     0.348 C 
HETATM   24  O3  UNL     1      32.268   2.295  46.682  1.00  0.00    -0.284 OA
ENDBRANCH  21  23
ENDBRANCH  20  21
ENDBRANCH  19  20
ENDBRANCH  18  19
ENDBRANCH  17  18
ENDBRANCH  14  17
BRANCH  12  25
HETATM   25  O1  UNL     1      35.283   9.899  45.046  1.00  0.00    -0.356 OA
HETATM   26  C13 UNL     1      35.404   9.100  43.865  1.00  0.00     0.210 C 
ENDBRANCH  12  25
BRANCH   1  27
HETATM   27  C2  UNL     1      30.537   8.960  45.604  1.00  0.00    -0.075 C 
HETATM   28  C1  UNL     1      31.147   8.936  44.264  1.00  0.00     0.044 C 
HETATM   29  C3  UNL     1      29.455   9.642  45.696  1.00  0.00     0.038 C 
ENDBRANCH   1  27
TORSDOF 8
ENDMDL
