MODEL 1
REMARK VINA RESULT:      -8.3      0.000      0.000
REMARK  7 active torsions:
REMARK  status: ('A' for Active; 'I' for Inactive)
REMARK       I    between atoms: C1_2  and  N1_3 
REMARK       I    between atoms: C1_2  and  N3_12 
REMARK    1  A    between atoms: N1_3  and  C2_4 
REMARK    2  A    between atoms: C2_4  and  C3_5 
REMARK    3  A    between atoms: C3_5  and  N2_6 
REMARK    4  A    between atoms: N3_12  and  C9_13 
REMARK    5  A    between atoms: C14_20  and  N6_21 
REMARK    6  A    between atoms: N6_21  and  C15_22 
REMARK    7  A    between atoms: C17_24  and  C18_25 
ROOT
HETATM    1  C9  UNL     1      24.859   2.667  51.844  1.00  0.00     0.037 A 
HETATM    2  C10 UNL     1      23.693   1.995  51.588  1.00  0.00     0.032 A 
HETATM    3  C11 UNL     1      23.253   0.877  52.259  1.00  0.00     0.035 A 
HETATM    4  C12 UNL     1      24.040   0.368  53.286  1.00  0.00     0.072 A 
HETATM    5  N4  UNL     1      23.649  -0.719  53.969  1.00  0.00    -0.241 NA
HETATM    6  C13 UNL     1      24.386  -1.232  54.966  1.00  0.00     0.236 A 
HETATM    7  N5  UNL     1      25.545  -0.611  55.263  1.00  0.00    -0.224 NA
HETATM    8  C14 UNL     1      25.947   0.475  54.589  1.00  0.00     0.141 A 
HETATM    9  C19 UNL     1      25.218   1.025  53.565  1.00  0.00     0.041 A 
HETATM   10  C20 UNL     1      25.604   2.130  52.865  1.00  0.00     0.047 A 
ENDROOT
BRANCH   1  11
HETATM   11  N3  UNL     1      25.345   3.812  51.183  1.00  0.00    -0.309 N 
HETATM   12  C1  UNL     1      26.301   3.910  50.147  1.00  0.00     0.320 C 
HETATM   13  O1  UNL     1      26.813   2.851  49.730  1.00  0.00    -0.247 OA
HETATM   14  N1  UNL     1      26.711   5.128  49.560  1.00  0.00    -0.341 N 
HETATM   15  H1  UNL     1      26.273   6.021  49.932  1.00  0.00     0.164 HD
HETATM   16  H16 UNL     1      24.980   4.751  51.458  1.00  0.00     0.170 HD
BRANCH  14  17
HETATM   17  C2  UNL     1      27.681   5.245  48.495  1.00  0.00     0.143 C 
BRANCH  17  18
HETATM   18  C3  UNL     1      28.030   6.680  48.295  1.00  0.00     0.136 C 
BRANCH  18  19
HETATM   19  N2  UNL     1      29.443   6.929  48.087  1.00  0.00    -0.411 N 
HETATM   20  C4  UNL     1      30.274   5.862  48.522  1.00  0.00     0.117 C 
HETATM   21  C5  UNL     1      31.720   6.256  48.190  1.00  0.00     0.019 C 
HETATM   22  C6  UNL     1      32.068   7.315  49.218  1.00  0.00     0.003 C 
HETATM   23  C7  UNL     1      31.065   8.414  49.237  1.00  0.00     0.019 C 
HETATM   24  C8  UNL     1      29.870   8.250  48.375  1.00  0.00     0.117 C 
ENDBRANCH  18  19
ENDBRANCH  17  18
ENDBRANCH  14  17
ENDBRANCH   1  11
BRANCH   8  25
HETATM   25  N6  UNL     1      27.178   1.055  54.978  1.00  0.00    -0.343 N 
HETATM   26  H20 UNL     1      27.410   1.839  55.618  1.00  0.00     0.167 HD
BRANCH  25  27
HETATM   27  C15 UNL     1      28.387   0.525  54.433  1.00  0.00     0.016 A 
HETATM   28  C16 UNL     1      29.587   0.874  53.835  1.00  0.00     0.011 A 
HETATM   29  C17 UNL     1      29.384  -0.509  54.022  1.00  0.00     0.073 A 
BRANCH  29  30
HETATM   30  C18 UNL     1      28.897  -1.358  52.853  1.00  0.00     0.129 C 
HETATM   31 CL1  UNL     1      29.033  -3.059  53.348  1.00  0.00    -0.129 Cl
ENDBRANCH  29  30
ENDBRANCH  25  27
ENDBRANCH   8  25
TORSDOF 7
ENDMDL
MODEL 2
REMARK VINA RESULT:      -8.1      1.901      3.119
REMARK  7 active torsions:
REMARK  status: ('A' for Active; 'I' for Inactive)
REMARK       I    between atoms: C1_2  and  N1_3 
REMARK       I    between atoms: C1_2  and  N3_12 
REMARK    1  A    between atoms: N1_3  and  C2_4 
REMARK    2  A    between atoms: C2_4  and  C3_5 
REMARK    3  A    between atoms: C3_5  and  N2_6 
REMARK    4  A    between atoms: N3_12  and  C9_13 
REMARK    5  A    between atoms: C14_20  and  N6_21 
REMARK    6  A    between atoms: N6_21  and  C15_22 
REMARK    7  A    between atoms: C17_24  and  C18_25 
ROOT
HETATM    1  C9  UNL     1      25.389   4.469  49.859  1.00  0.00     0.037 A 
HETATM    2  C10 UNL     1      24.308   4.129  49.091  1.00  0.00     0.032 A 
HETATM    3  C11 UNL     1      23.371   3.171  49.411  1.00  0.00     0.035 A 
HETATM    4  C12 UNL     1      23.515   2.478  50.608  1.00  0.00     0.072 A 
HETATM    5  N4  UNL     1      22.625   1.537  50.961  1.00  0.00    -0.241 NA
HETATM    6  C13 UNL     1      22.737   0.854  52.110  1.00  0.00     0.236 A 
HETATM    7  N5  UNL     1      23.783   1.147  52.908  1.00  0.00    -0.224 NA
HETATM    8  C14 UNL     1      24.678   2.084  52.567  1.00  0.00     0.141 A 
HETATM    9  C19 UNL     1      24.594   2.801  51.401  1.00  0.00     0.041 A 
HETATM   10  C20 UNL     1      25.492   3.760  51.031  1.00  0.00     0.047 A 
ENDROOT
BRANCH   1  11
HETATM   11  N3  UNL     1      26.367   5.441  49.570  1.00  0.00    -0.309 N 
HETATM   12  C1  UNL     1      27.597   5.298  48.888  1.00  0.00     0.320 C 
HETATM   13  O1  UNL     1      27.896   4.163  48.466  1.00  0.00    -0.247 OA
HETATM   14  N1  UNL     1      28.503   6.358  48.659  1.00  0.00    -0.341 N 
HETATM   15  H1  UNL     1      28.237   7.316  49.032  1.00  0.00     0.164 HD
HETATM   16  H16 UNL     1      26.212   6.426  49.881  1.00  0.00     0.170 HD
BRANCH  14  17
HETATM   17  C2  UNL     1      29.759   6.232  47.957  1.00  0.00     0.143 C 
BRANCH  17  18
HETATM   18  C3  UNL     1      30.870   6.109  48.942  1.00  0.00     0.136 C 
BRANCH  18  19
HETATM   19  N2  UNL     1      31.965   5.263  48.508  1.00  0.00    -0.411 N 
HETATM   20  C4  UNL     1      33.225   5.920  48.522  1.00  0.00     0.117 C 
HETATM   21  C5  UNL     1      34.275   4.888  48.090  1.00  0.00     0.019 C 
HETATM   22  C6  UNL     1      34.058   4.733  46.597  1.00  0.00     0.003 C 
HETATM   23  C7  UNL     1      32.641   4.417  46.275  1.00  0.00     0.019 C 
HETATM   24  C8  UNL     1      31.677   4.424  47.403  1.00  0.00     0.117 C 
ENDBRANCH  18  19
ENDBRANCH  17  18
ENDBRANCH  14  17
ENDBRANCH   1  11
BRANCH   8  25
HETATM   25  N6  UNL     1      25.740   2.319  53.472  1.00  0.00    -0.343 N 
HETATM   26  H20 UNL     1      26.113   3.188  53.902  1.00  0.00     0.167 HD
BRANCH  25  27
HETATM   27  C15 UNL     1      26.503   1.206  53.938  1.00  0.00     0.016 A 
HETATM   28  C16 UNL     1      26.633   0.301  54.978  1.00  0.00     0.011 A 
HETATM   29  C17 UNL     1      27.562   0.151  53.927  1.00  0.00     0.073 A 
BRANCH  29  30
HETATM   30  C18 UNL     1      28.963   0.729  54.080  1.00  0.00     0.129 C 
HETATM   31 CL1  UNL     1      30.107  -0.523  53.547  1.00  0.00    -0.129 Cl
ENDBRANCH  29  30
ENDBRANCH  25  27
ENDBRANCH   8  25
TORSDOF 7
ENDMDL
MODEL 3
REMARK VINA RESULT:      -8.0      2.292      2.867
REMARK  7 active torsions:
REMARK  status: ('A' for Active; 'I' for Inactive)
REMARK       I    between atoms: C1_2  and  N1_3 
REMARK       I    between atoms: C1_2  and  N3_12 
REMARK    1  A    between atoms: N1_3  and  C2_4 
REMARK    2  A    between atoms: C2_4  and  C3_5 
REMARK    3  A    between atoms: C3_5  and  N2_6 
REMARK    4  A    between atoms: N3_12  and  C9_13 
REMARK    5  A    between atoms: C14_20  and  N6_21 
REMARK    6  A    between atoms: N6_21  and  C15_22 
REMARK    7  A    between atoms: C17_24  and  C18_25 
ROOT
HETATM    1  C9  UNL     1      23.220   4.858  52.217  1.00  0.00     0.037 A 
HETATM    2  C10 UNL     1      21.897   4.527  52.095  1.00  0.00     0.032 A 
HETATM    3  C11 UNL     1      21.378   3.257  52.206  1.00  0.00     0.035 A 
HETATM    4  C12 UNL     1      22.251   2.205  52.463  1.00  0.00     0.072 A 
HETATM    5  N4  UNL     1      21.789   0.950  52.581  1.00  0.00    -0.241 NA
HETATM    6  C13 UNL     1      22.605  -0.084  52.830  1.00  0.00     0.236 A 
HETATM    7  N5  UNL     1      23.921   0.181  52.961  1.00  0.00    -0.224 NA
HETATM    8  C14 UNL     1      24.395   1.429  52.846  1.00  0.00     0.141 A 
HETATM    9  C19 UNL     1      23.588   2.509  52.591  1.00  0.00     0.041 A 
HETATM   10  C20 UNL     1      24.045   3.789  52.470  1.00  0.00     0.047 A 
ENDROOT
BRANCH   1  11
HETATM   11  N3  UNL     1      23.791   6.141  52.111  1.00  0.00    -0.309 N 
HETATM   12  C1  UNL     1      24.389   6.766  50.994  1.00  0.00     0.320 C 
HETATM   13  O1  UNL     1      24.438   6.120  49.927  1.00  0.00    -0.247 OA
HETATM   14  N1  UNL     1      24.932   8.070  51.012  1.00  0.00    -0.341 N 
HETATM   15  H1  UNL     1      24.890   8.603  51.930  1.00  0.00     0.164 HD
HETATM   16  H16 UNL     1      23.800   6.763  52.950  1.00  0.00     0.170 HD
BRANCH  14  17
HETATM   17  C2  UNL     1      25.539   8.727  49.878  1.00  0.00     0.143 C 
BRANCH  17  18
HETATM   18  C3  UNL     1      26.991   8.935  50.141  1.00  0.00     0.136 C 
BRANCH  18  19
HETATM   19  N2  UNL     1      27.858   8.564  49.040  1.00  0.00    -0.411 N 
HETATM   20  C4  UNL     1      27.676   7.224  48.605  1.00  0.00     0.117 C 
HETATM   21  C5  UNL     1      28.621   7.005  47.415  1.00  0.00     0.019 C 
HETATM   22  C6  UNL     1      29.999   6.910  48.042  1.00  0.00     0.003 C 
HETATM   23  C7  UNL     1      30.288   8.076  48.917  1.00  0.00     0.019 C 
HETATM   24  C8  UNL     1      29.188   9.047  49.131  1.00  0.00     0.117 C 
ENDBRANCH  18  19
ENDBRANCH  17  18
ENDBRANCH  14  17
ENDBRANCH   1  11
BRANCH   8  25
HETATM   25  N6  UNL     1      25.790   1.605  53.001  1.00  0.00    -0.343 N 
HETATM   26  H20 UNL     1      26.460   2.281  52.585  1.00  0.00     0.167 HD
BRANCH  25  27
HETATM   27  C15 UNL     1      26.497   0.729  53.879  1.00  0.00     0.016 A 
HETATM   28  C16 UNL     1      26.492   0.184  55.152  1.00  0.00     0.011 A 
HETATM   29  C17 UNL     1      27.565  -0.216  54.328  1.00  0.00     0.073 A 
BRANCH  29  30
HETATM   30  C18 UNL     1      28.919   0.465  54.483  1.00  0.00     0.129 C 
HETATM   31 CL1  UNL     1      30.073  -0.429  53.468  1.00  0.00    -0.129 Cl
ENDBRANCH  29  30
ENDBRANCH  25  27
ENDBRANCH   8  25
TORSDOF 7
ENDMDL
MODEL 4
REMARK VINA RESULT:      -8.0      1.358      1.836
REMARK  7 active torsions:
REMARK  status: ('A' for Active; 'I' for Inactive)
REMARK       I    between atoms: C1_2  and  N1_3 
REMARK       I    between atoms: C1_2  and  N3_12 
REMARK    1  A    between atoms: N1_3  and  C2_4 
REMARK    2  A    between atoms: C2_4  and  C3_5 
REMARK    3  A    between atoms: C3_5  and  N2_6 
REMARK    4  A    between atoms: N3_12  and  C9_13 
REMARK    5  A    between atoms: C14_20  and  N6_21 
REMARK    6  A    between atoms: N6_21  and  C15_22 
REMARK    7  A    between atoms: C17_24  and  C18_25 
ROOT
HETATM    1  C9  UNL     1      23.671   2.901  51.864  1.00  0.00     0.037 A 
HETATM    2  C10 UNL     1      22.355   2.764  51.508  1.00  0.00     0.032 A 
HETATM    3  C11 UNL     1      21.527   1.735  51.896  1.00  0.00     0.035 A 
HETATM    4  C12 UNL     1      22.047   0.740  52.716  1.00  0.00     0.072 A 
HETATM    5  N4  UNL     1      21.275  -0.282  53.121  1.00  0.00    -0.241 NA
HETATM    6  C13 UNL     1      21.747  -1.255  53.913  1.00  0.00     0.236 A 
HETATM    7  N5  UNL     1      23.037  -1.172  54.296  1.00  0.00    -0.224 NA
HETATM    8  C14 UNL     1      23.818  -0.158  53.900  1.00  0.00     0.141 A 
HETATM    9  C19 UNL     1      23.368   0.853  53.090  1.00  0.00     0.041 A 
HETATM   10  C20 UNL     1      24.141   1.897  52.673  1.00  0.00     0.047 A 
ENDROOT
BRANCH   1  11
HETATM   11  N3  UNL     1      24.550   3.936  51.490  1.00  0.00    -0.309 N 
HETATM   12  C1  UNL     1      25.243   4.127  50.274  1.00  0.00     0.320 C 
HETATM   13  O1  UNL     1      25.080   3.277  49.375  1.00  0.00    -0.247 OA
HETATM   14  N1  UNL     1      26.107   5.215  50.016  1.00  0.00    -0.341 N 
HETATM   15  H1  UNL     1      26.242   5.925  50.795  1.00  0.00     0.164 HD
HETATM   16  H16 UNL     1      24.755   4.700  52.173  1.00  0.00     0.170 HD
BRANCH  14  17
HETATM   17  C2  UNL     1      26.817   5.429  48.777  1.00  0.00     0.143 C 
BRANCH  17  18
HETATM   18  C3  UNL     1      27.315   6.832  48.724  1.00  0.00     0.136 C 
BRANCH  18  19
HETATM   19  N2  UNL     1      28.656   6.973  48.190  1.00  0.00    -0.411 N 
HETATM   20  C4  UNL     1      29.431   5.786  48.292  1.00  0.00     0.117 C 
HETATM   21  C5  UNL     1      30.791   6.081  47.645  1.00  0.00     0.019 C 
HETATM   22  C6  UNL     1      31.502   6.966  48.650  1.00  0.00     0.003 C 
HETATM   23  C7  UNL     1      30.676   8.143  49.030  1.00  0.00     0.019 C 
HETATM   24  C8  UNL     1      29.298   8.201  48.487  1.00  0.00     0.117 C 
ENDBRANCH  18  19
ENDBRANCH  17  18
ENDBRANCH  14  17
ENDBRANCH   1  11
BRANCH   8  25
HETATM   25  N6  UNL     1      25.158  -0.160  54.357  1.00  0.00    -0.343 N 
HETATM   26  H20 UNL     1      25.589   0.114  55.261  1.00  0.00     0.167 HD
BRANCH  25  27
HETATM   27  C15 UNL     1      26.183  -0.608  53.470  1.00  0.00     0.016 A 
HETATM   28  C16 UNL     1      26.571  -1.660  52.656  1.00  0.00     0.011 A 
HETATM   29  C17 UNL     1      27.459  -0.564  52.693  1.00  0.00     0.073 A 
BRANCH  29  30
HETATM   30  C18 UNL     1      28.690  -0.630  53.589  1.00  0.00     0.129 C 
HETATM   31 CL1  UNL     1      29.451  -2.213  53.316  1.00  0.00    -0.129 Cl
ENDBRANCH  29  30
ENDBRANCH  25  27
ENDBRANCH   8  25
TORSDOF 7
ENDMDL
MODEL 5
REMARK VINA RESULT:      -7.8      2.072      2.923
REMARK  7 active torsions:
REMARK  status: ('A' for Active; 'I' for Inactive)
REMARK       I    between atoms: C1_2  and  N1_3 
REMARK       I    between atoms: C1_2  and  N3_12 
REMARK    1  A    between atoms: N1_3  and  C2_4 
REMARK    2  A    between atoms: C2_4  and  C3_5 
REMARK    3  A    between atoms: C3_5  and  N2_6 
REMARK    4  A    between atoms: N3_12  and  C9_13 
REMARK    5  A    between atoms: C14_20  and  N6_21 
REMARK    6  A    between atoms: N6_21  and  C15_22 
REMARK    7  A    between atoms: C17_24  and  C18_25 
ROOT
HETATM    1  C9  UNL     1      24.633   3.485  49.997  1.00  0.00     0.037 A 
HETATM    2  C10 UNL     1      23.462   3.291  49.314  1.00  0.00     0.032 A 
HETATM    3  C11 UNL     1      22.490   2.372  49.640  1.00  0.00     0.035 A 
HETATM    4  C12 UNL     1      22.691   1.562  50.751  1.00  0.00     0.072 A 
HETATM    5  N4  UNL     1      21.769   0.653  51.107  1.00  0.00    -0.241 NA
HETATM    6  C13 UNL     1      21.934  -0.142  52.175  1.00  0.00     0.236 A 
HETATM    7  N5  UNL     1      23.069   0.004  52.888  1.00  0.00    -0.224 NA
HETATM    8  C14 UNL     1      23.997   0.907  52.543  1.00  0.00     0.141 A 
HETATM    9  C19 UNL     1      23.860   1.736  51.458  1.00  0.00     0.041 A 
HETATM   10  C20 UNL     1      24.789   2.663  51.087  1.00  0.00     0.047 A 
ENDROOT
BRANCH   1  11
HETATM   11  N3  UNL     1      25.650   4.412  49.698  1.00  0.00    -0.309 N 
HETATM   12  C1  UNL     1      25.676   5.810  49.902  1.00  0.00     0.320 C 
HETATM   13  O1  UNL     1      24.670   6.338  50.419  1.00  0.00    -0.247 OA
HETATM   14  N1  UNL     1      26.764   6.641  49.556  1.00  0.00    -0.341 N 
HETATM   15  H1  UNL     1      27.609   6.177  49.109  1.00  0.00     0.164 HD
HETATM   16  H16 UNL     1      26.536   4.071  49.262  1.00  0.00     0.170 HD
BRANCH  14  17
HETATM   17  C2  UNL     1      26.810   8.070  49.764  1.00  0.00     0.143 C 
BRANCH  17  18
HETATM   18  C3  UNL     1      27.544   8.714  48.639  1.00  0.00     0.136 C 
BRANCH  18  19
HETATM   19  N2  UNL     1      28.853   9.226  48.992  1.00  0.00    -0.411 N 
HETATM   20  C4  UNL     1      29.052  10.580  48.609  1.00  0.00     0.117 C 
HETATM   21  C5  UNL     1      30.451  10.983  49.093  1.00  0.00     0.019 C 
HETATM   22  C6  UNL     1      31.397  10.282  48.137  1.00  0.00     0.003 C 
HETATM   23  C7  UNL     1      31.115   8.824  48.053  1.00  0.00     0.019 C 
HETATM   24  C8  UNL     1      29.928   8.325  48.789  1.00  0.00     0.117 C 
ENDBRANCH  18  19
ENDBRANCH  17  18
ENDBRANCH  14  17
ENDBRANCH   1  11
BRANCH   8  25
HETATM   25  N6  UNL     1      25.153   0.985  53.356  1.00  0.00    -0.343 N 
HETATM   26  H20 UNL     1      25.409   1.602  54.151  1.00  0.00     0.167 HD
BRANCH  25  27
HETATM   27  C15 UNL     1      26.228   0.080  53.106  1.00  0.00     0.016 A 
HETATM   28  C16 UNL     1      26.536  -1.254  52.892  1.00  0.00     0.011 A 
HETATM   29  C17 UNL     1      27.635  -0.370  52.876  1.00  0.00     0.073 A 
BRANCH  29  30
HETATM   30  C18 UNL     1      28.502  -0.234  54.121  1.00  0.00     0.129 C 
HETATM   31 CL1  UNL     1      30.052  -1.029  53.770  1.00  0.00    -0.129 Cl
ENDBRANCH  29  30
ENDBRANCH  25  27
ENDBRANCH   8  25
TORSDOF 7
ENDMDL
MODEL 6
REMARK VINA RESULT:      -7.8      2.520      3.588
REMARK  7 active torsions:
REMARK  status: ('A' for Active; 'I' for Inactive)
REMARK       I    between atoms: C1_2  and  N1_3 
REMARK       I    between atoms: C1_2  and  N3_12 
REMARK    1  A    between atoms: N1_3  and  C2_4 
REMARK    2  A    between atoms: C2_4  and  C3_5 
REMARK    3  A    between atoms: C3_5  and  N2_6 
REMARK    4  A    between atoms: N3_12  and  C9_13 
REMARK    5  A    between atoms: C14_20  and  N6_21 
REMARK    6  A    between atoms: N6_21  and  C15_22 
REMARK    7  A    between atoms: C17_24  and  C18_25 
ROOT
HETATM    1  C9  UNL     1      21.976   1.670  50.851  1.00  0.00     0.037 A 
HETATM    2  C10 UNL     1      20.798   0.983  50.986  1.00  0.00     0.032 A 
HETATM    3  C11 UNL     1      20.538   0.024  51.938  1.00  0.00     0.035 A 
HETATM    4  C12 UNL     1      21.539  -0.292  52.850  1.00  0.00     0.072 A 
HETATM    5  N4  UNL     1      21.329  -1.220  53.797  1.00  0.00    -0.241 NA
HETATM    6  C13 UNL     1      22.274  -1.545  54.692  1.00  0.00     0.236 A 
HETATM    7  N5  UNL     1      23.455  -0.900  54.609  1.00  0.00    -0.224 NA
HETATM    8  C14 UNL     1      23.677   0.028  53.668  1.00  0.00     0.141 A 
HETATM    9  C19 UNL     1      22.733   0.384  52.739  1.00  0.00     0.041 A 
HETATM   10  C20 UNL     1      22.935   1.326  51.772  1.00  0.00     0.047 A 
ENDROOT
BRANCH   1  11
HETATM   11  N3  UNL     1      22.281   2.657  49.894  1.00  0.00    -0.309 N 
HETATM   12  C1  UNL     1      22.237   4.064  50.014  1.00  0.00     0.320 C 
HETATM   13  O1  UNL     1      21.879   4.541  51.110  1.00  0.00    -0.247 OA
HETATM   14  N1  UNL     1      22.569   4.959  48.972  1.00  0.00    -0.341 N 
HETATM   15  H1  UNL     1      22.863   4.537  48.042  1.00  0.00     0.164 HD
HETATM   16  H16 UNL     1      22.591   2.362  48.941  1.00  0.00     0.170 HD
BRANCH  14  17
HETATM   17  C2  UNL     1      22.537   6.399  49.079  1.00  0.00     0.143 C 
BRANCH  17  18
HETATM   18  C3  UNL     1      23.860   6.893  49.551  1.00  0.00     0.136 C 
BRANCH  18  19
HETATM   19  N2  UNL     1      24.994   6.352  48.827  1.00  0.00    -0.411 N 
HETATM   20  C4  UNL     1      25.916   5.661  49.659  1.00  0.00     0.117 C 
HETATM   21  C5  UNL     1      27.021   5.112  48.746  1.00  0.00     0.019 C 
HETATM   22  C6  UNL     1      27.842   6.331  48.373  1.00  0.00     0.003 C 
HETATM   23  C7  UNL     1      26.994   7.417  47.813  1.00  0.00     0.019 C 
HETATM   24  C8  UNL     1      25.527   7.197  47.822  1.00  0.00     0.117 C 
ENDBRANCH  18  19
ENDBRANCH  17  18
ENDBRANCH  14  17
ENDBRANCH   1  11
BRANCH   8  25
HETATM   25  N6  UNL     1      24.949   0.649  53.665  1.00  0.00    -0.343 N 
HETATM   26  H20 UNL     1      25.268   1.589  53.968  1.00  0.00     0.167 HD
BRANCH  25  27
HETATM   27  C15 UNL     1      26.067  -0.083  53.163  1.00  0.00     0.016 A 
HETATM   28  C16 UNL     1      26.469  -1.325  52.700  1.00  0.00     0.011 A 
HETATM   29  C17 UNL     1      27.474  -0.336  52.727  1.00  0.00     0.073 A 
BRANCH  29  30
HETATM   30  C18 UNL     1      28.460  -0.304  53.888  1.00  0.00     0.129 C 
HETATM   31 CL1  UNL     1      29.741  -1.479  53.520  1.00  0.00    -0.129 Cl
ENDBRANCH  29  30
ENDBRANCH  25  27
ENDBRANCH   8  25
TORSDOF 7
ENDMDL
MODEL 7
REMARK VINA RESULT:      -7.7      5.700      9.902
REMARK  7 active torsions:
REMARK  status: ('A' for Active; 'I' for Inactive)
REMARK       I    between atoms: C1_2  and  N1_3 
REMARK       I    between atoms: C1_2  and  N3_12 
REMARK    1  A    between atoms: N1_3  and  C2_4 
REMARK    2  A    between atoms: C2_4  and  C3_5 
REMARK    3  A    between atoms: C3_5  and  N2_6 
REMARK    4  A    between atoms: N3_12  and  C9_13 
REMARK    5  A    between atoms: C14_20  and  N6_21 
REMARK    6  A    between atoms: N6_21  and  C15_22 
REMARK    7  A    between atoms: C17_24  and  C18_25 
ROOT
HETATM    1  C9  UNL     1      21.719   0.716  52.565  1.00  0.00     0.037 A 
HETATM    2  C10 UNL     1      21.988  -0.414  53.291  1.00  0.00     0.032 A 
HETATM    3  C11 UNL     1      23.202  -0.727  53.860  1.00  0.00     0.035 A 
HETATM    4  C12 UNL     1      24.259   0.163  53.698  1.00  0.00     0.072 A 
HETATM    5  N4  UNL     1      25.460  -0.100  54.237  1.00  0.00    -0.241 NA
HETATM    6  C13 UNL     1      26.496   0.739  54.099  1.00  0.00     0.236 A 
HETATM    7  N5  UNL     1      26.290   1.870  53.394  1.00  0.00    -0.224 NA
HETATM    8  C14 UNL     1      25.096   2.144  52.851  1.00  0.00     0.141 A 
HETATM    9  C19 UNL     1      24.015   1.308  52.973  1.00  0.00     0.041 A 
HETATM   10  C20 UNL     1      22.790   1.565  52.430  1.00  0.00     0.047 A 
ENDROOT
BRANCH   1  11
HETATM   11  N3  UNL     1      20.494   1.073  51.968  1.00  0.00    -0.309 N 
HETATM   12  C1  UNL     1      19.708   2.231  52.162  1.00  0.00     0.320 C 
HETATM   13  O1  UNL     1      20.125   3.085  52.970  1.00  0.00    -0.247 OA
HETATM   14  N1  UNL     1      18.485   2.478  51.499  1.00  0.00    -0.341 N 
HETATM   15  H1  UNL     1      18.140   1.737  50.820  1.00  0.00     0.164 HD
HETATM   16  H16 UNL     1      20.059   0.424  51.275  1.00  0.00     0.170 HD
BRANCH  14  17
HETATM   17  C2  UNL     1      17.673   3.659  51.679  1.00  0.00     0.143 C 
BRANCH  17  18
HETATM   18  C3  UNL     1      16.270   3.366  51.273  1.00  0.00     0.136 C 
BRANCH  18  19
HETATM   19  N2  UNL     1      15.383   3.041  52.372  1.00  0.00    -0.411 N 
HETATM   20  C4  UNL     1      14.343   2.143  52.011  1.00  0.00     0.117 C 
HETATM   21  C5  UNL     1      13.531   1.862  53.283  1.00  0.00     0.019 C 
HETATM   22  C6  UNL     1      12.735   3.133  53.510  1.00  0.00     0.003 C 
HETATM   23  C7  UNL     1      13.610   4.335  53.530  1.00  0.00     0.019 C 
HETATM   24  C8  UNL     1      15.045   4.129  53.216  1.00  0.00     0.117 C 
ENDBRANCH  18  19
ENDBRANCH  17  18
ENDBRANCH  14  17
ENDBRANCH   1  11
BRANCH   8  25
HETATM   25  N6  UNL     1      24.980   3.357  52.131  1.00  0.00    -0.343 N 
HETATM   26  H20 UNL     1      24.554   4.274  52.369  1.00  0.00     0.167 HD
BRANCH  25  27
HETATM   27  C15 UNL     1      25.523   3.425  50.812  1.00  0.00     0.016 A 
HETATM   28  C16 UNL     1      26.514   2.918  49.987  1.00  0.00     0.011 A 
HETATM   29  C17 UNL     1      25.663   3.875  49.394  1.00  0.00     0.073 A 
BRANCH  29  30
HETATM   30  C18 UNL     1      26.128   5.321  49.283  1.00  0.00     0.129 C 
HETATM   31 CL1  UNL     1      27.720   5.301  48.492  1.00  0.00    -0.129 Cl
ENDBRANCH  29  30
ENDBRANCH  25  27
ENDBRANCH   8  25
TORSDOF 7
ENDMDL
MODEL 8
REMARK VINA RESULT:      -7.6      2.877      5.551
REMARK  7 active torsions:
REMARK  status: ('A' for Active; 'I' for Inactive)
REMARK       I    between atoms: C1_2  and  N1_3 
REMARK       I    between atoms: C1_2  and  N3_12 
REMARK    1  A    between atoms: N1_3  and  C2_4 
REMARK    2  A    between atoms: C2_4  and  C3_5 
REMARK    3  A    between atoms: C3_5  and  N2_6 
REMARK    4  A    between atoms: N3_12  and  C9_13 
REMARK    5  A    between atoms: C14_20  and  N6_21 
REMARK    6  A    between atoms: N6_21  and  C15_22 
REMARK    7  A    between atoms: C17_24  and  C18_25 
ROOT
HETATM    1  C9  UNL     1      26.474   6.666  48.923  1.00  0.00     0.037 A 
HETATM    2  C10 UNL     1      25.542   7.302  48.147  1.00  0.00     0.032 A 
HETATM    3  C11 UNL     1      24.288   6.819  47.848  1.00  0.00     0.035 A 
HETATM    4  C12 UNL     1      23.914   5.583  48.364  1.00  0.00     0.072 A 
HETATM    5  N4  UNL     1      22.700   5.074  48.100  1.00  0.00    -0.241 NA
HETATM    6  C13 UNL     1      22.310   3.886  48.585  1.00  0.00     0.236 A 
HETATM    7  N5  UNL     1      23.187   3.213  49.358  1.00  0.00    -0.224 NA
HETATM    8  C14 UNL     1      24.401   3.710  49.629  1.00  0.00     0.141 A 
HETATM    9  C19 UNL     1      24.832   4.921  49.149  1.00  0.00     0.041 A 
HETATM   10  C20 UNL     1      26.062   5.450  49.412  1.00  0.00     0.047 A 
ENDROOT
BRANCH   1  11
HETATM   11  N3  UNL     1      27.764   7.125  49.253  1.00  0.00    -0.309 N 
HETATM   12  C1  UNL     1      28.972   6.994  48.533  1.00  0.00     0.320 C 
HETATM   13  O1  UNL     1      28.933   6.391  47.440  1.00  0.00    -0.247 OA
HETATM   14  N1  UNL     1      30.216   7.501  48.972  1.00  0.00    -0.341 N 
HETATM   15  H1  UNL     1      30.234   8.004  49.908  1.00  0.00     0.164 HD
HETATM   16  H16 UNL     1      27.905   7.642  50.149  1.00  0.00     0.170 HD
BRANCH  14  17
HETATM   17  C2  UNL     1      31.458   7.384  48.245  1.00  0.00     0.143 C 
BRANCH  17  18
HETATM   18  C3  UNL     1      32.234   6.224  48.767  1.00  0.00     0.136 C 
BRANCH  18  19
HETATM   19  N2  UNL     1      32.715   5.316  47.745  1.00  0.00    -0.411 N 
HETATM   20  C4  UNL     1      31.776   4.306  47.400  1.00  0.00     0.117 C 
HETATM   21  C5  UNL     1      32.409   3.467  46.282  1.00  0.00     0.019 C 
HETATM   22  C6  UNL     1      33.465   2.636  46.987  1.00  0.00     0.003 C 
HETATM   23  C7  UNL     1      34.388   3.483  47.789  1.00  0.00     0.019 C 
HETATM   24  C8  UNL     1      34.073   4.930  47.871  1.00  0.00     0.117 C 
ENDBRANCH  18  19
ENDBRANCH  17  18
ENDBRANCH  14  17
ENDBRANCH   1  11
BRANCH   8  25
HETATM   25  N6  UNL     1      25.248   2.929  50.450  1.00  0.00    -0.343 N 
HETATM   26  H20 UNL     1      26.205   2.549  50.308  1.00  0.00     0.167 HD
BRANCH  25  27
HETATM   27  C15 UNL     1      24.780   2.538  51.741  1.00  0.00     0.016 A 
HETATM   28  C16 UNL     1      24.257   3.019  52.930  1.00  0.00     0.011 A 
HETATM   29  C17 UNL     1      24.435   1.621  52.870  1.00  0.00     0.073 A 
BRANCH  29  30
HETATM   30  C18 UNL     1      25.667   0.996  53.513  1.00  0.00     0.129 C 
HETATM   31 CL1  UNL     1      25.476  -0.767  53.407  1.00  0.00    -0.129 Cl
ENDBRANCH  29  30
ENDBRANCH  25  27
ENDBRANCH   8  25
TORSDOF 7
ENDMDL
MODEL 9
REMARK VINA RESULT:      -7.6      3.600      5.982
REMARK  7 active torsions:
REMARK  status: ('A' for Active; 'I' for Inactive)
REMARK       I    between atoms: C1_2  and  N1_3 
REMARK       I    between atoms: C1_2  and  N3_12 
REMARK    1  A    between atoms: N1_3  and  C2_4 
REMARK    2  A    between atoms: C2_4  and  C3_5 
REMARK    3  A    between atoms: C3_5  and  N2_6 
REMARK    4  A    between atoms: N3_12  and  C9_13 
REMARK    5  A    between atoms: C14_20  and  N6_21 
REMARK    6  A    between atoms: N6_21  and  C15_22 
REMARK    7  A    between atoms: C17_24  and  C18_25 
ROOT
HETATM    1  C9  UNL     1      24.897   1.630  52.792  1.00  0.00     0.037 A 
HETATM    2  C10 UNL     1      25.361   0.529  53.462  1.00  0.00     0.032 A 
HETATM    3  C11 UNL     1      24.577  -0.469  53.997  1.00  0.00     0.035 A 
HETATM    4  C12 UNL     1      23.197  -0.373  53.857  1.00  0.00     0.072 A 
HETATM    5  N4  UNL     1      22.394  -1.323  54.361  1.00  0.00    -0.241 NA
HETATM    6  C13 UNL     1      21.059  -1.259  54.241  1.00  0.00     0.236 A 
HETATM    7  N5  UNL     1      20.545  -0.197  53.589  1.00  0.00    -0.224 NA
HETATM    8  C14 UNL     1      21.336   0.759  53.082  1.00  0.00     0.141 A 
HETATM    9  C19 UNL     1      22.703   0.725  53.186  1.00  0.00     0.041 A 
HETATM   10  C20 UNL     1      23.530   1.684  52.678  1.00  0.00     0.047 A 
ENDROOT
BRANCH   1  11
HETATM   11  N3  UNL     1      25.664   2.670  52.231  1.00  0.00    -0.309 N 
HETATM   12  C1  UNL     1      25.648   3.184  50.915  1.00  0.00     0.320 C 
HETATM   13  O1  UNL     1      24.854   2.668  50.101  1.00  0.00    -0.247 OA
HETATM   14  N1  UNL     1      26.473   4.240  50.467  1.00  0.00    -0.341 N 
HETATM   15  H1  UNL     1      27.149   4.662  51.169  1.00  0.00     0.164 HD
HETATM   16  H16 UNL     1      26.359   3.168  52.830  1.00  0.00     0.170 HD
BRANCH  14  17
HETATM   17  C2  UNL     1      26.465   4.782  49.128  1.00  0.00     0.143 C 
BRANCH  17  18
HETATM   18  C3  UNL     1      26.286   6.260  49.191  1.00  0.00     0.136 C 
BRANCH  18  19
HETATM   19  N2  UNL     1      24.908   6.693  49.315  1.00  0.00    -0.411 N 
HETATM   20  C4  UNL     1      24.583   7.175  50.612  1.00  0.00     0.117 C 
HETATM   21  C5  UNL     1      23.120   7.636  50.565  1.00  0.00     0.019 C 
HETATM   22  C6  UNL     1      22.320   6.348  50.538  1.00  0.00     0.003 C 
HETATM   23  C7  UNL     1      22.768   5.443  49.446  1.00  0.00     0.019 C 
HETATM   24  C8  UNL     1      23.956   5.867  48.666  1.00  0.00     0.117 C 
ENDBRANCH  18  19
ENDBRANCH  17  18
ENDBRANCH  14  17
ENDBRANCH   1  11
BRANCH   8  25
HETATM   25  N6  UNL     1      20.701   1.833  52.414  1.00  0.00    -0.343 N 
HETATM   26  H20 UNL     1      20.466   2.800  52.711  1.00  0.00     0.167 HD
BRANCH  25  27
HETATM   27  C15 UNL     1      20.263   1.640  51.069  1.00  0.00     0.016 A 
HETATM   28  C16 UNL     1      19.286   1.043  50.289  1.00  0.00     0.011 A 
HETATM   29  C17 UNL     1      20.274   1.757  49.579  1.00  0.00     0.073 A 
BRANCH  29  30
HETATM   30  C18 UNL     1      21.431   0.997  48.942  1.00  0.00     0.129 C 
HETATM   31 CL1  UNL     1      22.301   2.145  47.900  1.00  0.00    -0.129 Cl
ENDBRANCH  29  30
ENDBRANCH  25  27
ENDBRANCH   8  25
TORSDOF 7
ENDMDL
