MODEL 1
REMARK VINA RESULT:      -8.9      0.000      0.000
REMARK  4 active torsions:
REMARK  status: ('A' for Active; 'I' for Inactive)
REMARK    1  A    between atoms: N1_1  and  C1_2 
REMARK    2  A    between atoms: C4_5  and  C5_6 
REMARK    3  A    between atoms: C10_14  and  N5_15 
REMARK    4  A    between atoms: N5_15  and  C11_16 
ROOT
HETATM    1  C5  UNL     1      25.326   0.005  53.326  1.00  0.00     0.130 A 
HETATM    2  N2  UNL     1      26.113  -1.046  53.607  1.00  0.00    -0.058 NA
HETATM    3  C6  UNL     1      27.403  -0.698  53.588  1.00  0.00     0.735 A 
HETATM    4  N3  UNL     1      28.467  -1.487  53.823  1.00  0.00    -0.074 NA
HETATM    5  C7  UNL     1      29.702  -0.962  53.763  1.00  0.00     0.138 A 
HETATM    6  C8  UNL     1      29.802   0.380  53.459  1.00  0.00     0.038 A 
HETATM    7  C9  UNL     1      28.674   1.102  53.237  1.00  0.00     0.118 A 
HETATM    8  N4  UNL     1      27.419   0.626  53.283  1.00  0.00    -0.137 N 
HETATM    9  C10 UNL     1      26.154   1.054  53.125  1.00  0.00     0.155 A 
ENDROOT
BRANCH   1  10
HETATM   10  C4  UNL     1      23.886  -0.166  53.321  1.00  0.00    -0.006 C 
HETATM   11  C3  UNL     1      23.136   0.323  52.170  1.00  0.00     0.013 C 
HETATM   12  C2  UNL     1      21.996   0.988  52.054  1.00  0.00     0.032 C 
HETATM   13  C1  UNL     1      20.947   1.552  52.965  1.00  0.00     0.361 C 
HETATM   14  N6  UNL     1      20.466   0.612  53.919  1.00  0.00    -0.267 NA
HETATM   15  C19 UNL     1      21.001  -0.366  54.549  1.00  0.00     0.090 C 
HETATM   16  C18 UNL     1      22.109  -1.286  54.933  1.00  0.00     0.074 C 
HETATM   17  C17 UNL     1      23.423  -0.812  54.414  1.00  0.00    -0.008 C 
BRANCH  13  18
HETATM   18  N1  UNL     1      19.806   1.827  52.077  1.00  0.00     0.106 N 
HETATM   19  H1  UNL     1      19.336   2.718  52.304  1.00  0.00     0.316 HD
HETATM   20  H2  UNL     1      20.079   1.701  51.084  1.00  0.00     0.316 HD
ENDBRANCH  13  18
ENDBRANCH   1  10
BRANCH   9  21
HETATM   21  N5  UNL     1      25.793   2.381  52.878  1.00  0.00    -0.369 N 
HETATM   22  H9  UNL     1      25.468   2.965  53.672  1.00  0.00     0.161 HD
BRANCH  21  23
HETATM   23  C11 UNL     1      25.771   3.253  51.754  1.00  0.00     0.083 C 
HETATM   24  C12 UNL     1      24.362   3.665  51.292  1.00  0.00     0.025 C 
HETATM   25  C13 UNL     1      24.538   4.817  50.363  1.00  0.00     0.002 C 
HETATM   26  C14 UNL     1      25.542   4.658  49.285  1.00  0.00     0.000 C 
HETATM   27  C15 UNL     1      26.681   3.724  49.565  1.00  0.00     0.002 C 
HETATM   28  C16 UNL     1      26.353   2.617  50.502  1.00  0.00     0.025 C 
ENDBRANCH  21  23
ENDBRANCH   9  21
TORSDOF 4
ENDMDL
MODEL 2
REMARK VINA RESULT:      -8.7      1.802      6.446
REMARK  4 active torsions:
REMARK  status: ('A' for Active; 'I' for Inactive)
REMARK    1  A    between atoms: N1_1  and  C1_2 
REMARK    2  A    between atoms: C4_5  and  C5_6 
REMARK    3  A    between atoms: C10_14  and  N5_15 
REMARK    4  A    between atoms: N5_15  and  C11_16 
ROOT
HETATM    1  C5  UNL     1      25.908   2.790  51.422  1.00  0.00     0.130 A 
HETATM    2  N2  UNL     1      26.292   3.571  50.401  1.00  0.00    -0.058 NA
HETATM    3  C6  UNL     1      25.314   4.409  50.044  1.00  0.00     0.735 A 
HETATM    4  N3  UNL     1      25.344   5.332  49.066  1.00  0.00    -0.074 NA
HETATM    5  C7  UNL     1      24.261   6.096  48.847  1.00  0.00     0.138 A 
HETATM    6  C8  UNL     1      23.165   5.881  49.657  1.00  0.00     0.038 A 
HETATM    7  C9  UNL     1      23.223   4.927  50.622  1.00  0.00     0.118 A 
HETATM    8  N4  UNL     1      24.279   4.138  50.880  1.00  0.00    -0.137 N 
HETATM    9  C10 UNL     1      24.641   3.152  51.719  1.00  0.00     0.155 A 
ENDROOT
BRANCH   1  10
HETATM   10  C4  UNL     1      26.842   1.825  51.969  1.00  0.00    -0.006 C 
HETATM   11  C3  UNL     1      26.851   0.477  51.413  1.00  0.00     0.013 C 
HETATM   12  C2  UNL     1      26.921  -0.725  51.963  1.00  0.00     0.032 C 
HETATM   13  C1  UNL     1      27.022  -1.305  53.342  1.00  0.00     0.361 C 
HETATM   14  N6  UNL     1      28.068  -0.732  54.118  1.00  0.00    -0.267 NA
HETATM   15  C19 UNL     1      28.588   0.435  54.181  1.00  0.00     0.090 C 
HETATM   16  C18 UNL     1      28.747   1.870  53.808  1.00  0.00     0.074 C 
HETATM   17  C17 UNL     1      27.632   2.340  52.939  1.00  0.00    -0.008 C 
BRANCH  13  18
HETATM   18  N1  UNL     1      27.422  -2.704  53.118  1.00  0.00     0.106 N 
HETATM   19  H1  UNL     1      28.040  -3.061  53.864  1.00  0.00     0.316 HD
HETATM   20  H2  UNL     1      26.594  -3.290  52.898  1.00  0.00     0.316 HD
ENDBRANCH  13  18
ENDBRANCH   1  10
BRANCH   9  21
HETATM   21  N5  UNL     1      23.846   2.669  52.762  1.00  0.00    -0.369 N 
HETATM   22  H9  UNL     1      23.741   3.248  53.618  1.00  0.00     0.161 HD
BRANCH  21  23
HETATM   23  C11 UNL     1      23.038   1.523  52.999  1.00  0.00     0.083 C 
HETATM   24  C12 UNL     1      23.793   0.319  53.590  1.00  0.00     0.025 C 
HETATM   25  C13 UNL     1      22.758  -0.633  54.084  1.00  0.00     0.002 C 
HETATM   26  C14 UNL     1      21.658  -0.966  53.149  1.00  0.00     0.000 C 
HETATM   27  C15 UNL     1      21.310   0.074  52.127  1.00  0.00     0.002 C 
HETATM   28  C16 UNL     1      22.447   0.944  51.723  1.00  0.00     0.025 C 
ENDBRANCH  21  23
ENDBRANCH   9  21
TORSDOF 4
ENDMDL
MODEL 3
REMARK VINA RESULT:      -8.7      2.221      5.664
REMARK  4 active torsions:
REMARK  status: ('A' for Active; 'I' for Inactive)
REMARK    1  A    between atoms: N1_1  and  C1_2 
REMARK    2  A    between atoms: C4_5  and  C5_6 
REMARK    3  A    between atoms: C10_14  and  N5_15 
REMARK    4  A    between atoms: N5_15  and  C11_16 
ROOT
HETATM    1  C5  UNL     1      26.202   2.403  51.392  1.00  0.00     0.130 A 
HETATM    2  N2  UNL     1      27.459   2.578  51.830  1.00  0.00    -0.058 NA
HETATM    3  C6  UNL     1      27.728   1.764  52.855  1.00  0.00     0.735 A 
HETATM    4  N3  UNL     1      28.882   1.663  53.539  1.00  0.00    -0.074 NA
HETATM    5  C7  UNL     1      28.975   0.780  54.548  1.00  0.00     0.138 A 
HETATM    6  C8  UNL     1      27.859   0.017  54.821  1.00  0.00     0.038 A 
HETATM    7  C9  UNL     1      26.735   0.184  54.078  1.00  0.00     0.118 A 
HETATM    8  N4  UNL     1      26.590   1.051  53.063  1.00  0.00    -0.137 N 
HETATM    9  C10 UNL     1      25.662   1.440  52.172  1.00  0.00     0.155 A 
ENDROOT
BRANCH   1  10
HETATM   10  C4  UNL     1      25.727   3.182  50.266  1.00  0.00    -0.006 C 
HETATM   11  C3  UNL     1      26.707   3.898  49.457  1.00  0.00     0.013 C 
HETATM   12  C2  UNL     1      26.729   5.115  48.935  1.00  0.00     0.032 C 
HETATM   13  C1  UNL     1      25.834   6.317  48.894  1.00  0.00     0.361 C 
HETATM   14  N6  UNL     1      24.503   6.013  48.491  1.00  0.00    -0.267 NA
HETATM   15  C19 UNL     1      23.737   5.000  48.651  1.00  0.00     0.090 C 
HETATM   16  C18 UNL     1      23.374   3.640  49.140  1.00  0.00     0.074 C 
HETATM   17  C17 UNL     1      24.388   3.109  50.094  1.00  0.00    -0.008 C 
BRANCH  13  18
HETATM   18  N1  UNL     1      26.390   7.146  47.813  1.00  0.00     0.106 N 
HETATM   19  H1  UNL     1      25.894   8.046  47.711  1.00  0.00     0.316 HD
HETATM   20  H2  UNL     1      27.423   7.207  47.895  1.00  0.00     0.316 HD
ENDBRANCH  13  18
ENDBRANCH   1  10
BRANCH   9  21
HETATM   21  N5  UNL     1      24.394   0.866  52.048  1.00  0.00    -0.369 N 
HETATM   22  H9  UNL     1      24.161   0.357  51.174  1.00  0.00     0.161 HD
BRANCH  21  23
HETATM   23  C11 UNL     1      23.235   0.738  52.862  1.00  0.00     0.083 C 
HETATM   24  C12 UNL     1      23.027  -0.664  53.462  1.00  0.00     0.025 C 
HETATM   25  C13 UNL     1      21.999  -0.522  54.532  1.00  0.00     0.002 C 
HETATM   26  C14 UNL     1      20.760   0.209  54.174  1.00  0.00     0.000 C 
HETATM   27  C15 UNL     1      20.881   1.240  53.092  1.00  0.00     0.002 C 
HETATM   28  C16 UNL     1      21.943   0.958  52.090  1.00  0.00     0.025 C 
ENDBRANCH  21  23
ENDBRANCH   9  21
TORSDOF 4
ENDMDL
MODEL 4
REMARK VINA RESULT:      -8.7      1.565      5.842
REMARK  4 active torsions:
REMARK  status: ('A' for Active; 'I' for Inactive)
REMARK    1  A    between atoms: N1_1  and  C1_2 
REMARK    2  A    between atoms: C4_5  and  C5_6 
REMARK    3  A    between atoms: C10_14  and  N5_15 
REMARK    4  A    between atoms: N5_15  and  C11_16 
ROOT
HETATM    1  C5  UNL     1      24.622   0.246  53.113  1.00  0.00     0.130 A 
HETATM    2  N2  UNL     1      24.145  -0.590  54.048  1.00  0.00    -0.058 NA
HETATM    3  C6  UNL     1      22.816  -0.700  53.961  1.00  0.00     0.735 A 
HETATM    4  N3  UNL     1      22.005  -1.448  54.730  1.00  0.00    -0.074 NA
HETATM    5  C7  UNL     1      20.681  -1.439  54.495  1.00  0.00     0.138 A 
HETATM    6  C8  UNL     1      20.231  -0.647  53.459  1.00  0.00     0.038 A 
HETATM    7  C9  UNL     1      21.122   0.076  52.733  1.00  0.00     0.118 A 
HETATM    8  N4  UNL     1      22.451   0.102  52.927  1.00  0.00    -0.137 N 
HETATM    9  C10 UNL     1      23.551   0.678  52.410  1.00  0.00     0.155 A 
ENDROOT
BRANCH   1  10
HETATM   10  C4  UNL     1      26.051   0.480  53.030  1.00  0.00    -0.006 C 
HETATM   11  C3  UNL     1      26.908  -0.622  52.608  1.00  0.00     0.013 C 
HETATM   12  C2  UNL     1      28.076  -1.072  53.042  1.00  0.00     0.032 C 
HETATM   13  C1  UNL     1      29.066  -0.725  54.112  1.00  0.00     0.361 C 
HETATM   14  N6  UNL     1      29.436   0.650  54.111  1.00  0.00    -0.267 NA
HETATM   15  C19 UNL     1      28.819   1.734  53.828  1.00  0.00     0.090 C 
HETATM   16  C18 UNL     1      27.653   2.557  53.398  1.00  0.00     0.074 C 
HETATM   17  C17 UNL     1      26.401   1.749  53.338  1.00  0.00    -0.008 C 
BRANCH  13  18
HETATM   18  N1  UNL     1      30.284  -1.458  53.730  1.00  0.00     0.106 N 
HETATM   19  H1  UNL     1      30.946  -1.560  54.516  1.00  0.00     0.316 HD
HETATM   20  H2  UNL     1      30.040  -2.334  53.229  1.00  0.00     0.316 HD
ENDBRANCH  13  18
ENDBRANCH   1  10
BRANCH   9  21
HETATM   21  N5  UNL     1      23.556   1.508  51.287  1.00  0.00    -0.369 N 
HETATM   22  H9  UNL     1      23.387   1.085  50.354  1.00  0.00     0.161 HD
BRANCH  21  23
HETATM   23  C11 UNL     1      23.708   2.899  51.032  1.00  0.00     0.083 C 
HETATM   24  C12 UNL     1      25.055   3.291  50.400  1.00  0.00     0.025 C 
HETATM   25  C13 UNL     1      24.901   4.684  49.896  1.00  0.00     0.002 C 
HETATM   26  C14 UNL     1      24.325   5.675  50.836  1.00  0.00     0.000 C 
HETATM   27  C15 UNL     1      23.402   5.139  51.889  1.00  0.00     0.002 C 
HETATM   28  C16 UNL     1      23.685   3.738  52.300  1.00  0.00     0.025 C 
ENDBRANCH  21  23
ENDBRANCH   9  21
TORSDOF 4
ENDMDL
MODEL 5
REMARK VINA RESULT:      -8.5      1.185      1.791
REMARK  4 active torsions:
REMARK  status: ('A' for Active; 'I' for Inactive)
REMARK    1  A    between atoms: N1_1  and  C1_2 
REMARK    2  A    between atoms: C4_5  and  C5_6 
REMARK    3  A    between atoms: C10_14  and  N5_15 
REMARK    4  A    between atoms: N5_15  and  C11_16 
ROOT
HETATM    1  C5  UNL     1      24.773   0.337  53.393  1.00  0.00     0.130 A 
HETATM    2  N2  UNL     1      25.707  -0.583  53.680  1.00  0.00    -0.058 NA
HETATM    3  C6  UNL     1      26.906  -0.014  53.841  1.00  0.00     0.735 A 
HETATM    4  N3  UNL     1      28.068  -0.624  54.136  1.00  0.00    -0.074 NA
HETATM    5  C7  UNL     1      29.185   0.112  54.264  1.00  0.00     0.138 A 
HETATM    6  C8  UNL     1      29.065   1.474  54.081  1.00  0.00     0.038 A 
HETATM    7  C9  UNL     1      27.851   2.006  53.785  1.00  0.00     0.118 A 
HETATM    8  N4  UNL     1      26.708   1.316  53.646  1.00  0.00    -0.137 N 
HETATM    9  C10 UNL     1      25.409   1.529  53.374  1.00  0.00     0.155 A 
ENDROOT
BRANCH   1  10
HETATM   10  C4  UNL     1      23.397  -0.083  53.204  1.00  0.00    -0.006 C 
HETATM   11  C3  UNL     1      22.724   0.289  51.965  1.00  0.00     0.013 C 
HETATM   12  C2  UNL     1      21.510   0.747  51.702  1.00  0.00     0.032 C 
HETATM   13  C1  UNL     1      20.272   1.104  52.469  1.00  0.00     0.361 C 
HETATM   14  N6  UNL     1      19.846   0.077  53.357  1.00  0.00    -0.267 NA
HETATM   15  C19 UNL     1      20.460  -0.803  54.055  1.00  0.00     0.090 C 
HETATM   16  C18 UNL     1      21.653  -1.523  54.582  1.00  0.00     0.074 C 
HETATM   17  C17 UNL     1      22.920  -0.819  54.233  1.00  0.00    -0.008 C 
BRANCH  13  18
HETATM   18  N1  UNL     1      19.222   1.191  51.440  1.00  0.00     0.106 N 
HETATM   19  H1  UNL     1      19.540   0.844  50.522  1.00  0.00     0.316 HD
HETATM   20  H2  UNL     1      18.333   0.788  51.792  1.00  0.00     0.316 HD
ENDBRANCH  13  18
ENDBRANCH   1  10
BRANCH   9  21
HETATM   21  N5  UNL     1      24.835   2.790  53.191  1.00  0.00    -0.369 N 
HETATM   22  H9  UNL     1      25.116   3.562  53.825  1.00  0.00     0.161 HD
BRANCH  21  23
HETATM   23  C11 UNL     1      23.916   3.384  52.283  1.00  0.00     0.083 C 
HETATM   24  C12 UNL     1      24.488   3.653  50.879  1.00  0.00     0.025 C 
HETATM   25  C13 UNL     1      23.325   3.938  49.992  1.00  0.00     0.002 C 
HETATM   26  C14 UNL     1      22.340   4.932  50.481  1.00  0.00     0.000 C 
HETATM   27  C15 UNL     1      22.217   5.075  51.969  1.00  0.00     0.002 C 
HETATM   28  C16 UNL     1      23.462   4.767  52.722  1.00  0.00     0.025 C 
ENDBRANCH  21  23
ENDBRANCH   9  21
TORSDOF 4
ENDMDL
MODEL 6
REMARK VINA RESULT:      -8.0      2.118      6.815
REMARK  4 active torsions:
REMARK  status: ('A' for Active; 'I' for Inactive)
REMARK    1  A    between atoms: N1_1  and  C1_2 
REMARK    2  A    between atoms: C4_5  and  C5_6 
REMARK    3  A    between atoms: C10_14  and  N5_15 
REMARK    4  A    between atoms: N5_15  and  C11_16 
ROOT
HETATM    1  C5  UNL     1      25.121   2.351  51.230  1.00  0.00     0.130 A 
HETATM    2  N2  UNL     1      25.552   3.499  50.685  1.00  0.00    -0.058 NA
HETATM    3  C6  UNL     1      24.633   4.014  49.861  1.00  0.00     0.735 A 
HETATM    4  N3  UNL     1      24.720   5.150  49.147  1.00  0.00    -0.074 NA
HETATM    5  C7  UNL     1      23.689   5.518  48.366  1.00  0.00     0.138 A 
HETATM    6  C8  UNL     1      22.586   4.690  48.349  1.00  0.00     0.038 A 
HETATM    7  C9  UNL     1      22.584   3.561  49.103  1.00  0.00     0.118 A 
HETATM    8  N4  UNL     1      23.587   3.149  49.897  1.00  0.00    -0.137 N 
HETATM    9  C10 UNL     1      23.883   2.137  50.731  1.00  0.00     0.155 A 
ENDROOT
BRANCH   1  10
HETATM   10  C4  UNL     1      25.970   1.650  52.173  1.00  0.00    -0.006 C 
HETATM   11  C3  UNL     1      26.503   2.393  53.309  1.00  0.00     0.013 C 
HETATM   12  C2  UNL     1      27.697   2.431  53.881  1.00  0.00     0.032 C 
HETATM   13  C1  UNL     1      29.037   1.785  53.688  1.00  0.00     0.361 C 
HETATM   14  N6  UNL     1      28.969   0.366  53.594  1.00  0.00    -0.267 NA
HETATM   15  C19 UNL     1      28.105  -0.451  53.122  1.00  0.00     0.090 C 
HETATM   16  C18 UNL     1      26.829  -0.839  52.457  1.00  0.00     0.074 C 
HETATM   17  C17 UNL     1      26.131   0.341  51.874  1.00  0.00    -0.008 C 
BRANCH  13  18
HETATM   18  N1  UNL     1      29.755   2.061  54.943  1.00  0.00     0.106 N 
HETATM   19  H1  UNL     1      29.778   3.067  55.171  1.00  0.00     0.316 HD
HETATM   20  H2  UNL     1      29.421   1.434  55.700  1.00  0.00     0.316 HD
ENDBRANCH  13  18
ENDBRANCH   1  10
BRANCH   9  21
HETATM   21  N5  UNL     1      23.005   1.103  51.065  1.00  0.00    -0.369 N 
HETATM   22  H9  UNL     1      22.907   0.302  50.412  1.00  0.00     0.161 HD
BRANCH  21  23
HETATM   23  C11 UNL     1      22.153   0.785  52.158  1.00  0.00     0.083 C 
HETATM   24  C12 UNL     1      22.682  -0.329  53.079  1.00  0.00     0.025 C 
HETATM   25  C13 UNL     1      21.859  -0.282  54.321  1.00  0.00     0.002 C 
HETATM   26  C14 UNL     1      20.388  -0.244  54.146  1.00  0.00     0.000 C 
HETATM   27  C15 UNL     1      19.882   0.366  52.874  1.00  0.00     0.002 C 
HETATM   28  C16 UNL     1      20.807   0.232  51.716  1.00  0.00     0.025 C 
ENDBRANCH  21  23
ENDBRANCH   9  21
TORSDOF 4
ENDMDL
MODEL 7
REMARK VINA RESULT:      -7.9      2.287      3.272
REMARK  4 active torsions:
REMARK  status: ('A' for Active; 'I' for Inactive)
REMARK    1  A    between atoms: N1_1  and  C1_2 
REMARK    2  A    between atoms: C4_5  and  C5_6 
REMARK    3  A    between atoms: C10_14  and  N5_15 
REMARK    4  A    between atoms: N5_15  and  C11_16 
ROOT
HETATM    1  C5  UNL     1      24.315   1.859  52.096  1.00  0.00     0.130 A 
HETATM    2  N2  UNL     1      24.397   1.230  53.279  1.00  0.00    -0.058 NA
HETATM    3  C6  UNL     1      25.667   0.943  53.582  1.00  0.00     0.735 A 
HETATM    4  N3  UNL     1      26.124   0.321  54.684  1.00  0.00    -0.074 NA
HETATM    5  C7  UNL     1      27.445   0.117  54.825  1.00  0.00     0.138 A 
HETATM    6  C8  UNL     1      28.263   0.568  53.810  1.00  0.00     0.038 A 
HETATM    7  C9  UNL     1      27.715   1.187  52.733  1.00  0.00     0.118 A 
HETATM    8  N4  UNL     1      26.405   1.414  52.544  1.00  0.00    -0.137 N 
HETATM    9  C10 UNL     1      25.581   1.972  51.640  1.00  0.00     0.155 A 
ENDROOT
BRANCH   1  10
HETATM   10  C4  UNL     1      23.016   2.275  51.602  1.00  0.00    -0.006 C 
HETATM   11  C3  UNL     1      22.302   1.382  50.696  1.00  0.00     0.013 C 
HETATM   12  C2  UNL     1      21.616   1.589  49.582  1.00  0.00     0.032 C 
HETATM   13  C1  UNL     1      21.233   2.753  48.720  1.00  0.00     0.361 C 
HETATM   14  N6  UNL     1      20.645   3.824  49.449  1.00  0.00    -0.267 NA
HETATM   15  C19 UNL     1      20.812   4.291  50.629  1.00  0.00     0.090 C 
HETATM   16  C18 UNL     1      21.424   4.356  51.986  1.00  0.00     0.074 C 
HETATM   17  C17 UNL     1      22.617   3.468  52.095  1.00  0.00    -0.008 C 
BRANCH  13  18
HETATM   18  N1  UNL     1      20.160   2.229  47.860  1.00  0.00     0.106 N 
HETATM   19  H1  UNL     1      19.300   2.797  47.913  1.00  0.00     0.316 HD
HETATM   20  H2  UNL     1      20.518   2.041  46.904  1.00  0.00     0.316 HD
ENDBRANCH  13  18
ENDBRANCH   1  10
BRANCH   9  21
HETATM   21  N5  UNL     1      26.005   2.623  50.479  1.00  0.00    -0.369 N 
HETATM   22  H9  UNL     1      26.423   2.058  49.715  1.00  0.00     0.161 HD
BRANCH  21  23
HETATM   23  C11 UNL     1      26.000   3.956  49.982  1.00  0.00     0.083 C 
HETATM   24  C12 UNL     1      24.702   4.364  49.261  1.00  0.00     0.025 C 
HETATM   25  C13 UNL     1      24.738   5.848  49.126  1.00  0.00     0.002 C 
HETATM   26  C14 UNL     1      25.983   6.439  48.582  1.00  0.00     0.000 C 
HETATM   27  C15 UNL     1      27.246   5.665  48.811  1.00  0.00     0.002 C 
HETATM   28  C16 UNL     1      27.056   4.193  48.914  1.00  0.00     0.025 C 
ENDBRANCH  21  23
ENDBRANCH   9  21
TORSDOF 4
ENDMDL
MODEL 8
REMARK VINA RESULT:      -7.8      2.309      6.424
REMARK  4 active torsions:
REMARK  status: ('A' for Active; 'I' for Inactive)
REMARK    1  A    between atoms: N1_1  and  C1_2 
REMARK    2  A    between atoms: C4_5  and  C5_6 
REMARK    3  A    between atoms: C10_14  and  N5_15 
REMARK    4  A    between atoms: N5_15  and  C11_16 
ROOT
HETATM    1  C5  UNL     1      21.821   2.591  51.964  1.00  0.00     0.130 A 
HETATM    2  N2  UNL     1      20.604   2.615  52.529  1.00  0.00    -0.058 NA
HETATM    3  C6  UNL     1      19.731   3.274  51.761  1.00  0.00     0.735 A 
HETATM    4  N3  UNL     1      18.427   3.494  52.007  1.00  0.00    -0.074 NA
HETATM    5  C7  UNL     1      17.694   4.181  51.114  1.00  0.00     0.138 A 
HETATM    6  C8  UNL     1      18.340   4.625  49.979  1.00  0.00     0.038 A 
HETATM    7  C9  UNL     1      19.661   4.357  49.811  1.00  0.00     0.118 A 
HETATM    8  N4  UNL     1      20.436   3.678  50.672  1.00  0.00    -0.137 N 
HETATM    9  C10 UNL     1      21.708   3.261  50.796  1.00  0.00     0.155 A 
ENDROOT
BRANCH   1  10
HETATM   10  C4  UNL     1      22.903   1.899  52.637  1.00  0.00    -0.006 C 
HETATM   11  C3  UNL     1      24.086   2.665  53.013  1.00  0.00     0.013 C 
HETATM   12  C2  UNL     1      25.384   2.414  52.937  1.00  0.00     0.032 C 
HETATM   13  C1  UNL     1      26.269   1.301  52.462  1.00  0.00     0.361 C 
HETATM   14  N6  UNL     1      25.910   0.031  52.995  1.00  0.00    -0.267 NA
HETATM   15  C19 UNL     1      24.798  -0.510  53.326  1.00  0.00     0.090 C 
HETATM   16  C18 UNL     1      23.320  -0.567  53.506  1.00  0.00     0.074 C 
HETATM   17  C17 UNL     1      22.641   0.592  52.861  1.00  0.00    -0.008 C 
BRANCH  13  18
HETATM   18  N1  UNL     1      27.585   1.612  53.043  1.00  0.00     0.106 N 
HETATM   19  H1  UNL     1      28.027   0.787  53.480  1.00  0.00     0.316 HD
HETATM   20  H2  UNL     1      28.171   2.130  52.362  1.00  0.00     0.316 HD
ENDBRANCH  13  18
ENDBRANCH   1  10
BRANCH   9  21
HETATM   21  N5  UNL     1      22.697   3.436  49.823  1.00  0.00    -0.369 N 
HETATM   22  H9  UNL     1      22.594   2.945  48.915  1.00  0.00     0.161 HD
BRANCH  21  23
HETATM   23  C11 UNL     1      23.897   4.188  49.696  1.00  0.00     0.083 C 
HETATM   24  C12 UNL     1      23.888   5.216  48.551  1.00  0.00     0.025 C 
HETATM   25  C13 UNL     1      25.048   6.123  48.784  1.00  0.00     0.002 C 
HETATM   26  C14 UNL     1      26.355   5.479  49.053  1.00  0.00     0.000 C 
HETATM   27  C15 UNL     1      26.314   4.119  49.682  1.00  0.00     0.002 C 
HETATM   28  C16 UNL     1      25.101   3.325  49.350  1.00  0.00     0.025 C 
ENDBRANCH  21  23
ENDBRANCH   9  21
TORSDOF 4
ENDMDL
MODEL 9
REMARK VINA RESULT:      -7.8      1.993      2.853
REMARK  4 active torsions:
REMARK  status: ('A' for Active; 'I' for Inactive)
REMARK    1  A    between atoms: N1_1  and  C1_2 
REMARK    2  A    between atoms: C4_5  and  C5_6 
REMARK    3  A    between atoms: C10_14  and  N5_15 
REMARK    4  A    between atoms: N5_15  and  C11_16 
ROOT
HETATM    1  C5  UNL     1      23.044   0.468  52.719  1.00  0.00     0.130 A 
HETATM    2  N2  UNL     1      23.793  -0.492  53.286  1.00  0.00    -0.058 NA
HETATM    3  C6  UNL     1      24.981  -0.011  53.665  1.00  0.00     0.735 A 
HETATM    4  N3  UNL     1      25.981  -0.681  54.266  1.00  0.00    -0.074 NA
HETATM    5  C7  UNL     1      27.114  -0.031  54.580  1.00  0.00     0.138 A 
HETATM    6  C8  UNL     1      27.180   1.309  54.262  1.00  0.00     0.038 A 
HETATM    7  C9  UNL     1      26.122   1.907  53.656  1.00  0.00     0.118 A 
HETATM    8  N4  UNL     1      24.970   1.303  53.320  1.00  0.00    -0.137 N 
HETATM    9  C10 UNL     1      23.790   1.594  52.745  1.00  0.00     0.155 A 
ENDROOT
BRANCH   1  10
HETATM   10  C4  UNL     1      21.707   0.146  52.261  1.00  0.00    -0.006 C 
HETATM   11  C3  UNL     1      21.405   0.304  50.843  1.00  0.00     0.013 C 
HETATM   12  C2  UNL     1      20.365   0.806  50.193  1.00  0.00     0.032 C 
HETATM   13  C1  UNL     1      19.046   1.431  50.533  1.00  0.00     0.361 C 
HETATM   14  N6  UNL     1      18.280   0.663  51.454  1.00  0.00    -0.267 NA
HETATM   15  C19 UNL     1      18.579  -0.101  52.437  1.00  0.00     0.090 C 
HETATM   16  C18 UNL     1      19.499  -0.798  53.379  1.00  0.00     0.074 C 
HETATM   17  C17 UNL     1      20.900  -0.305  53.247  1.00  0.00    -0.008 C 
BRANCH  13  18
HETATM   18  N1  UNL     1      18.291   1.394  49.270  1.00  0.00     0.106 N 
HETATM   19  H1  UNL     1      18.485   0.542  48.721  1.00  0.00     0.316 HD
HETATM   20  H2  UNL     1      17.289   1.604  49.438  1.00  0.00     0.316 HD
ENDBRANCH  13  18
ENDBRANCH   1  10
BRANCH   9  21
HETATM   21  N5  UNL     1      23.404   2.872  52.333  1.00  0.00    -0.369 N 
HETATM   22  H9  UNL     1      23.356   3.630  53.040  1.00  0.00     0.161 HD
BRANCH  21  23
HETATM   23  C11 UNL     1      23.059   3.500  51.104  1.00  0.00     0.083 C 
HETATM   24  C12 UNL     1      23.817   2.965  49.877  1.00  0.00     0.025 C 
HETATM   25  C13 UNL     1      23.097   3.473  48.675  1.00  0.00     0.002 C 
HETATM   26  C14 UNL     1      22.781   4.920  48.649  1.00  0.00     0.000 C 
HETATM   27  C15 UNL     1      22.613   5.592  49.978  1.00  0.00     0.002 C 
HETATM   28  C16 UNL     1      23.402   4.981  51.081  1.00  0.00     0.025 C 
ENDBRANCH  21  23
ENDBRANCH   9  21
TORSDOF 4
ENDMDL
