MODEL 1
REMARK VINA RESULT:      -7.3      0.000      0.000
REMARK  9 active torsions:
REMARK  status: ('A' for Active; 'I' for Inactive)
REMARK    1  A    between atoms: C2_2  and  C3_3 
REMARK    2  A    between atoms: C3_3  and  C4_4 
REMARK    3  A    between atoms: C4_4  and  C5_5 
REMARK    4  A    between atoms: C6_6  and  C7_7 
REMARK       I    between atoms: C7_7  and  N1_9 
REMARK    5  A    between atoms: N1_9  and  C8_10 
REMARK    6  A    between atoms: C8_10  and  N2_11 
REMARK    7  A    between atoms: C9_12  and  C10_13 
REMARK    8  A    between atoms: C13_18  and  N5_19 
REMARK    9  A    between atoms: N5_19  and  C14_20 
ROOT
HETATM    1  C10 UNL     1      22.463   3.871  49.782  1.00  0.00     0.031 A 
HETATM    2  C11 UNL     1      22.325   4.487  48.561  1.00  0.00     0.133 A 
HETATM    3  N3  UNL     1      22.186   3.719  47.477  1.00  0.00    -0.253 NA
HETATM    4  C12 UNL     1      22.170   2.381  47.469  1.00  0.00     0.234 A 
HETATM    5  N4  UNL     1      22.306   1.801  48.672  1.00  0.00    -0.224 NA
HETATM    6  C13 UNL     1      22.451   2.485  49.813  1.00  0.00     0.141 A 
ENDROOT
BRANCH   1   7
HETATM    7  C9  UNL     1      22.609   4.502  51.075  1.00  0.00     0.065 C 
HETATM    8  C8  UNL     1      23.795   4.874  51.538  1.00  0.00     0.102 C 
BRANCH   8   9
HETATM    9  N1  UNL     1      24.993   4.678  50.796  1.00  0.00    -0.302 N 
HETATM   10  C7  UNL     1      25.320   5.901  50.152  1.00  0.00     0.302 C 
HETATM   11  O1  UNL     1      24.453   6.806  50.425  1.00  0.00    -0.258 OA
HETATM   12  H10 UNL     1      25.667   3.890  50.614  1.00  0.00     0.171 HD
BRANCH  10  13
HETATM   13  C6  UNL     1      26.441   6.164  49.302  1.00  0.00    -0.005 C 
HETATM   14  C5  UNL     1      27.395   6.365  48.586  1.00  0.00    -0.096 C 
BRANCH  14  15
HETATM   15  C4  UNL     1      28.560   6.593  47.734  1.00  0.00     0.094 C 
BRANCH  15  16
HETATM   16  C3  UNL     1      29.626   5.546  48.056  1.00  0.00     0.012 C 
BRANCH  16  17
HETATM   17  C2  UNL     1      30.931   6.049  47.488  1.00  0.00    -0.004 C 
HETATM   18  C1  UNL     1      31.874   4.866  47.459  1.00  0.00     0.005 C 
ENDBRANCH  16  17
ENDBRANCH  15  16
ENDBRANCH  14  15
ENDBRANCH  10  13
ENDBRANCH   8   9
BRANCH   8  19
HETATM   19  N2  UNL     1      23.783   5.503  52.802  1.00  0.00    -0.385 N 
HETATM   20  H11 UNL     1      23.051   5.432  53.541  1.00  0.00     0.157 HD
HETATM   21  H12 UNL     1      24.017   6.067  53.643  1.00  0.00     0.157 HD
ENDBRANCH   8  19
ENDBRANCH   1   7
BRANCH   6  22
HETATM   22  N5  UNL     1      22.598   1.603  50.871  1.00  0.00    -0.340 N 
HETATM   23  H16 UNL     1      21.697   1.121  50.555  1.00  0.00     0.167 HD
BRANCH  22  24
HETATM   24  C14 UNL     1      22.905   0.825  51.975  1.00  0.00     0.035 A 
HETATM   25  C15 UNL     1      24.258   1.089  52.232  1.00  0.00     0.032 A 
HETATM   26  C16 UNL     1      24.920   0.423  53.281  1.00  0.00     0.046 A 
HETATM   27  C17 UNL     1      24.159  -0.482  54.015  1.00  0.00     0.138 A 
HETATM   28  F1  UNL     1      24.660  -1.191  55.045  1.00  0.00    -0.204 F 
HETATM   29  C18 UNL     1      22.853  -0.686  53.710  1.00  0.00     0.074 A 
HETATM   30 CL1  UNL     1      21.813  -1.827  54.589  1.00  0.00    -0.081 Cl
HETATM   31  C19 UNL     1      22.155  -0.069  52.704  1.00  0.00     0.056 A 
ENDBRANCH  22  24
ENDBRANCH   6  22
TORSDOF 9
ENDMDL
MODEL 2
REMARK VINA RESULT:      -7.2      0.999      1.444
REMARK  9 active torsions:
REMARK  status: ('A' for Active; 'I' for Inactive)
REMARK    1  A    between atoms: C2_2  and  C3_3 
REMARK    2  A    between atoms: C3_3  and  C4_4 
REMARK    3  A    between atoms: C4_4  and  C5_5 
REMARK    4  A    between atoms: C6_6  and  C7_7 
REMARK       I    between atoms: C7_7  and  N1_9 
REMARK    5  A    between atoms: N1_9  and  C8_10 
REMARK    6  A    between atoms: C8_10  and  N2_11 
REMARK    7  A    between atoms: C9_12  and  C10_13 
REMARK    8  A    between atoms: C13_18  and  N5_19 
REMARK    9  A    between atoms: N5_19  and  C14_20 
ROOT
HETATM    1  C10 UNL     1      22.326   3.824  50.148  1.00  0.00     0.031 A 
HETATM    2  C11 UNL     1      21.970   4.455  48.979  1.00  0.00     0.133 A 
HETATM    3  N3  UNL     1      21.783   3.706  47.889  1.00  0.00    -0.253 NA
HETATM    4  C12 UNL     1      21.914   2.376  47.826  1.00  0.00     0.234 A 
HETATM    5  N4  UNL     1      22.262   1.782  48.979  1.00  0.00    -0.224 NA
HETATM    6  C13 UNL     1      22.470   2.445  50.122  1.00  0.00     0.141 A 
ENDROOT
BRANCH   1   7
HETATM    7  C9  UNL     1      22.561   4.431  51.439  1.00  0.00     0.065 C 
HETATM    8  C8  UNL     1      23.753   4.899  51.782  1.00  0.00     0.102 C 
BRANCH   8   9
HETATM    9  N1  UNL     1      24.872   4.835  50.905  1.00  0.00    -0.302 N 
HETATM   10  C7  UNL     1      25.039   6.111  50.305  1.00  0.00     0.302 C 
HETATM   11  O1  UNL     1      24.147   6.931  50.724  1.00  0.00    -0.258 OA
HETATM   12  H10 UNL     1      25.576   4.110  50.604  1.00  0.00     0.171 HD
BRANCH  10  13
HETATM   13  C6  UNL     1      26.038   6.503  49.357  1.00  0.00    -0.005 C 
HETATM   14  C5  UNL     1      26.868   6.848  48.549  1.00  0.00    -0.096 C 
BRANCH  14  15
HETATM   15  C4  UNL     1      27.853   7.269  47.555  1.00  0.00     0.094 C 
BRANCH  15  16
HETATM   16  C3  UNL     1      29.256   6.983  48.089  1.00  0.00     0.012 C 
BRANCH  16  17
HETATM   17  C2  UNL     1      29.414   5.482  48.143  1.00  0.00    -0.004 C 
HETATM   18  C1  UNL     1      30.844   5.186  47.747  1.00  0.00     0.005 C 
ENDBRANCH  16  17
ENDBRANCH  15  16
ENDBRANCH  14  15
ENDBRANCH  10  13
ENDBRANCH   8   9
BRANCH   8  19
HETATM   19  N2  UNL     1      23.829   5.490  53.062  1.00  0.00    -0.385 N 
HETATM   20  H11 UNL     1      23.091   6.038  53.553  1.00  0.00     0.157 HD
HETATM   21  H12 UNL     1      24.140   5.815  53.998  1.00  0.00     0.157 HD
ENDBRANCH   8  19
ENDBRANCH   1   7
BRANCH   6  22
HETATM   22  N5  UNL     1      22.844   1.557  51.117  1.00  0.00    -0.340 N 
HETATM   23  H16 UNL     1      23.731   1.349  50.555  1.00  0.00     0.167 HD
BRANCH  22  24
HETATM   24  C14 UNL     1      23.048   0.715  52.197  1.00  0.00     0.035 A 
HETATM   25  C15 UNL     1      21.783   0.173  52.470  1.00  0.00     0.032 A 
HETATM   26  C16 UNL     1      21.613  -0.710  53.554  1.00  0.00     0.046 A 
HETATM   27  C17 UNL     1      22.751  -0.993  54.304  1.00  0.00     0.138 A 
HETATM   28  F1  UNL     1      22.737  -1.817  55.369  1.00  0.00    -0.204 F 
HETATM   29  C18 UNL     1      23.943  -0.432  53.981  1.00  0.00     0.074 A 
HETATM   30 CL1  UNL     1      25.440  -0.731  54.888  1.00  0.00    -0.081 Cl
HETATM   31  C19 UNL     1      24.171   0.431  52.940  1.00  0.00     0.056 A 
ENDBRANCH  22  24
ENDBRANCH   6  22
TORSDOF 9
ENDMDL
MODEL 3
REMARK VINA RESULT:      -6.8      2.476      3.920
REMARK  9 active torsions:
REMARK  status: ('A' for Active; 'I' for Inactive)
REMARK    1  A    between atoms: C2_2  and  C3_3 
REMARK    2  A    between atoms: C3_3  and  C4_4 
REMARK    3  A    between atoms: C4_4  and  C5_5 
REMARK    4  A    between atoms: C6_6  and  C7_7 
REMARK       I    between atoms: C7_7  and  N1_9 
REMARK    5  A    between atoms: N1_9  and  C8_10 
REMARK    6  A    between atoms: C8_10  and  N2_11 
REMARK    7  A    between atoms: C9_12  and  C10_13 
REMARK    8  A    between atoms: C13_18  and  N5_19 
REMARK    9  A    between atoms: N5_19  and  C14_20 
ROOT
HETATM    1  C10 UNL     1      25.786   2.208  51.920  1.00  0.00     0.031 A 
HETATM    2  C11 UNL     1      27.127   2.507  51.875  1.00  0.00     0.133 A 
HETATM    3  N3  UNL     1      27.940   1.896  52.742  1.00  0.00    -0.253 NA
HETATM    4  C12 UNL     1      27.564   1.004  53.665  1.00  0.00     0.234 A 
HETATM    5  N4  UNL     1      26.251   0.727  53.689  1.00  0.00    -0.224 NA
HETATM    6  C13 UNL     1      25.358   1.287  52.864  1.00  0.00     0.141 A 
ENDROOT
BRANCH   1   7
HETATM    7  C9  UNL     1      24.739   2.735  51.073  1.00  0.00     0.065 C 
HETATM    8  C8  UNL     1      24.998   3.226  49.869  1.00  0.00     0.102 C 
BRANCH   8   9
HETATM    9  N1  UNL     1      26.316   3.265  49.335  1.00  0.00    -0.302 N 
HETATM   10  C7  UNL     1      26.685   4.625  49.163  1.00  0.00     0.302 C 
HETATM   11  O1  UNL     1      25.738   5.405  49.535  1.00  0.00    -0.258 OA
HETATM   12  H10 UNL     1      27.053   2.569  49.048  1.00  0.00     0.171 HD
BRANCH  10  13
HETATM   13  C6  UNL     1      27.922   5.134  48.653  1.00  0.00    -0.005 C 
HETATM   14  C5  UNL     1      28.973   5.544  48.217  1.00  0.00    -0.096 C 
BRANCH  14  15
HETATM   15  C4  UNL     1      30.255   6.018  47.698  1.00  0.00     0.094 C 
BRANCH  15  16
HETATM   16  C3  UNL     1      31.204   4.830  47.550  1.00  0.00     0.012 C 
BRANCH  16  17
HETATM   17  C2  UNL     1      32.575   5.389  47.254  1.00  0.00    -0.004 C 
HETATM   18  C1  UNL     1      32.384   6.466  46.207  1.00  0.00     0.005 C 
ENDBRANCH  16  17
ENDBRANCH  15  16
ENDBRANCH  14  15
ENDBRANCH  10  13
ENDBRANCH   8   9
BRANCH   8  19
HETATM   19  N2  UNL     1      23.875   3.680  49.143  1.00  0.00    -0.385 N 
HETATM   20  H11 UNL     1      22.936   3.233  49.080  1.00  0.00     0.157 HD
HETATM   21  H12 UNL     1      23.223   4.220  48.541  1.00  0.00     0.157 HD
ENDBRANCH   8  19
ENDBRANCH   1   7
BRANCH   6  22
HETATM   22  N5  UNL     1      24.089   0.819  53.160  1.00  0.00    -0.340 N 
HETATM   23  H16 UNL     1      24.123   1.390  54.064  1.00  0.00     0.167 HD
BRANCH  22  24
HETATM   24  C14 UNL     1      22.833   0.250  53.289  1.00  0.00     0.035 A 
HETATM   25  C15 UNL     1      22.995  -0.755  54.255  1.00  0.00     0.032 A 
HETATM   26  C16 UNL     1      21.907  -1.576  54.607  1.00  0.00     0.046 A 
HETATM   27  C17 UNL     1      20.706  -1.325  53.951  1.00  0.00     0.138 A 
HETATM   28  F1  UNL     1      19.584  -2.032  54.186  1.00  0.00    -0.204 F 
HETATM   29  C18 UNL     1      20.623  -0.335  53.028  1.00  0.00     0.074 A 
HETATM   30 CL1  UNL     1      19.133   0.047  52.139  1.00  0.00    -0.081 Cl
HETATM   31  C19 UNL     1      21.644   0.496  52.644  1.00  0.00     0.056 A 
ENDBRANCH  22  24
ENDBRANCH   6  22
TORSDOF 9
ENDMDL
MODEL 4
REMARK VINA RESULT:      -6.7      3.815      6.974
REMARK  9 active torsions:
REMARK  status: ('A' for Active; 'I' for Inactive)
REMARK    1  A    between atoms: C2_2  and  C3_3 
REMARK    2  A    between atoms: C3_3  and  C4_4 
REMARK    3  A    between atoms: C4_4  and  C5_5 
REMARK    4  A    between atoms: C6_6  and  C7_7 
REMARK       I    between atoms: C7_7  and  N1_9 
REMARK    5  A    between atoms: N1_9  and  C8_10 
REMARK    6  A    between atoms: C8_10  and  N2_11 
REMARK    7  A    between atoms: C9_12  and  C10_13 
REMARK    8  A    between atoms: C13_18  and  N5_19 
REMARK    9  A    between atoms: N5_19  and  C14_20 
ROOT
HETATM    1  C10 UNL     1      22.508   4.596  49.380  1.00  0.00     0.031 A 
HETATM    2  C11 UNL     1      21.796   5.756  49.185  1.00  0.00     0.133 A 
HETATM    3  N3  UNL     1      21.549   6.531  50.245  1.00  0.00    -0.253 NA
HETATM    4  C12 UNL     1      21.935   6.280  51.500  1.00  0.00     0.234 A 
HETATM    5  N4  UNL     1      22.629   5.142  51.666  1.00  0.00    -0.224 NA
HETATM    6  C13 UNL     1      22.926   4.301  50.669  1.00  0.00     0.141 A 
ENDROOT
BRANCH   1   7
HETATM    7  C9  UNL     1      22.899   3.626  48.382  1.00  0.00     0.065 C 
HETATM    8  C8  UNL     1      22.101   2.627  48.032  1.00  0.00     0.102 C 
BRANCH   8   9
HETATM    9  N1  UNL     1      20.814   2.447  48.611  1.00  0.00    -0.302 N 
HETATM   10  C7  UNL     1      20.891   1.370  49.534  1.00  0.00     0.302 C 
HETATM   11  O1  UNL     1      22.078   0.886  49.572  1.00  0.00    -0.258 OA
HETATM   12  H10 UNL     1      19.863   2.892  48.531  1.00  0.00     0.171 HD
BRANCH  10  13
HETATM   13  C6  UNL     1      19.835   0.841  50.343  1.00  0.00    -0.005 C 
HETATM   14  C5  UNL     1      18.934   0.413  51.026  1.00  0.00    -0.096 C 
BRANCH  14  15
HETATM   15  C4  UNL     1      17.841  -0.081  51.862  1.00  0.00     0.094 C 
BRANCH  15  16
HETATM   16  C3  UNL     1      18.402  -1.070  52.883  1.00  0.00     0.012 C 
BRANCH  16  17
HETATM   17  C2  UNL     1      19.590  -0.408  53.538  1.00  0.00    -0.004 C 
HETATM   18  C1  UNL     1      20.480  -1.523  54.044  1.00  0.00     0.005 C 
ENDBRANCH  16  17
ENDBRANCH  15  16
ENDBRANCH  14  15
ENDBRANCH  10  13
ENDBRANCH   8   9
BRANCH   8  19
HETATM   19  N2  UNL     1      22.602   1.773  47.025  1.00  0.00    -0.385 N 
HETATM   20  H11 UNL     1      22.780   2.006  46.024  1.00  0.00     0.157 HD
HETATM   21  H12 UNL     1      22.975   0.962  46.493  1.00  0.00     0.157 HD
ENDBRANCH   8  19
ENDBRANCH   1   7
BRANCH   6  22
HETATM   22  N5  UNL     1      23.619   3.211  51.167  1.00  0.00    -0.340 N 
HETATM   23  H16 UNL     1      24.215   3.222  50.279  1.00  0.00     0.167 HD
BRANCH  22  24
HETATM   24  C14 UNL     1      24.190   2.130  51.818  1.00  0.00     0.035 A 
HETATM   25  C15 UNL     1      23.162   1.614  52.622  1.00  0.00     0.032 A 
HETATM   26  C16 UNL     1      23.411   0.516  53.466  1.00  0.00     0.046 A 
HETATM   27  C17 UNL     1      24.703  -0.001  53.443  1.00  0.00     0.138 A 
HETATM   28  F1  UNL     1      25.085  -1.048  54.199  1.00  0.00    -0.204 F 
HETATM   29  C18 UNL     1      25.647   0.549  52.639  1.00  0.00     0.074 A 
HETATM   30 CL1  UNL     1      27.320  -0.041  52.555  1.00  0.00    -0.081 Cl
HETATM   31  C19 UNL     1      25.466   1.616  51.797  1.00  0.00     0.056 A 
ENDBRANCH  22  24
ENDBRANCH   6  22
TORSDOF 9
ENDMDL
MODEL 5
REMARK VINA RESULT:      -6.6      7.621     10.707
REMARK  9 active torsions:
REMARK  status: ('A' for Active; 'I' for Inactive)
REMARK    1  A    between atoms: C2_2  and  C3_3 
REMARK    2  A    between atoms: C3_3  and  C4_4 
REMARK    3  A    between atoms: C4_4  and  C5_5 
REMARK    4  A    between atoms: C6_6  and  C7_7 
REMARK       I    between atoms: C7_7  and  N1_9 
REMARK    5  A    between atoms: N1_9  and  C8_10 
REMARK    6  A    between atoms: C8_10  and  N2_11 
REMARK    7  A    between atoms: C9_12  and  C10_13 
REMARK    8  A    between atoms: C13_18  and  N5_19 
REMARK    9  A    between atoms: N5_19  and  C14_20 
ROOT
HETATM    1  C10 UNL     1      34.136   7.356  48.058  1.00  0.00     0.031 A 
HETATM    2  C11 UNL     1      35.259   8.123  47.854  1.00  0.00     0.133 A 
HETATM    3  N3  UNL     1      35.101   9.352  47.355  1.00  0.00    -0.253 NA
HETATM    4  C12 UNL     1      33.932   9.917  47.030  1.00  0.00     0.234 A 
HETATM    5  N4  UNL     1      32.851   9.149  47.239  1.00  0.00    -0.224 NA
HETATM    6  C13 UNL     1      32.906   7.907  47.734  1.00  0.00     0.141 A 
ENDROOT
BRANCH   1   7
HETATM    7  C9  UNL     1      34.073   6.016  48.598  1.00  0.00     0.065 C 
HETATM    8  C8  UNL     1      34.345   4.952  47.855  1.00  0.00     0.102 C 
BRANCH   8   9
HETATM    9  N1  UNL     1      34.716   5.060  46.486  1.00  0.00    -0.302 N 
HETATM   10  C7  UNL     1      33.577   4.756  45.693  1.00  0.00     0.302 C 
HETATM   11  O1  UNL     1      32.567   4.480  46.433  1.00  0.00    -0.258 OA
HETATM   12  H10 UNL     1      35.584   5.298  45.938  1.00  0.00     0.171 HD
BRANCH  10  13
HETATM   13  C6  UNL     1      33.491   4.740  44.264  1.00  0.00    -0.005 C 
HETATM   14  C5  UNL     1      33.425   4.746  43.057  1.00  0.00    -0.096 C 
BRANCH  14  15
HETATM   15  C4  UNL     1      33.340   4.778  41.598  1.00  0.00     0.094 C 
BRANCH  15  16
HETATM   16  C3  UNL     1      32.385   5.894  41.178  1.00  0.00     0.012 C 
BRANCH  16  17
HETATM   17  C2  UNL     1      31.625   5.399  39.971  1.00  0.00    -0.004 C 
HETATM   18  C1  UNL     1      31.751   3.890  39.972  1.00  0.00     0.005 C 
ENDBRANCH  16  17
ENDBRANCH  15  16
ENDBRANCH  14  15
ENDBRANCH  10  13
ENDBRANCH   8   9
BRANCH   8  19
HETATM   19  N2  UNL     1      34.271   3.709  48.522  1.00  0.00    -0.385 N 
HETATM   20  H11 UNL     1      34.181   2.763  48.094  1.00  0.00     0.157 HD
HETATM   21  H12 UNL     1      34.238   2.957  49.237  1.00  0.00     0.157 HD
ENDBRANCH   8  19
ENDBRANCH   1   7
BRANCH   6  22
HETATM   22  N5  UNL     1      31.630   7.373  47.800  1.00  0.00    -0.340 N 
HETATM   23  H16 UNL     1      32.074   6.407  47.921  1.00  0.00     0.167 HD
BRANCH  22  24
HETATM   24  C14 UNL     1      30.291   7.022  47.838  1.00  0.00     0.035 A 
HETATM   25  C15 UNL     1      29.615   8.142  47.331  1.00  0.00     0.032 A 
HETATM   26  C16 UNL     1      28.209   8.146  47.266  1.00  0.00     0.046 A 
HETATM   27  C17 UNL     1      27.565   7.000  47.723  1.00  0.00     0.138 A 
HETATM   28  F1  UNL     1      26.225   6.864  47.721  1.00  0.00    -0.204 F 
HETATM   29  C18 UNL     1      28.285   5.953  48.200  1.00  0.00     0.074 A 
HETATM   30 CL1  UNL     1      27.545   4.458  48.809  1.00  0.00    -0.081 Cl
HETATM   31  C19 UNL     1      29.652   5.890  48.288  1.00  0.00     0.056 A 
ENDBRANCH  22  24
ENDBRANCH   6  22
TORSDOF 9
ENDMDL
MODEL 6
REMARK VINA RESULT:      -6.6      2.993      4.164
REMARK  9 active torsions:
REMARK  status: ('A' for Active; 'I' for Inactive)
REMARK    1  A    between atoms: C2_2  and  C3_3 
REMARK    2  A    between atoms: C3_3  and  C4_4 
REMARK    3  A    between atoms: C4_4  and  C5_5 
REMARK    4  A    between atoms: C6_6  and  C7_7 
REMARK       I    between atoms: C7_7  and  N1_9 
REMARK    5  A    between atoms: N1_9  and  C8_10 
REMARK    6  A    between atoms: C8_10  and  N2_11 
REMARK    7  A    between atoms: C9_12  and  C10_13 
REMARK    8  A    between atoms: C13_18  and  N5_19 
REMARK    9  A    between atoms: N5_19  and  C14_20 
ROOT
HETATM    1  C10 UNL     1      23.521   2.704  52.746  1.00  0.00     0.031 A 
HETATM    2  C11 UNL     1      24.846   2.754  53.108  1.00  0.00     0.133 A 
HETATM    3  N3  UNL     1      25.483   1.602  53.335  1.00  0.00    -0.253 NA
HETATM    4  C12 UNL     1      24.942   0.382  53.241  1.00  0.00     0.234 A 
HETATM    5  N4  UNL     1      23.648   0.358  52.886  1.00  0.00    -0.224 NA
HETATM    6  C13 UNL     1      22.925   1.456  52.639  1.00  0.00     0.141 A 
ENDROOT
BRANCH   1   7
HETATM    7  C9  UNL     1      22.650   3.817  52.441  1.00  0.00     0.065 C 
HETATM    8  C8  UNL     1      23.120   4.953  51.945  1.00  0.00     0.102 C 
BRANCH   8   9
HETATM    9  N1  UNL     1      24.504   5.149  51.681  1.00  0.00    -0.302 N 
HETATM   10  C7  UNL     1      24.723   4.953  50.292  1.00  0.00     0.302 C 
HETATM   11  O1  UNL     1      23.626   4.664  49.694  1.00  0.00    -0.258 OA
HETATM   12  H10 UNL     1      25.368   5.391  52.234  1.00  0.00     0.171 HD
BRANCH  10  13
HETATM   13  C6  UNL     1      25.964   5.049  49.585  1.00  0.00    -0.005 C 
HETATM   14  C5  UNL     1      27.018   5.110  48.994  1.00  0.00    -0.096 C 
BRANCH  14  15
HETATM   15  C4  UNL     1      28.302   5.172  48.300  1.00  0.00     0.094 C 
BRANCH  15  16
HETATM   16  C3  UNL     1      28.554   6.608  47.842  1.00  0.00     0.012 C 
BRANCH  16  17
HETATM   17  C2  UNL     1      30.050   6.797  47.772  1.00  0.00    -0.004 C 
HETATM   18  C1  UNL     1      30.386   7.929  48.719  1.00  0.00     0.005 C 
ENDBRANCH  16  17
ENDBRANCH  15  16
ENDBRANCH  14  15
ENDBRANCH  10  13
ENDBRANCH   8   9
BRANCH   8  19
HETATM   19  N2  UNL     1      22.151   5.943  51.669  1.00  0.00    -0.385 N 
HETATM   20  H11 UNL     1      21.581   6.050  50.802  1.00  0.00     0.157 HD
HETATM   21  H12 UNL     1      21.508   6.757  51.720  1.00  0.00     0.157 HD
ENDBRANCH   8  19
ENDBRANCH   1   7
BRANCH   6  22
HETATM   22  N5  UNL     1      21.623   1.100  52.329  1.00  0.00    -0.340 N 
HETATM   23  H16 UNL     1      21.501   2.060  51.874  1.00  0.00     0.167 HD
BRANCH  22  24
HETATM   24  C14 UNL     1      20.360   0.575  52.112  1.00  0.00     0.035 A 
HETATM   25  C15 UNL     1      20.105  -0.219  53.240  1.00  0.00     0.032 A 
HETATM   26  C16 UNL     1      18.904  -0.947  53.333  1.00  0.00     0.046 A 
HETATM   27  C17 UNL     1      18.023  -0.824  52.263  1.00  0.00     0.138 A 
HETATM   28  F1  UNL     1      16.838  -1.464  52.214  1.00  0.00    -0.204 F 
HETATM   29  C18 UNL     1      18.336  -0.037  51.203  1.00  0.00     0.074 A 
HETATM   30 CL1  UNL     1      17.275   0.169  49.794  1.00  0.00    -0.081 Cl
HETATM   31  C19 UNL     1      19.486   0.695  51.056  1.00  0.00     0.056 A 
ENDBRANCH  22  24
ENDBRANCH   6  22
TORSDOF 9
ENDMDL
MODEL 7
REMARK VINA RESULT:      -6.6      5.777      9.520
REMARK  9 active torsions:
REMARK  status: ('A' for Active; 'I' for Inactive)
REMARK    1  A    between atoms: C2_2  and  C3_3 
REMARK    2  A    between atoms: C3_3  and  C4_4 
REMARK    3  A    between atoms: C4_4  and  C5_5 
REMARK    4  A    between atoms: C6_6  and  C7_7 
REMARK       I    between atoms: C7_7  and  N1_9 
REMARK    5  A    between atoms: N1_9  and  C8_10 
REMARK    6  A    between atoms: C8_10  and  N2_11 
REMARK    7  A    between atoms: C9_12  and  C10_13 
REMARK    8  A    between atoms: C13_18  and  N5_19 
REMARK    9  A    between atoms: N5_19  and  C14_20 
ROOT
HETATM    1  C10 UNL     1      18.633   0.138  51.501  1.00  0.00     0.031 A 
HETATM    2  C11 UNL     1      17.438  -0.536  51.580  1.00  0.00     0.133 A 
HETATM    3  N3  UNL     1      17.263  -1.398  52.586  1.00  0.00    -0.253 NA
HETATM    4  C12 UNL     1      18.160  -1.671  53.540  1.00  0.00     0.234 A 
HETATM    5  N4  UNL     1      19.319  -1.002  53.443  1.00  0.00    -0.224 NA
HETATM    6  C13 UNL     1      19.588  -0.119  52.473  1.00  0.00     0.141 A 
ENDROOT
BRANCH   1   7
HETATM    7  C9  UNL     1      19.026   1.119  50.514  1.00  0.00     0.065 C 
HETATM    8  C8  UNL     1      18.777   2.411  50.679  1.00  0.00     0.102 C 
BRANCH   8   9
HETATM    9  N1  UNL     1      18.112   2.912  51.832  1.00  0.00    -0.302 N 
HETATM   10  C7  UNL     1      16.756   3.158  51.490  1.00  0.00     0.302 C 
HETATM   11  O1  UNL     1      16.534   2.860  50.263  1.00  0.00    -0.258 OA
HETATM   12  H10 UNL     1      18.363   3.137  52.831  1.00  0.00     0.171 HD
BRANCH  10  13
HETATM   13  C6  UNL     1      15.723   3.667  52.340  1.00  0.00    -0.005 C 
HETATM   14  C5  UNL     1      14.837   4.082  53.051  1.00  0.00    -0.096 C 
BRANCH  14  15
HETATM   15  C4  UNL     1      13.749   4.576  53.893  1.00  0.00     0.094 C 
BRANCH  15  16
HETATM   16  C3  UNL     1      12.413   4.184  53.264  1.00  0.00     0.012 C 
BRANCH  16  17
HETATM   17  C2  UNL     1      12.199   2.718  53.553  1.00  0.00    -0.004 C 
HETATM   18  C1  UNL     1      11.485   2.641  54.886  1.00  0.00     0.005 C 
ENDBRANCH  16  17
ENDBRANCH  15  16
ENDBRANCH  14  15
ENDBRANCH  10  13
ENDBRANCH   8   9
BRANCH   8  19
HETATM   19  N2  UNL     1      19.242   3.256  49.648  1.00  0.00    -0.385 N 
HETATM   20  H11 UNL     1      19.694   4.190  49.747  1.00  0.00     0.157 HD
HETATM   21  H12 UNL     1      19.492   3.671  48.729  1.00  0.00     0.157 HD
ENDBRANCH   8  19
ENDBRANCH   1   7
BRANCH   6  22
HETATM   22  N5  UNL     1      20.872   0.375  52.632  1.00  0.00    -0.340 N 
HETATM   23  H16 UNL     1      20.503   1.339  52.351  1.00  0.00     0.167 HD
BRANCH  22  24
HETATM   24  C14 UNL     1      22.206   0.684  52.835  1.00  0.00     0.035 A 
HETATM   25  C15 UNL     1      22.314   2.041  52.496  1.00  0.00     0.032 A 
HETATM   26  C16 UNL     1      23.565   2.684  52.548  1.00  0.00     0.046 A 
HETATM   27  C17 UNL     1      24.645   1.903  52.947  1.00  0.00     0.138 A 
HETATM   28  F1  UNL     1      25.900   2.384  53.040  1.00  0.00    -0.204 F 
HETATM   29  C18 UNL     1      24.466   0.595  53.262  1.00  0.00     0.074 A 
HETATM   30 CL1  UNL     1      25.789  -0.475  53.771  1.00  0.00    -0.081 Cl
HETATM   31  C19 UNL     1      23.276  -0.085  53.231  1.00  0.00     0.056 A 
ENDBRANCH  22  24
ENDBRANCH   6  22
TORSDOF 9
ENDMDL
MODEL 8
REMARK VINA RESULT:      -6.5      3.950      5.107
REMARK  9 active torsions:
REMARK  status: ('A' for Active; 'I' for Inactive)
REMARK    1  A    between atoms: C2_2  and  C3_3 
REMARK    2  A    between atoms: C3_3  and  C4_4 
REMARK    3  A    between atoms: C4_4  and  C5_5 
REMARK    4  A    between atoms: C6_6  and  C7_7 
REMARK       I    between atoms: C7_7  and  N1_9 
REMARK    5  A    between atoms: N1_9  and  C8_10 
REMARK    6  A    between atoms: C8_10  and  N2_11 
REMARK    7  A    between atoms: C9_12  and  C10_13 
REMARK    8  A    between atoms: C13_18  and  N5_19 
REMARK    9  A    between atoms: N5_19  and  C14_20 
ROOT
HETATM    1  C10 UNL     1      21.619   3.364  52.237  1.00  0.00     0.031 A 
HETATM    2  C11 UNL     1      20.315   3.513  51.830  1.00  0.00     0.133 A 
HETATM    3  N3  UNL     1      19.604   2.411  51.573  1.00  0.00    -0.253 NA
HETATM    4  C12 UNL     1      20.052   1.154  51.675  1.00  0.00     0.234 A 
HETATM    5  N4  UNL     1      21.328   1.034  52.074  1.00  0.00    -0.224 NA
HETATM    6  C13 UNL     1      22.119   2.077  52.355  1.00  0.00     0.141 A 
ENDROOT
BRANCH   1   7
HETATM    7  C9  UNL     1      22.557   4.410  52.581  1.00  0.00     0.065 C 
HETATM    8  C8  UNL     1      23.394   4.917  51.686  1.00  0.00     0.102 C 
BRANCH   8   9
HETATM    9  N1  UNL     1      23.422   4.468  50.336  1.00  0.00    -0.302 N 
HETATM   10  C7  UNL     1      22.719   5.413  49.541  1.00  0.00     0.302 C 
HETATM   11  O1  UNL     1      22.276   6.375  50.263  1.00  0.00    -0.258 OA
HETATM   12  H10 UNL     1      23.814   3.649  49.804  1.00  0.00     0.171 HD
BRANCH  10  13
HETATM   13  C6  UNL     1      22.496   5.365  48.128  1.00  0.00    -0.005 C 
HETATM   14  C5  UNL     1      22.288   5.331  46.937  1.00  0.00    -0.096 C 
BRANCH  14  15
HETATM   15  C4  UNL     1      22.012   5.279  45.503  1.00  0.00     0.094 C 
BRANCH  15  16
HETATM   16  C3  UNL     1      21.642   3.848  45.117  1.00  0.00     0.012 C 
BRANCH  16  17
HETATM   17  C2  UNL     1      20.609   3.936  44.019  1.00  0.00    -0.004 C 
HETATM   18  C1  UNL     1      19.448   4.727  44.583  1.00  0.00     0.005 C 
ENDBRANCH  16  17
ENDBRANCH  15  16
ENDBRANCH  14  15
ENDBRANCH  10  13
ENDBRANCH   8   9
BRANCH   8  19
HETATM   19  N2  UNL     1      24.234   5.951  52.156  1.00  0.00    -0.385 N 
HETATM   20  H11 UNL     1      25.238   6.108  51.925  1.00  0.00     0.157 HD
HETATM   21  H12 UNL     1      24.620   6.787  52.636  1.00  0.00     0.157 HD
ENDBRANCH   8  19
ENDBRANCH   1   7
BRANCH   6  22
HETATM   22  N5  UNL     1      23.381   1.625  52.706  1.00  0.00    -0.340 N 
HETATM   23  H16 UNL     1      23.143   0.692  52.240  1.00  0.00     0.167 HD
BRANCH  22  24
HETATM   24  C14 UNL     1      24.666   1.349  53.142  1.00  0.00     0.035 A 
HETATM   25  C15 UNL     1      24.586   0.062  53.696  1.00  0.00     0.032 A 
HETATM   26  C16 UNL     1      25.723  -0.525  54.281  1.00  0.00     0.046 A 
HETATM   27  C17 UNL     1      26.887   0.237  54.270  1.00  0.00     0.138 A 
HETATM   28  F1  UNL     1      28.049  -0.196  54.795  1.00  0.00    -0.204 F 
HETATM   29  C18 UNL     1      26.891   1.475  53.715  1.00  0.00     0.074 A 
HETATM   30 CL1  UNL     1      28.329   2.517  53.665  1.00  0.00    -0.081 Cl
HETATM   31  C19 UNL     1      25.819   2.099  53.130  1.00  0.00     0.056 A 
ENDBRANCH  22  24
ENDBRANCH   6  22
TORSDOF 9
ENDMDL
MODEL 9
REMARK VINA RESULT:      -6.5      3.146      4.989
REMARK  9 active torsions:
REMARK  status: ('A' for Active; 'I' for Inactive)
REMARK    1  A    between atoms: C2_2  and  C3_3 
REMARK    2  A    between atoms: C3_3  and  C4_4 
REMARK    3  A    between atoms: C4_4  and  C5_5 
REMARK    4  A    between atoms: C6_6  and  C7_7 
REMARK       I    between atoms: C7_7  and  N1_9 
REMARK    5  A    between atoms: N1_9  and  C8_10 
REMARK    6  A    between atoms: C8_10  and  N2_11 
REMARK    7  A    between atoms: C9_12  and  C10_13 
REMARK    8  A    between atoms: C13_18  and  N5_19 
REMARK    9  A    between atoms: N5_19  and  C14_20 
ROOT
HETATM    1  C10 UNL     1      23.396   3.843  49.916  1.00  0.00     0.031 A 
HETATM    2  C11 UNL     1      23.235   4.385  48.662  1.00  0.00     0.133 A 
HETATM    3  N3  UNL     1      22.629   3.646  47.729  1.00  0.00    -0.253 NA
HETATM    4  C12 UNL     1      22.155   2.407  47.902  1.00  0.00     0.234 A 
HETATM    5  N4  UNL     1      22.323   1.900  49.134  1.00  0.00    -0.224 NA
HETATM    6  C13 UNL     1      22.918   2.561  50.135  1.00  0.00     0.141 A 
ENDROOT
BRANCH   1   7
HETATM    7  C9  UNL     1      24.004   4.466  51.071  1.00  0.00     0.065 C 
HETATM    8  C8  UNL     1      23.372   5.394  51.775  1.00  0.00     0.102 C 
BRANCH   8   9
HETATM    9  N1  UNL     1      22.060   5.835  51.442  1.00  0.00    -0.302 N 
HETATM   10  C7  UNL     1      22.165   7.104  50.814  1.00  0.00     0.302 C 
HETATM   11  O1  UNL     1      23.390   7.472  50.732  1.00  0.00    -0.258 OA
HETATM   12  H10 UNL     1      21.076   5.471  51.541  1.00  0.00     0.171 HD
BRANCH  10  13
HETATM   13  C6  UNL     1      21.099   7.918  50.315  1.00  0.00    -0.005 C 
HETATM   14  C5  UNL     1      20.195   8.614  49.914  1.00  0.00    -0.096 C 
BRANCH  14  15
HETATM   15  C4  UNL     1      19.089   9.450  49.450  1.00  0.00     0.094 C 
BRANCH  15  16
HETATM   16  C3  UNL     1      19.547  10.908  49.415  1.00  0.00     0.012 C 
BRANCH  16  17
HETATM   17  C2  UNL     1      19.986  11.202  48.000  1.00  0.00    -0.004 C 
HETATM   18  C1  UNL     1      21.100  12.223  48.099  1.00  0.00     0.005 C 
ENDBRANCH  16  17
ENDBRANCH  15  16
ENDBRANCH  14  15
ENDBRANCH  10  13
ENDBRANCH   8   9
BRANCH   8  19
HETATM   19  N2  UNL     1      24.075   5.894  52.893  1.00  0.00    -0.385 N 
HETATM   20  H11 UNL     1      23.904   6.785  53.406  1.00  0.00     0.157 HD
HETATM   21  H12 UNL     1      24.737   6.025  53.683  1.00  0.00     0.157 HD
ENDBRANCH   8  19
ENDBRANCH   1   7
BRANCH   6  22
HETATM   22  N5  UNL     1      22.963   1.759  51.263  1.00  0.00    -0.340 N 
HETATM   23  H16 UNL     1      22.085   2.257  51.615  1.00  0.00     0.167 HD
BRANCH  22  24
HETATM   24  C14 UNL     1      23.172   0.881  52.313  1.00  0.00     0.035 A 
HETATM   25  C15 UNL     1      24.529   1.027  52.636  1.00  0.00     0.032 A 
HETATM   26  C16 UNL     1      25.102   0.239  53.652  1.00  0.00     0.046 A 
HETATM   27  C17 UNL     1      24.252  -0.661  54.288  1.00  0.00     0.138 A 
HETATM   28  F1  UNL     1      24.662  -1.480  55.276  1.00  0.00    -0.204 F 
HETATM   29  C18 UNL     1      22.948  -0.748  53.923  1.00  0.00     0.074 A 
HETATM   30 CL1  UNL     1      21.799  -1.874  54.675  1.00  0.00    -0.081 Cl
HETATM   31  C19 UNL     1      22.335  -0.009  52.945  1.00  0.00     0.056 A 
ENDBRANCH  22  24
ENDBRANCH   6  22
TORSDOF 9
ENDMDL
