MODEL 1
REMARK VINA RESULT:      -8.6      0.000      0.000
REMARK  5 active torsions:
REMARK  status: ('A' for Active; 'I' for Inactive)
REMARK    1  A    between atoms: O1_1  and  C1_2 
REMARK    2  A    between atoms: C3_5  and  N1_6 
REMARK    3  A    between atoms: N1_6  and  C4_7 
REMARK    4  A    between atoms: N1_6  and  N2_15 
REMARK    5  A    between atoms: C4_7  and  C5_8 
ROOT
HETATM    1  N1  UNL     1      26.294   0.468  54.364  1.00  0.00    -0.242 N 
ENDROOT
BRANCH   1   2
HETATM    2  C3  UNL     1      27.387  -0.371  53.947  1.00  0.00     0.192 A 
HETATM    3  S1  UNL     1      29.078   0.387  53.928  1.00  0.00    -0.058 SA
HETATM    4  C2  UNL     1      29.849  -1.183  53.333  1.00  0.00     0.111 A 
HETATM    5  C1  UNL     1      28.625  -2.059  53.246  1.00  0.00     0.171 A 
HETATM    6  N3  UNL     1      27.488  -1.478  53.593  1.00  0.00    -0.198 NA
BRANCH   5   7
HETATM    7  O1  UNL     1      28.540  -3.402  52.846  1.00  0.00    -0.344 OA
HETATM    8  H1  UNL     1      29.180  -3.842  52.213  1.00  0.00     0.219 HD
ENDBRANCH   5   7
ENDBRANCH   1   2
BRANCH   1   9
HETATM    9  C4  UNL     1      26.046   1.863  54.250  1.00  0.00     0.192 C 
BRANCH   9  10
HETATM   10  C5  UNL     1      25.745   2.363  52.902  1.00  0.00    -0.038 A 
HETATM   11  C6  UNL     1      24.555   3.081  52.875  1.00  0.00     0.010 A 
HETATM   12  C7  UNL     1      24.052   3.643  51.712  1.00  0.00     0.024 A 
HETATM   13  C8  UNL     1      24.704   3.519  50.527  1.00  0.00     0.034 A 
HETATM   14 CL1  UNL     1      24.178   4.177  48.995  1.00  0.00    -0.084 Cl
HETATM   15  C9  UNL     1      25.903   2.798  50.539  1.00  0.00     0.024 A 
HETATM   16  C10 UNL     1      26.391   2.248  51.692  1.00  0.00     0.010 A 
ENDBRANCH   9  10
ENDBRANCH   1   9
BRANCH   1  17
HETATM   17  N2  UNL     1      25.276  -0.237  55.014  1.00  0.00    -0.179 NA
HETATM   18  C11 UNL     1      24.238  -0.731  54.428  1.00  0.00     0.039 C 
HETATM   19  C12 UNL     1      23.421  -1.388  55.452  1.00  0.00     0.083 C 
HETATM   20  C17 UNL     1      24.089  -0.552  52.961  1.00  0.00     0.085 C 
HETATM   21  C13 UNL     1      22.036  -1.696  55.030  1.00  0.00    -0.019 C 
HETATM   22  C14 UNL     1      21.224  -1.225  54.076  1.00  0.00     0.020 C 
HETATM   23  C15 UNL     1      21.585  -0.169  53.131  1.00  0.00     0.030 C 
HETATM   24 CL2  UNL     1      20.222   0.811  52.581  1.00  0.00    -0.085 Cl
HETATM   25  C16 UNL     1      22.789   0.112  52.663  1.00  0.00     0.003 C 
ENDBRANCH   1  17
TORSDOF 5
ENDMDL
MODEL 2
REMARK VINA RESULT:      -8.0      3.291      5.296
REMARK  5 active torsions:
REMARK  status: ('A' for Active; 'I' for Inactive)
REMARK    1  A    between atoms: O1_1  and  C1_2 
REMARK    2  A    between atoms: C3_5  and  N1_6 
REMARK    3  A    between atoms: N1_6  and  C4_7 
REMARK    4  A    between atoms: N1_6  and  N2_15 
REMARK    5  A    between atoms: C4_7  and  C5_8 
ROOT
HETATM    1  N1  UNL     1      24.062   1.122  52.674  1.00  0.00    -0.242 N 
ENDROOT
BRANCH   1   2
HETATM    2  C3  UNL     1      23.307   0.162  53.438  1.00  0.00     0.192 A 
HETATM    3  S1  UNL     1      21.562  -0.163  52.905  1.00  0.00    -0.058 SA
HETATM    4  C2  UNL     1      21.304  -1.390  54.262  1.00  0.00     0.111 A 
HETATM    5  C1  UNL     1      22.659  -1.339  54.922  1.00  0.00     0.171 A 
HETATM    6  N3  UNL     1      23.526  -0.506  54.369  1.00  0.00    -0.198 NA
BRANCH   5   7
HETATM    7  O1  UNL     1      23.112  -2.057  56.040  1.00  0.00    -0.344 OA
HETATM    8  H1  UNL     1      23.351  -1.638  56.918  1.00  0.00     0.219 HD
ENDBRANCH   5   7
ENDBRANCH   1   2
BRANCH   1   9
HETATM    9  C4  UNL     1      23.853   1.728  51.405  1.00  0.00     0.192 C 
BRANCH   9  10
HETATM   10  C5  UNL     1      23.763   3.194  51.390  1.00  0.00    -0.038 A 
HETATM   11  C6  UNL     1      24.628   3.751  50.456  1.00  0.00     0.010 A 
HETATM   12  C7  UNL     1      24.734   5.120  50.265  1.00  0.00     0.024 A 
HETATM   13  C8  UNL     1      23.988   5.995  50.989  1.00  0.00     0.034 A 
HETATM   14 CL1  UNL     1      24.027   7.737  50.844  1.00  0.00    -0.084 Cl
HETATM   15  C9  UNL     1      23.113   5.448  51.932  1.00  0.00     0.024 A 
HETATM   16  C10 UNL     1      23.017   4.096  52.114  1.00  0.00     0.010 A 
ENDBRANCH   9  10
ENDBRANCH   1   9
BRANCH   1  17
HETATM   17  N2  UNL     1      25.235   1.534  53.313  1.00  0.00    -0.179 NA
HETATM   18  C11 UNL     1      26.421   1.137  52.993  1.00  0.00     0.039 C 
HETATM   19  C12 UNL     1      27.368   1.796  53.896  1.00  0.00     0.083 C 
HETATM   20  C17 UNL     1      26.578   0.174  51.873  1.00  0.00     0.085 C 
HETATM   21  C13 UNL     1      28.721   1.197  53.913  1.00  0.00    -0.019 C 
HETATM   22  C14 UNL     1      29.216  -0.000  53.579  1.00  0.00     0.020 C 
HETATM   23  C15 UNL     1      28.417  -1.110  53.062  1.00  0.00     0.030 C 
HETATM   24 CL2  UNL     1      29.047  -2.710  53.467  1.00  0.00    -0.085 Cl
HETATM   25  C16 UNL     1      27.308  -1.035  52.345  1.00  0.00     0.003 C 
ENDBRANCH   1  17
TORSDOF 5
ENDMDL
MODEL 3
REMARK VINA RESULT:      -7.9      3.712      6.419
REMARK  5 active torsions:
REMARK  status: ('A' for Active; 'I' for Inactive)
REMARK    1  A    between atoms: O1_1  and  C1_2 
REMARK    2  A    between atoms: C3_5  and  N1_6 
REMARK    3  A    between atoms: N1_6  and  C4_7 
REMARK    4  A    between atoms: N1_6  and  N2_15 
REMARK    5  A    between atoms: C4_7  and  C5_8 
ROOT
HETATM    1  N1  UNL     1      24.598   1.957  53.082  1.00  0.00    -0.242 N 
ENDROOT
BRANCH   1   2
HETATM    2  C3  UNL     1      24.150   3.099  52.329  1.00  0.00     0.192 A 
HETATM    3  S1  UNL     1      24.761   3.258  50.586  1.00  0.00    -0.058 SA
HETATM    4  C2  UNL     1      23.827   4.832  50.330  1.00  0.00     0.111 A 
HETATM    5  C1  UNL     1      23.177   4.973  51.683  1.00  0.00     0.171 A 
HETATM    6  N3  UNL     1      23.457   4.012  52.548  1.00  0.00    -0.198 NA
BRANCH   5   7
HETATM    7  O1  UNL     1      22.321   5.989  52.137  1.00  0.00    -0.344 OA
HETATM    8  H1  UNL     1      22.359   6.939  51.822  1.00  0.00     0.219 HD
ENDBRANCH   5   7
ENDBRANCH   1   2
BRANCH   1   9
HETATM    9  C4  UNL     1      23.991   0.713  53.406  1.00  0.00     0.192 C 
BRANCH   9  10
HETATM   10  C5  UNL     1      22.618   0.512  52.922  1.00  0.00    -0.038 A 
HETATM   11  C6  UNL     1      21.746   0.217  53.963  1.00  0.00     0.010 A 
HETATM   12  C7  UNL     1      20.397  -0.026  53.755  1.00  0.00     0.024 A 
HETATM   13  C8  UNL     1      19.854   0.012  52.510  1.00  0.00     0.034 A 
HETATM   14 CL1  UNL     1      18.175  -0.274  52.116  1.00  0.00    -0.084 Cl
HETATM   15  C9  UNL     1      20.721   0.308  51.454  1.00  0.00     0.024 A 
HETATM   16  C10 UNL     1      22.050   0.546  51.669  1.00  0.00     0.010 A 
ENDBRANCH   9  10
ENDBRANCH   1   9
BRANCH   1  17
HETATM   17  N2  UNL     1      25.889   2.109  53.597  1.00  0.00    -0.179 NA
HETATM   18  C11 UNL     1      26.931   1.487  53.157  1.00  0.00     0.039 C 
HETATM   19  C12 UNL     1      28.078   1.921  53.958  1.00  0.00     0.083 C 
HETATM   20  C17 UNL     1      26.775   0.537  52.025  1.00  0.00     0.085 C 
HETATM   21  C13 UNL     1      29.276   1.061  53.836  1.00  0.00    -0.019 C 
HETATM   22  C14 UNL     1      29.480  -0.205  53.452  1.00  0.00     0.020 C 
HETATM   23  C15 UNL     1      28.424  -1.119  53.018  1.00  0.00     0.030 C 
HETATM   24 CL2  UNL     1      28.752  -2.821  53.356  1.00  0.00    -0.085 Cl
HETATM   25  C16 UNL     1      27.288  -0.805  52.420  1.00  0.00     0.003 C 
ENDBRANCH   1  17
TORSDOF 5
ENDMDL
MODEL 4
REMARK VINA RESULT:      -7.7      3.574      6.526
REMARK  5 active torsions:
REMARK  status: ('A' for Active; 'I' for Inactive)
REMARK    1  A    between atoms: O1_1  and  C1_2 
REMARK    2  A    between atoms: C3_5  and  N1_6 
REMARK    3  A    between atoms: N1_6  and  C4_7 
REMARK    4  A    between atoms: N1_6  and  N2_15 
REMARK    5  A    between atoms: C4_7  and  C5_8 
ROOT
HETATM    1  N1  UNL     1      24.196   2.495  53.001  1.00  0.00    -0.242 N 
ENDROOT
BRANCH   1   2
HETATM    2  C3  UNL     1      23.092   1.572  52.981  1.00  0.00     0.192 A 
HETATM    3  S1  UNL     1      21.498   2.174  52.250  1.00  0.00    -0.058 SA
HETATM    4  C2  UNL     1      20.662   0.557  52.570  1.00  0.00     0.111 A 
HETATM    5  C1  UNL     1      21.797  -0.202  53.210  1.00  0.00     0.171 A 
HETATM    6  N3  UNL     1      22.931   0.471  53.330  1.00  0.00    -0.198 NA
BRANCH   5   7
HETATM    7  O1  UNL     1      21.803  -1.520  53.692  1.00  0.00    -0.344 OA
HETATM    8  H1  UNL     1      21.156  -1.874  54.371  1.00  0.00     0.219 HD
ENDBRANCH   5   7
ENDBRANCH   1   2
BRANCH   1   9
HETATM    9  C4  UNL     1      25.506   2.426  53.550  1.00  0.00     0.192 C 
BRANCH   9  10
HETATM   10  C5  UNL     1      26.257   1.190  53.289  1.00  0.00    -0.038 A 
HETATM   11  C6  UNL     1      27.244   0.979  54.245  1.00  0.00     0.010 A 
HETATM   12  C7  UNL     1      28.093  -0.116  54.206  1.00  0.00     0.024 A 
HETATM   13  C8  UNL     1      28.002  -1.048  53.222  1.00  0.00     0.034 A 
HETATM   14 CL1  UNL     1      29.008  -2.468  53.060  1.00  0.00    -0.084 Cl
HETATM   15  C9  UNL     1      27.013  -0.847  52.253  1.00  0.00     0.024 A 
HETATM   16  C10 UNL     1      26.180   0.237  52.300  1.00  0.00     0.010 A 
ENDBRANCH   9  10
ENDBRANCH   1   9
BRANCH   1  17
HETATM   17  N2  UNL     1      23.917   3.702  52.351  1.00  0.00    -0.179 NA
HETATM   18  C11 UNL     1      24.214   3.957  51.121  1.00  0.00     0.039 C 
HETATM   19  C12 UNL     1      23.756   5.317  50.827  1.00  0.00     0.083 C 
HETATM   20  C17 UNL     1      24.901   2.912  50.318  1.00  0.00     0.085 C 
HETATM   21  C13 UNL     1      24.321   5.903  49.591  1.00  0.00    -0.019 C 
HETATM   22  C14 UNL     1      25.407   5.650  48.850  1.00  0.00     0.020 C 
HETATM   23  C15 UNL     1      26.387   4.607  49.148  1.00  0.00     0.030 C 
HETATM   24 CL2  UNL     1      28.026   4.972  48.601  1.00  0.00    -0.085 Cl
HETATM   25  C16 UNL     1      26.173   3.457  49.765  1.00  0.00     0.003 C 
ENDBRANCH   1  17
TORSDOF 5
ENDMDL
MODEL 5
REMARK VINA RESULT:      -7.7      4.048      5.614
REMARK  5 active torsions:
REMARK  status: ('A' for Active; 'I' for Inactive)
REMARK    1  A    between atoms: O1_1  and  C1_2 
REMARK    2  A    between atoms: C3_5  and  N1_6 
REMARK    3  A    between atoms: N1_6  and  C4_7 
REMARK    4  A    between atoms: N1_6  and  N2_15 
REMARK    5  A    between atoms: C4_7  and  C5_8 
ROOT
HETATM    1  N1  UNL     1      23.840   2.229  51.996  1.00  0.00    -0.242 N 
ENDROOT
BRANCH   1   2
HETATM    2  C3  UNL     1      23.478   3.616  51.864  1.00  0.00     0.192 A 
HETATM    3  S1  UNL     1      21.734   3.993  51.361  1.00  0.00    -0.058 SA
HETATM    4  C2  UNL     1      22.042   5.815  51.408  1.00  0.00     0.111 A 
HETATM    5  C1  UNL     1      23.493   5.824  51.820  1.00  0.00     0.171 A 
HETATM    6  N3  UNL     1      24.037   4.631  52.000  1.00  0.00    -0.198 NA
BRANCH   5   7
HETATM    7  O1  UNL     1      24.332   6.929  52.033  1.00  0.00    -0.344 OA
HETATM    8  H1  UNL     1      24.290   7.778  51.502  1.00  0.00     0.219 HD
ENDBRANCH   5   7
ENDBRANCH   1   2
BRANCH   1   9
HETATM    9  C4  UNL     1      24.759   1.398  51.299  1.00  0.00     0.192 C 
BRANCH   9  10
HETATM   10  C5  UNL     1      26.022   1.101  51.989  1.00  0.00    -0.038 A 
HETATM   11  C6  UNL     1      26.190  -0.264  52.186  1.00  0.00     0.010 A 
HETATM   12  C7  UNL     1      27.300  -0.790  52.828  1.00  0.00     0.024 A 
HETATM   13  C8  UNL     1      28.290   0.010  53.301  1.00  0.00     0.034 A 
HETATM   14 CL1  UNL     1      29.735  -0.527  54.125  1.00  0.00    -0.084 Cl
HETATM   15  C9  UNL     1      28.133   1.387  53.109  1.00  0.00     0.024 A 
HETATM   16  C10 UNL     1      27.034   1.897  52.475  1.00  0.00     0.010 A 
ENDBRANCH   9  10
ENDBRANCH   1   9
BRANCH   1  17
HETATM   17  N2  UNL     1      23.141   1.572  53.014  1.00  0.00    -0.179 NA
HETATM   18  C11 UNL     1      22.236   0.673  52.819  1.00  0.00     0.039 C 
HETATM   19  C12 UNL     1      21.753   0.238  54.131  1.00  0.00     0.083 C 
HETATM   20  C17 UNL     1      21.894   0.290  51.424  1.00  0.00     0.085 C 
HETATM   21  C13 UNL     1      20.481  -0.518  54.099  1.00  0.00    -0.019 C 
HETATM   22  C14 UNL     1      19.475  -0.616  53.222  1.00  0.00     0.020 C 
HETATM   23  C15 UNL     1      19.417   0.099  51.948  1.00  0.00     0.030 C 
HETATM   24 CL2  UNL     1      17.780   0.472  51.398  1.00  0.00    -0.085 Cl
HETATM   25  C16 UNL     1      20.434   0.479  51.194  1.00  0.00     0.003 C 
ENDBRANCH   1  17
TORSDOF 5
ENDMDL
MODEL 6
REMARK VINA RESULT:      -7.7      3.426      5.858
REMARK  5 active torsions:
REMARK  status: ('A' for Active; 'I' for Inactive)
REMARK    1  A    between atoms: O1_1  and  C1_2 
REMARK    2  A    between atoms: C3_5  and  N1_6 
REMARK    3  A    between atoms: N1_6  and  C4_7 
REMARK    4  A    between atoms: N1_6  and  N2_15 
REMARK    5  A    between atoms: C4_7  and  C5_8 
ROOT
HETATM    1  N1  UNL     1      23.857   1.276  52.606  1.00  0.00    -0.242 N 
ENDROOT
BRANCH   1   2
HETATM    2  C3  UNL     1      23.147   0.281  53.368  1.00  0.00     0.192 A 
HETATM    3  S1  UNL     1      21.409  -0.102  52.848  1.00  0.00    -0.058 SA
HETATM    4  C2  UNL     1      21.211  -1.352  54.195  1.00  0.00     0.111 A 
HETATM    5  C1  UNL     1      22.570  -1.259  54.841  1.00  0.00     0.171 A 
HETATM    6  N3  UNL     1      23.400  -0.389  54.289  1.00  0.00    -0.198 NA
BRANCH   5   7
HETATM    7  O1  UNL     1      23.061  -1.972  55.946  1.00  0.00    -0.344 OA
HETATM    8  H1  UNL     1      23.017  -2.969  56.036  1.00  0.00     0.219 HD
ENDBRANCH   5   7
ENDBRANCH   1   2
BRANCH   1   9
HETATM    9  C4  UNL     1      24.951   1.203  51.701  1.00  0.00     0.192 C 
BRANCH   9  10
HETATM   10  C5  UNL     1      26.250   0.832  52.278  1.00  0.00    -0.038 A 
HETATM   11  C6  UNL     1      26.439  -0.545  52.271  1.00  0.00     0.010 A 
HETATM   12  C7  UNL     1      27.586  -1.140  52.774  1.00  0.00     0.024 A 
HETATM   13  C8  UNL     1      28.592  -0.399  53.306  1.00  0.00     0.034 A 
HETATM   14 CL1  UNL     1      30.083  -1.026  53.972  1.00  0.00    -0.084 Cl
HETATM   15  C9  UNL     1      28.415   0.988  53.320  1.00  0.00     0.024 A 
HETATM   16  C10 UNL     1      27.281   1.566  52.821  1.00  0.00     0.010 A 
ENDBRANCH   9  10
ENDBRANCH   1   9
BRANCH   1  17
HETATM   17  N2  UNL     1      23.370   2.572  52.804  1.00  0.00    -0.179 NA
HETATM   18  C11 UNL     1      22.708   3.247  51.925  1.00  0.00     0.039 C 
HETATM   19  C12 UNL     1      22.382   4.546  52.518  1.00  0.00     0.083 C 
HETATM   20  C17 UNL     1      22.431   2.627  50.604  1.00  0.00     0.085 C 
HETATM   21  C13 UNL     1      21.943   5.573  51.546  1.00  0.00    -0.019 C 
HETATM   22  C14 UNL     1      22.092   5.732  50.226  1.00  0.00     0.020 C 
HETATM   23  C15 UNL     1      22.815   4.805  49.357  1.00  0.00     0.030 C 
HETATM   24 CL2  UNL     1      23.564   5.563  47.949  1.00  0.00    -0.085 Cl
HETATM   25  C16 UNL     1      22.957   3.500  49.517  1.00  0.00     0.003 C 
ENDBRANCH   1  17
TORSDOF 5
ENDMDL
MODEL 7
REMARK VINA RESULT:      -7.6      3.384      4.540
REMARK  5 active torsions:
REMARK  status: ('A' for Active; 'I' for Inactive)
REMARK    1  A    between atoms: O1_1  and  C1_2 
REMARK    2  A    between atoms: C3_5  and  N1_6 
REMARK    3  A    between atoms: N1_6  and  C4_7 
REMARK    4  A    between atoms: N1_6  and  N2_15 
REMARK    5  A    between atoms: C4_7  and  C5_8 
ROOT
HETATM    1  N1  UNL     1      26.304   2.844  51.176  1.00  0.00    -0.242 N 
ENDROOT
BRANCH   1   2
HETATM    2  C3  UNL     1      27.135   2.187  52.151  1.00  0.00     0.192 A 
HETATM    3  S1  UNL     1      26.918   0.357  52.354  1.00  0.00    -0.058 SA
HETATM    4  C2  UNL     1      28.218   0.280  53.666  1.00  0.00     0.111 A 
HETATM    5  C1  UNL     1      28.615   1.734  53.726  1.00  0.00     0.171 A 
HETATM    6  N3  UNL     1      27.964   2.533  52.896  1.00  0.00    -0.198 NA
BRANCH   5   7
HETATM    7  O1  UNL     1      29.579   2.341  54.546  1.00  0.00    -0.344 OA
HETATM    8  H1  UNL     1      29.611   2.243  55.543  1.00  0.00     0.219 HD
ENDBRANCH   5   7
ENDBRANCH   1   2
BRANCH   1   9
HETATM    9  C4  UNL     1      26.378   2.958  49.760  1.00  0.00     0.192 C 
BRANCH   9  10
HETATM   10  C5  UNL     1      26.390   4.323  49.217  1.00  0.00    -0.038 A 
HETATM   11  C6  UNL     1      27.661   4.697  48.798  1.00  0.00     0.010 A 
HETATM   12  C7  UNL     1      27.928   5.946  48.259  1.00  0.00     0.024 A 
HETATM   13  C8  UNL     1      26.950   6.877  48.112  1.00  0.00     0.034 A 
HETATM   14 CL1  UNL     1      27.156   8.482  47.450  1.00  0.00    -0.084 Cl
HETATM   15  C9  UNL     1      25.666   6.513  48.530  1.00  0.00     0.024 A 
HETATM   16  C10 UNL     1      25.412   5.279  49.060  1.00  0.00     0.010 A 
ENDBRANCH   9  10
ENDBRANCH   1   9
BRANCH   1  17
HETATM   17  N2  UNL     1      25.208   3.502  51.741  1.00  0.00    -0.179 NA
HETATM   18  C11 UNL     1      24.004   3.037  51.758  1.00  0.00     0.039 C 
HETATM   19  C12 UNL     1      23.158   4.022  52.437  1.00  0.00     0.083 C 
HETATM   20  C17 UNL     1      23.737   1.713  51.139  1.00  0.00     0.085 C 
HETATM   21  C13 UNL     1      21.704   3.827  52.237  1.00  0.00    -0.019 C 
HETATM   22  C14 UNL     1      20.965   3.193  51.319  1.00  0.00     0.020 C 
HETATM   23  C15 UNL     1      21.513   2.468  50.174  1.00  0.00     0.030 C 
HETATM   24 CL2  UNL     1      20.461   2.449  48.755  1.00  0.00    -0.085 Cl
HETATM   25  C16 UNL     1      22.678   1.847  50.099  1.00  0.00     0.003 C 
ENDBRANCH   1  17
TORSDOF 5
ENDMDL
MODEL 8
REMARK VINA RESULT:      -7.5      4.295      5.942
REMARK  5 active torsions:
REMARK  status: ('A' for Active; 'I' for Inactive)
REMARK    1  A    between atoms: O1_1  and  C1_2 
REMARK    2  A    between atoms: C3_5  and  N1_6 
REMARK    3  A    between atoms: N1_6  and  C4_7 
REMARK    4  A    between atoms: N1_6  and  N2_15 
REMARK    5  A    between atoms: C4_7  and  C5_8 
ROOT
HETATM    1  N1  UNL     1      24.134   3.273  51.803  1.00  0.00    -0.242 N 
ENDROOT
BRANCH   1   2
HETATM    2  C3  UNL     1      24.430   4.588  51.297  1.00  0.00     0.192 A 
HETATM    3  S1  UNL     1      25.635   4.703  49.894  1.00  0.00    -0.058 SA
HETATM    4  C2  UNL     1      25.492   6.545  49.833  1.00  0.00     0.111 A 
HETATM    5  C1  UNL     1      24.501   6.767  50.947  1.00  0.00     0.171 A 
HETATM    6  N3  UNL     1      24.086   5.671  51.561  1.00  0.00    -0.198 NA
BRANCH   5   7
HETATM    7  O1  UNL     1      23.969   7.980  51.413  1.00  0.00    -0.344 OA
HETATM    8  H1  UNL     1      23.093   8.362  51.112  1.00  0.00     0.219 HD
ENDBRANCH   5   7
ENDBRANCH   1   2
BRANCH   1   9
HETATM    9  C4  UNL     1      24.404   2.629  53.041  1.00  0.00     0.192 C 
BRANCH   9  10
HETATM   10  C5  UNL     1      25.474   1.621  53.031  1.00  0.00    -0.038 A 
HETATM   11  C6  UNL     1      26.651   2.117  53.579  1.00  0.00     0.010 A 
HETATM   12  C7  UNL     1      27.806   1.357  53.669  1.00  0.00     0.024 A 
HETATM   13  C8  UNL     1      27.847   0.076  53.221  1.00  0.00     0.034 A 
HETATM   14 CL1  UNL     1      29.236  -0.984  53.276  1.00  0.00    -0.084 Cl
HETATM   15  C9  UNL     1      26.670  -0.436  52.666  1.00  0.00     0.024 A 
HETATM   16  C10 UNL     1      25.535   0.322  52.582  1.00  0.00     0.010 A 
ENDBRANCH   9  10
ENDBRANCH   1   9
BRANCH   1  17
HETATM   17  N2  UNL     1      23.442   2.474  50.888  1.00  0.00    -0.179 NA
HETATM   18  C11 UNL     1      22.181   2.208  50.953  1.00  0.00     0.039 C 
HETATM   19  C12 UNL     1      21.849   1.346  49.816  1.00  0.00     0.083 C 
HETATM   20  C17 UNL     1      21.385   2.779  52.071  1.00  0.00     0.085 C 
HETATM   21  C13 UNL     1      20.543   0.659  49.925  1.00  0.00    -0.019 C 
HETATM   22  C14 UNL     1      19.735   0.346  50.945  1.00  0.00     0.020 C 
HETATM   23  C15 UNL     1      20.013   0.660  52.346  1.00  0.00     0.030 C 
HETATM   24 CL2  UNL     1      19.322  -0.487  53.498  1.00  0.00    -0.085 Cl
HETATM   25  C16 UNL     1      20.707   1.682  52.818  1.00  0.00     0.003 C 
ENDBRANCH   1  17
TORSDOF 5
ENDMDL
MODEL 9
REMARK VINA RESULT:      -7.4      4.025      6.841
REMARK  5 active torsions:
REMARK  status: ('A' for Active; 'I' for Inactive)
REMARK    1  A    between atoms: O1_1  and  C1_2 
REMARK    2  A    between atoms: C3_5  and  N1_6 
REMARK    3  A    between atoms: N1_6  and  C4_7 
REMARK    4  A    between atoms: N1_6  and  N2_15 
REMARK    5  A    between atoms: C4_7  and  C5_8 
ROOT
HETATM    1  N1  UNL     1      23.986   1.401  51.796  1.00  0.00    -0.242 N 
ENDROOT
BRANCH   1   2
HETATM    2  C3  UNL     1      22.701   1.291  51.155  1.00  0.00     0.192 A 
HETATM    3  S1  UNL     1      21.229   1.022  52.249  1.00  0.00    -0.058 SA
HETATM    4  C2  UNL     1      20.077   0.987  50.805  1.00  0.00     0.111 A 
HETATM    5  C1  UNL     1      21.060   1.197  49.681  1.00  0.00     0.171 A 
HETATM    6  N3  UNL     1      22.324   1.328  50.052  1.00  0.00    -0.198 NA
BRANCH   5   7
HETATM    7  O1  UNL     1      20.806   1.270  48.302  1.00  0.00    -0.344 OA
HETATM    8  H1  UNL     1      19.980   1.674  47.903  1.00  0.00     0.219 HD
ENDBRANCH   5   7
ENDBRANCH   1   2
BRANCH   1   9
HETATM    9  C4  UNL     1      24.443   1.096  53.107  1.00  0.00     0.192 C 
BRANCH   9  10
HETATM   10  C5  UNL     1      25.739   0.409  53.201  1.00  0.00    -0.038 A 
HETATM   11  C6  UNL     1      26.662   1.154  53.925  1.00  0.00     0.010 A 
HETATM   12  C7  UNL     1      27.961   0.720  54.140  1.00  0.00     0.024 A 
HETATM   13  C8  UNL     1      28.401  -0.468  53.649  1.00  0.00     0.034 A 
HETATM   14 CL1  UNL     1      30.008  -1.126  53.850  1.00  0.00    -0.084 Cl
HETATM   15  C9  UNL     1      27.481  -1.228  52.919  1.00  0.00     0.024 A 
HETATM   16  C10 UNL     1      26.202  -0.791  52.712  1.00  0.00     0.010 A 
ENDBRANCH   9  10
ENDBRANCH   1   9
BRANCH   1  17
HETATM   17  N2  UNL     1      24.977   1.917  50.956  1.00  0.00    -0.179 NA
HETATM   18  C11 UNL     1      25.177   3.174  50.744  1.00  0.00     0.039 C 
HETATM   19  C12 UNL     1      26.299   3.294  49.810  1.00  0.00     0.083 C 
HETATM   20  C17 UNL     1      24.306   4.164  51.428  1.00  0.00     0.085 C 
HETATM   21  C13 UNL     1      26.439   4.627  49.182  1.00  0.00    -0.019 C 
HETATM   22  C14 UNL     1      25.606   5.655  48.981  1.00  0.00     0.020 C 
HETATM   23  C15 UNL     1      24.203   5.675  49.391  1.00  0.00     0.030 C 
HETATM   24 CL2  UNL     1      23.160   6.664  48.364  1.00  0.00    -0.085 Cl
HETATM   25  C16 UNL     1      23.658   5.048  50.419  1.00  0.00     0.003 C 
ENDBRANCH   1  17
TORSDOF 5
ENDMDL
