MODEL 1
REMARK VINA RESULT:      -8.2      0.000      0.000
REMARK  8 active torsions:
REMARK  status: ('A' for Active; 'I' for Inactive)
REMARK    1  A    between atoms: N1_2  and  C3_4 
REMARK    2  A    between atoms: C3_4  and  C4_5 
REMARK    3  A    between atoms: C4_5  and  C5_6 
REMARK    4  A    between atoms: C13_19  and  N5_20 
REMARK    5  A    between atoms: N5_20  and  C14_21 
REMARK    6  A    between atoms: C14_21  and  C15_22 
REMARK    7  A    between atoms: C14_21  and  C16_24 
REMARK    8  A    between atoms: C15_22  and  O2_23 
ROOT
HETATM    1  C5  UNL     1      24.184   6.543  48.153  1.00  0.00     0.067 C 
HETATM    2  C6  UNL     1      23.256   5.530  48.578  1.00  0.00     0.308 A 
HETATM    3  O1  UNL     1      22.302   4.768  48.792  1.00  0.00    -0.123 OA
HETATM    4  N2  UNL     1      23.405   4.456  49.499  1.00  0.00     0.113 N 
HETATM    5  C7  UNL     1      22.609   3.403  50.001  1.00  0.00     0.288 C 
HETATM    6  C8  UNL     1      22.846   3.211  51.521  1.00  0.00     0.072 C 
HETATM    7  C9  UNL     1      24.121   2.478  51.639  1.00  0.00    -0.025 A 
HETATM    8  C10 UNL     1      25.016   3.229  50.844  1.00  0.00     0.021 A 
HETATM    9  S1  UNL     1      26.544   2.307  51.008  1.00  0.00    -0.072 SA
HETATM   10  C11 UNL     1      25.914   1.051  52.071  1.00  0.00     0.114 A 
HETATM   11  N3  UNL     1      26.646   0.040  52.535  1.00  0.00    -0.234 NA
HETATM   12  C12 UNL     1      25.978  -0.854  53.352  1.00  0.00     0.236 A 
HETATM   13  N4  UNL     1      24.720  -0.554  53.536  1.00  0.00    -0.224 NA
HETATM   14  C13 UNL     1      23.978   0.449  53.082  1.00  0.00     0.139 A 
HETATM   15  C22 UNL     1      24.578   1.366  52.269  1.00  0.00     0.053 A 
HETATM   16  C23 UNL     1      24.734   4.431  50.080  1.00  0.00     0.330 C 
ENDROOT
BRANCH  14  17
HETATM   17  N5  UNL     1      22.602   0.545  53.515  1.00  0.00    -0.363 N 
HETATM   18  H16 UNL     1      22.063   1.276  53.976  1.00  0.00     0.162 HD
BRANCH  17  19
HETATM   19  C14 UNL     1      21.759  -0.591  53.286  1.00  0.00     0.140 C 
BRANCH  19  20
HETATM   20  C15 UNL     1      21.319  -1.328  54.514  1.00  0.00     0.194 C 
BRANCH  20  21
HETATM   21  O2  UNL     1      22.292  -1.639  55.421  1.00  0.00    -0.399 OA
HETATM   22  H20 UNL     1      22.916  -0.908  55.613  1.00  0.00     0.209 HD
ENDBRANCH  20  21
ENDBRANCH  19  20
BRANCH  19  23
HETATM   23  C16 UNL     1      20.565  -0.229  52.467  1.00  0.00    -0.034 A 
HETATM   24  C17 UNL     1      19.385  -0.689  53.079  1.00  0.00     0.009 A 
HETATM   25  C18 UNL     1      18.190  -0.411  52.412  1.00  0.00     0.001 A 
HETATM   26  C19 UNL     1      18.055   0.276  51.207  1.00  0.00     0.000 A 
HETATM   27  C20 UNL     1      19.251   0.702  50.656  1.00  0.00     0.001 A 
HETATM   28  C21 UNL     1      20.442   0.456  51.263  1.00  0.00     0.009 A 
ENDBRANCH  19  23
ENDBRANCH  17  19
ENDBRANCH  14  17
BRANCH   1  29
HETATM   29  C4  UNL     1      25.424   6.855  48.409  1.00  0.00     0.007 C 
BRANCH  29  30
HETATM   30  C3  UNL     1      26.691   7.166  49.010  1.00  0.00     0.299 C 
BRANCH  30  31
HETATM   31  N1  UNL     1      27.817   6.669  48.292  1.00  0.00     0.083 N 
HETATM   32  C1  UNL     1      29.037   7.414  48.401  1.00  0.00     0.309 C 
HETATM   33  C2  UNL     1      28.016   5.265  48.491  1.00  0.00     0.309 C 
ENDBRANCH  30  31
ENDBRANCH  29  30
ENDBRANCH   1  29
TORSDOF 8
ENDMDL
MODEL 2
REMARK VINA RESULT:      -7.8      3.336      5.762
REMARK  8 active torsions:
REMARK  status: ('A' for Active; 'I' for Inactive)
REMARK    1  A    between atoms: N1_2  and  C3_4 
REMARK    2  A    between atoms: C3_4  and  C4_5 
REMARK    3  A    between atoms: C4_5  and  C5_6 
REMARK    4  A    between atoms: C13_19  and  N5_20 
REMARK    5  A    between atoms: N5_20  and  C14_21 
REMARK    6  A    between atoms: C14_21  and  C15_22 
REMARK    7  A    between atoms: C14_21  and  C16_24 
REMARK    8  A    between atoms: C15_22  and  O2_23 
ROOT
HETATM    1  C5  UNL     1      27.903   2.245  52.472  1.00  0.00     0.067 C 
HETATM    2  C6  UNL     1      26.734   2.523  51.680  1.00  0.00     0.308 A 
HETATM    3  O1  UNL     1      25.883   2.877  50.851  1.00  0.00    -0.123 OA
HETATM    4  N2  UNL     1      25.370   2.173  51.878  1.00  0.00     0.113 N 
HETATM    5  C7  UNL     1      24.143   2.362  51.204  1.00  0.00     0.288 C 
HETATM    6  C8  UNL     1      23.006   2.677  52.208  1.00  0.00     0.072 C 
HETATM    7  C9  UNL     1      22.627   1.381  52.806  1.00  0.00    -0.025 A 
HETATM    8  C10 UNL     1      23.859   0.837  53.234  1.00  0.00     0.021 A 
HETATM    9  S1  UNL     1      23.360  -0.731  53.945  1.00  0.00    -0.072 SA
HETATM   10  C11 UNL     1      21.634  -0.558  53.636  1.00  0.00     0.114 A 
HETATM   11  N3  UNL     1      20.728  -1.477  53.966  1.00  0.00    -0.234 NA
HETATM   12  C12 UNL     1      19.420  -1.169  53.638  1.00  0.00     0.236 A 
HETATM   13  N4  UNL     1      19.288  -0.010  53.050  1.00  0.00    -0.224 NA
HETATM   14  C13 UNL     1      20.179   0.916  52.716  1.00  0.00     0.139 A 
HETATM   15  C22 UNL     1      21.489   0.672  53.012  1.00  0.00     0.053 A 
HETATM   16  C23 UNL     1      25.184   1.416  53.101  1.00  0.00     0.330 C 
ENDROOT
BRANCH  14  17
HETATM   17  N5  UNL     1      19.711   2.144  52.115  1.00  0.00    -0.363 N 
HETATM   18  H16 UNL     1      19.634   3.103  52.450  1.00  0.00     0.162 HD
BRANCH  17  19
HETATM   19  C14 UNL     1      19.235   2.076  50.764  1.00  0.00     0.140 C 
BRANCH  19  20
HETATM   20  C15 UNL     1      18.020   2.899  50.465  1.00  0.00     0.194 C 
BRANCH  20  21
HETATM   21  O2  UNL     1      17.794   3.973  51.280  1.00  0.00    -0.399 OA
HETATM   22  H20 UNL     1      18.208   3.905  52.165  1.00  0.00     0.209 HD
ENDBRANCH  20  21
ENDBRANCH  19  20
BRANCH  19  23
HETATM   23  C16 UNL     1      20.314   2.407  49.787  1.00  0.00    -0.034 A 
HETATM   24  C17 UNL     1      20.833   1.236  49.206  1.00  0.00     0.009 A 
HETATM   25  C18 UNL     1      21.852   1.408  48.267  1.00  0.00     0.001 A 
HETATM   26  C19 UNL     1      22.399   2.621  47.851  1.00  0.00     0.000 A 
HETATM   27  C20 UNL     1      21.845   3.735  48.458  1.00  0.00     0.001 A 
HETATM   28  C21 UNL     1      20.853   3.623  49.380  1.00  0.00     0.009 A 
ENDBRANCH  19  23
ENDBRANCH  17  19
ENDBRANCH  14  17
BRANCH   1  29
HETATM   29  C4  UNL     1      28.162   1.614  53.584  1.00  0.00     0.007 C 
BRANCH  29  30
HETATM   30  C3  UNL     1      28.611   0.708  54.603  1.00  0.00     0.299 C 
BRANCH  30  31
HETATM   31  N1  UNL     1      28.770  -0.638  54.161  1.00  0.00     0.083 N 
HETATM   32  C1  UNL     1      27.760  -1.157  53.285  1.00  0.00     0.309 C 
HETATM   33  C2  UNL     1      30.094  -0.903  53.685  1.00  0.00     0.309 C 
ENDBRANCH  30  31
ENDBRANCH  29  30
ENDBRANCH   1  29
TORSDOF 8
ENDMDL
MODEL 3
REMARK VINA RESULT:      -7.6      2.842      9.205
REMARK  8 active torsions:
REMARK  status: ('A' for Active; 'I' for Inactive)
REMARK    1  A    between atoms: N1_2  and  C3_4 
REMARK    2  A    between atoms: C3_4  and  C4_5 
REMARK    3  A    between atoms: C4_5  and  C5_6 
REMARK    4  A    between atoms: C13_19  and  N5_20 
REMARK    5  A    between atoms: N5_20  and  C14_21 
REMARK    6  A    between atoms: C14_21  and  C15_22 
REMARK    7  A    between atoms: C14_21  and  C16_24 
REMARK    8  A    between atoms: C15_22  and  O2_23 
ROOT
HETATM    1  C5  UNL     1      22.552   0.198  52.729  1.00  0.00     0.067 C 
HETATM    2  C6  UNL     1      23.567   1.007  52.110  1.00  0.00     0.308 A 
HETATM    3  O1  UNL     1      24.576   1.500  51.584  1.00  0.00    -0.123 OA
HETATM    4  N2  UNL     1      23.559   2.373  51.715  1.00  0.00     0.113 N 
HETATM    5  C7  UNL     1      24.453   3.281  51.105  1.00  0.00     0.288 C 
HETATM    6  C8  UNL     1      24.365   4.675  51.776  1.00  0.00     0.072 C 
HETATM    7  C9  UNL     1      23.146   5.307  51.233  1.00  0.00    -0.025 A 
HETATM    8  C10 UNL     1      22.145   4.329  51.430  1.00  0.00     0.021 A 
HETATM    9  S1  UNL     1      20.689   5.127  50.756  1.00  0.00    -0.072 SA
HETATM   10  C11 UNL     1      21.478   6.630  50.282  1.00  0.00     0.114 A 
HETATM   11  N3  UNL     1      20.846   7.643  49.693  1.00  0.00    -0.234 NA
HETATM   12  C12 UNL     1      21.632   8.740  49.388  1.00  0.00     0.236 A 
HETATM   13  N4  UNL     1      22.883   8.598  49.735  1.00  0.00    -0.224 NA
HETATM   14  C13 UNL     1      23.528   7.597  50.323  1.00  0.00     0.139 A 
HETATM   15  C22 UNL     1      22.808   6.484  50.649  1.00  0.00     0.053 A 
HETATM   16  C23 UNL     1      22.291   3.009  52.018  1.00  0.00     0.330 C 
ENDROOT
BRANCH  14  17
HETATM   17  N5  UNL     1      24.929   7.761  50.634  1.00  0.00    -0.363 N 
HETATM   18  H16 UNL     1      25.475   7.650  51.487  1.00  0.00     0.162 HD
BRANCH  17  19
HETATM   19  C14 UNL     1      25.797   8.169  49.568  1.00  0.00     0.140 C 
BRANCH  19  20
HETATM   20  C15 UNL     1      26.622   9.390  49.838  1.00  0.00     0.194 C 
BRANCH  20  21
HETATM   21  O2  UNL     1      27.100   9.535  51.109  1.00  0.00    -0.399 OA
HETATM   22  H20 UNL     1      26.716   8.913  51.761  1.00  0.00     0.209 HD
ENDBRANCH  20  21
ENDBRANCH  19  20
BRANCH  19  23
HETATM   23  C16 UNL     1      26.686   7.053  49.130  1.00  0.00    -0.034 A 
HETATM   24  C17 UNL     1      27.884   7.556  48.592  1.00  0.00     0.009 A 
HETATM   25  C18 UNL     1      28.810   6.611  48.145  1.00  0.00     0.001 A 
HETATM   26  C19 UNL     1      28.661   5.225  48.182  1.00  0.00     0.000 A 
HETATM   27  C20 UNL     1      27.463   4.794  48.723  1.00  0.00     0.001 A 
HETATM   28  C21 UNL     1      26.527   5.672  49.171  1.00  0.00     0.009 A 
ENDBRANCH  19  23
ENDBRANCH  17  19
ENDBRANCH  14  17
BRANCH   1  29
HETATM   29  C4  UNL     1      21.325   0.372  53.136  1.00  0.00     0.007 C 
BRANCH  29  30
HETATM   30  C3  UNL     1      19.969   0.227  53.586  1.00  0.00     0.299 C 
BRANCH  30  31
HETATM   31  N1  UNL     1      19.179  -0.652  52.790  1.00  0.00     0.083 N 
HETATM   32  C1  UNL     1      18.295  -1.541  53.487  1.00  0.00     0.309 C 
HETATM   33  C2  UNL     1      18.530   0.025  51.708  1.00  0.00     0.309 C 
ENDBRANCH  30  31
ENDBRANCH  29  30
ENDBRANCH   1  29
TORSDOF 8
ENDMDL
MODEL 4
REMARK VINA RESULT:      -7.6      4.433      6.875
REMARK  8 active torsions:
REMARK  status: ('A' for Active; 'I' for Inactive)
REMARK    1  A    between atoms: N1_2  and  C3_4 
REMARK    2  A    between atoms: C3_4  and  C4_5 
REMARK    3  A    between atoms: C4_5  and  C5_6 
REMARK    4  A    between atoms: C13_19  and  N5_20 
REMARK    5  A    between atoms: N5_20  and  C14_21 
REMARK    6  A    between atoms: C14_21  and  C15_22 
REMARK    7  A    between atoms: C14_21  and  C16_24 
REMARK    8  A    between atoms: C15_22  and  O2_23 
ROOT
HETATM    1  C5  UNL     1      25.025  -1.006  55.260  1.00  0.00     0.067 C 
HETATM    2  C6  UNL     1      23.613  -1.280  55.262  1.00  0.00     0.308 A 
HETATM    3  O1  UNL     1      22.450  -1.670  55.443  1.00  0.00    -0.123 OA
HETATM    4  N2  UNL     1      22.560  -0.753  54.463  1.00  0.00     0.113 N 
HETATM    5  C7  UNL     1      21.161  -0.914  54.355  1.00  0.00     0.288 C 
HETATM    6  C8  UNL     1      20.722  -0.930  52.869  1.00  0.00     0.072 C 
HETATM    7  C9  UNL     1      20.724   0.481  52.435  1.00  0.00    -0.025 A 
HETATM    8  C10 UNL     1      22.000   0.949  52.821  1.00  0.00     0.021 A 
HETATM    9  S1  UNL     1      21.962   2.658  52.285  1.00  0.00    -0.072 SA
HETATM   10  C11 UNL     1      20.331   2.629  51.618  1.00  0.00     0.114 A 
HETATM   11  N3  UNL     1      19.742   3.685  51.060  1.00  0.00    -0.234 NA
HETATM   12  C12 UNL     1      18.456   3.474  50.597  1.00  0.00     0.236 A 
HETATM   13  N4  UNL     1      18.026   2.256  50.788  1.00  0.00    -0.224 NA
HETATM   14  C13 UNL     1      18.600   1.194  51.340  1.00  0.00     0.139 A 
HETATM   15  C22 UNL     1      19.871   1.336  51.818  1.00  0.00     0.053 A 
HETATM   16  C23 UNL     1      23.052   0.212  53.500  1.00  0.00     0.330 C 
ENDROOT
BRANCH  14  17
HETATM   17  N5  UNL     1      17.877  -0.057  51.355  1.00  0.00    -0.363 N 
HETATM   18  H16 UNL     1      17.893  -0.882  50.758  1.00  0.00     0.162 HD
BRANCH  17  19
HETATM   19  C14 UNL     1      16.912  -0.248  52.399  1.00  0.00     0.140 C 
BRANCH  19  20
HETATM   20  C15 UNL     1      15.550   0.313  52.130  1.00  0.00     0.194 C 
BRANCH  20  21
HETATM   21  O2  UNL     1      15.353   1.624  52.463  1.00  0.00    -0.399 OA
HETATM   22  H20 UNL     1      14.938   1.762  53.340  1.00  0.00     0.209 HD
ENDBRANCH  20  21
ENDBRANCH  19  20
BRANCH  19  23
HETATM   23  C16 UNL     1      16.793  -1.687  52.777  1.00  0.00    -0.034 A 
HETATM   24  C17 UNL     1      15.585  -2.226  52.300  1.00  0.00     0.009 A 
HETATM   25  C18 UNL     1      15.351  -3.573  52.585  1.00  0.00     0.001 A 
HETATM   26  C19 UNL     1      16.195  -4.429  53.290  1.00  0.00     0.000 A 
HETATM   27  C20 UNL     1      17.367  -3.840  53.731  1.00  0.00     0.001 A 
HETATM   28  C21 UNL     1      17.643  -2.532  53.482  1.00  0.00     0.009 A 
ENDBRANCH  19  23
ENDBRANCH  17  19
ENDBRANCH  14  17
BRANCH   1  29
HETATM   29  C4  UNL     1      25.836  -0.232  54.593  1.00  0.00     0.007 C 
BRANCH  29  30
HETATM   30  C3  UNL     1      26.863   0.674  54.162  1.00  0.00     0.299 C 
BRANCH  30  31
HETATM   31  N1  UNL     1      28.185   0.156  54.277  1.00  0.00     0.083 N 
HETATM   32  C1  UNL     1      28.557  -0.884  53.362  1.00  0.00     0.309 C 
HETATM   33  C2  UNL     1      29.172   1.190  54.357  1.00  0.00     0.309 C 
ENDBRANCH  30  31
ENDBRANCH  29  30
ENDBRANCH   1  29
TORSDOF 8
ENDMDL
MODEL 5
REMARK VINA RESULT:      -7.5      0.954      1.390
REMARK  8 active torsions:
REMARK  status: ('A' for Active; 'I' for Inactive)
REMARK    1  A    between atoms: N1_2  and  C3_4 
REMARK    2  A    between atoms: C3_4  and  C4_5 
REMARK    3  A    between atoms: C4_5  and  C5_6 
REMARK    4  A    between atoms: C13_19  and  N5_20 
REMARK    5  A    between atoms: N5_20  and  C14_21 
REMARK    6  A    between atoms: C14_21  and  C15_22 
REMARK    7  A    between atoms: C14_21  and  C16_24 
REMARK    8  A    between atoms: C15_22  and  O2_23 
ROOT
HETATM    1  C5  UNL     1      23.831   6.566  47.843  1.00  0.00     0.067 C 
HETATM    2  C6  UNL     1      22.946   5.531  48.307  1.00  0.00     0.308 A 
HETATM    3  O1  UNL     1      22.028   4.734  48.547  1.00  0.00    -0.123 OA
HETATM    4  N2  UNL     1      23.134   4.512  49.282  1.00  0.00     0.113 N 
HETATM    5  C7  UNL     1      22.382   3.447  49.826  1.00  0.00     0.288 C 
HETATM    6  C8  UNL     1      22.605   3.341  51.356  1.00  0.00     0.072 C 
HETATM    7  C9  UNL     1      23.912   2.678  51.527  1.00  0.00    -0.025 A 
HETATM    8  C10 UNL     1      24.781   3.432  50.706  1.00  0.00     0.021 A 
HETATM    9  S1  UNL     1      26.349   2.596  50.935  1.00  0.00    -0.072 SA
HETATM   10  C11 UNL     1      25.766   1.364  52.051  1.00  0.00     0.114 A 
HETATM   11  N3  UNL     1      26.539   0.414  52.574  1.00  0.00    -0.234 NA
HETATM   12  C12 UNL     1      25.903  -0.470  53.426  1.00  0.00     0.236 A 
HETATM   13  N4  UNL     1      24.629  -0.223  53.579  1.00  0.00    -0.224 NA
HETATM   14  C13 UNL     1      23.846   0.718  53.067  1.00  0.00     0.139 A 
HETATM   15  C22 UNL     1      24.413   1.623  52.217  1.00  0.00     0.053 A 
HETATM   16  C23 UNL     1      24.454   4.581  49.879  1.00  0.00     0.330 C 
ENDROOT
BRANCH  14  17
HETATM   17  N5  UNL     1      22.461   0.768  53.477  1.00  0.00    -0.363 N 
HETATM   18  H16 UNL     1      21.849   1.521  53.788  1.00  0.00     0.162 HD
BRANCH  17  19
HETATM   19  C14 UNL     1      21.730  -0.465  53.478  1.00  0.00     0.140 C 
BRANCH  19  20
HETATM   20  C15 UNL     1      21.484  -1.070  54.827  1.00  0.00     0.194 C 
BRANCH  20  21
HETATM   21  O2  UNL     1      22.525  -1.753  55.389  1.00  0.00    -0.399 OA
HETATM   22  H20 UNL     1      22.886  -2.473  54.831  1.00  0.00     0.209 HD
ENDBRANCH  20  21
ENDBRANCH  19  20
BRANCH  19  23
HETATM   23  C16 UNL     1      20.435  -0.334  52.747  1.00  0.00    -0.034 A 
HETATM   24  C17 UNL     1      20.616   0.364  51.540  1.00  0.00     0.009 A 
HETATM   25  C18 UNL     1      19.477   0.552  50.755  1.00  0.00     0.001 A 
HETATM   26  C19 UNL     1      18.186   0.117  51.051  1.00  0.00     0.000 A 
HETATM   27  C20 UNL     1      18.074  -0.563  52.251  1.00  0.00     0.001 A 
HETATM   28  C21 UNL     1      19.151  -0.772  53.053  1.00  0.00     0.009 A 
ENDBRANCH  19  23
ENDBRANCH  17  19
ENDBRANCH  14  17
BRANCH   1  29
HETATM   29  C4  UNL     1      25.051   6.950  48.099  1.00  0.00     0.007 C 
BRANCH  29  30
HETATM   30  C3  UNL     1      26.390   7.466  48.059  1.00  0.00     0.299 C 
BRANCH  30  31
HETATM   31  N1  UNL     1      26.513   8.720  47.392  1.00  0.00     0.083 N 
HETATM   32  C1  UNL     1      27.576   9.582  47.821  1.00  0.00     0.309 C 
HETATM   33  C2  UNL     1      26.459   8.589  45.967  1.00  0.00     0.309 C 
ENDBRANCH  30  31
ENDBRANCH  29  30
ENDBRANCH   1  29
TORSDOF 8
ENDMDL
MODEL 6
REMARK VINA RESULT:      -7.4      3.422      6.850
REMARK  8 active torsions:
REMARK  status: ('A' for Active; 'I' for Inactive)
REMARK    1  A    between atoms: N1_2  and  C3_4 
REMARK    2  A    between atoms: C3_4  and  C4_5 
REMARK    3  A    between atoms: C4_5  and  C5_6 
REMARK    4  A    between atoms: C13_19  and  N5_20 
REMARK    5  A    between atoms: N5_20  and  C14_21 
REMARK    6  A    between atoms: C14_21  and  C15_22 
REMARK    7  A    between atoms: C14_21  and  C16_24 
REMARK    8  A    between atoms: C15_22  and  O2_23 
ROOT
HETATM    1  C5  UNL     1      20.062   4.854  48.789  1.00  0.00     0.067 C 
HETATM    2  C6  UNL     1      21.404   4.625  49.252  1.00  0.00     0.308 A 
HETATM    3  O1  UNL     1      22.616   4.622  49.515  1.00  0.00    -0.123 OA
HETATM    4  N2  UNL     1      21.933   3.633  50.123  1.00  0.00     0.113 N 
HETATM    5  C7  UNL     1      23.194   3.293  50.662  1.00  0.00     0.288 C 
HETATM    6  C8  UNL     1      23.390   1.756  50.675  1.00  0.00     0.072 C 
HETATM    7  C9  UNL     1      22.616   1.261  51.831  1.00  0.00    -0.025 A 
HETATM    8  C10 UNL     1      21.339   1.840  51.652  1.00  0.00     0.021 A 
HETATM    9  S1  UNL     1      20.435   1.224  53.071  1.00  0.00    -0.072 SA
HETATM   10  C11 UNL     1      21.756   0.288  53.767  1.00  0.00     0.114 A 
HETATM   11  N3  UNL     1      21.651  -0.414  54.894  1.00  0.00    -0.234 NA
HETATM   12  C12 UNL     1      22.796  -1.081  55.290  1.00  0.00     0.236 A 
HETATM   13  N4  UNL     1      23.806  -0.909  54.479  1.00  0.00    -0.224 NA
HETATM   14  C13 UNL     1      23.926  -0.216  53.354  1.00  0.00     0.139 A 
HETATM   15  C22 UNL     1      22.831   0.466  52.909  1.00  0.00     0.053 A 
HETATM   16  C23 UNL     1      20.903   2.724  50.585  1.00  0.00     0.330 C 
ENDROOT
BRANCH  14  17
HETATM   17  N5  UNL     1      25.180  -0.266  52.638  1.00  0.00    -0.363 N 
HETATM   18  H16 UNL     1      25.582  -0.927  51.974  1.00  0.00     0.162 HD
BRANCH  17  19
HETATM   19  C14 UNL     1      26.109   0.803  52.860  1.00  0.00     0.140 C 
BRANCH  19  20
HETATM   20  C15 UNL     1      25.714   1.794  53.911  1.00  0.00     0.194 C 
BRANCH  20  21
HETATM   21  O2  UNL     1      25.330   3.030  53.472  1.00  0.00    -0.399 OA
HETATM   22  H20 UNL     1      24.361   3.146  53.382  1.00  0.00     0.209 HD
ENDBRANCH  20  21
ENDBRANCH  19  20
BRANCH  19  23
HETATM   23  C16 UNL     1      27.479   0.286  53.152  1.00  0.00    -0.034 A 
HETATM   24  C17 UNL     1      27.532  -1.108  52.971  1.00  0.00     0.009 A 
HETATM   25  C18 UNL     1      28.765  -1.718  53.210  1.00  0.00     0.001 A 
HETATM   26  C19 UNL     1      29.941  -1.083  53.607  1.00  0.00     0.000 A 
HETATM   27  C20 UNL     1      29.823   0.287  53.767  1.00  0.00     0.001 A 
HETATM   28  C21 UNL     1      28.645   0.930  53.549  1.00  0.00     0.009 A 
ENDBRANCH  19  23
ENDBRANCH  17  19
ENDBRANCH  14  17
BRANCH   1  29
HETATM   29  C4  UNL     1      18.894   4.301  48.968  1.00  0.00     0.007 C 
BRANCH  29  30
HETATM   30  C3  UNL     1      17.563   3.777  48.843  1.00  0.00     0.299 C 
BRANCH  30  31
HETATM   31  N1  UNL     1      16.709   4.084  49.941  1.00  0.00     0.083 N 
HETATM   32  C1  UNL     1      15.395   3.510  49.922  1.00  0.00     0.309 C 
HETATM   33  C2  UNL     1      17.360   3.912  51.205  1.00  0.00     0.309 C 
ENDBRANCH  30  31
ENDBRANCH  29  30
ENDBRANCH   1  29
TORSDOF 8
ENDMDL
MODEL 7
REMARK VINA RESULT:      -7.2      3.122      6.391
REMARK  8 active torsions:
REMARK  status: ('A' for Active; 'I' for Inactive)
REMARK    1  A    between atoms: N1_2  and  C3_4 
REMARK    2  A    between atoms: C3_4  and  C4_5 
REMARK    3  A    between atoms: C4_5  and  C5_6 
REMARK    4  A    between atoms: C13_19  and  N5_20 
REMARK    5  A    between atoms: N5_20  and  C14_21 
REMARK    6  A    between atoms: C14_21  and  C15_22 
REMARK    7  A    between atoms: C14_21  and  C16_24 
REMARK    8  A    between atoms: C15_22  and  O2_23 
ROOT
HETATM    1  C5  UNL     1      25.205  -0.795  54.722  1.00  0.00     0.067 C 
HETATM    2  C6  UNL     1      23.796  -0.688  54.455  1.00  0.00     0.308 A 
HETATM    3  O1  UNL     1      22.557  -0.723  54.430  1.00  0.00    -0.123 OA
HETATM    4  N2  UNL     1      23.094  -0.053  53.393  1.00  0.00     0.113 N 
HETATM    5  C7  UNL     1      21.749   0.140  53.009  1.00  0.00     0.288 C 
HETATM    6  C8  UNL     1      21.585  -0.020  51.477  1.00  0.00     0.072 C 
HETATM    7  C9  UNL     1      22.070   1.242  50.886  1.00  0.00    -0.025 A 
HETATM    8  C10 UNL     1      23.342   1.422  51.477  1.00  0.00     0.021 A 
HETATM    9  S1  UNL     1      23.893   2.961  50.743  1.00  0.00    -0.072 SA
HETATM   10  C11 UNL     1      22.463   3.241  49.753  1.00  0.00     0.114 A 
HETATM   11  N3  UNL     1      22.310   4.299  48.958  1.00  0.00    -0.234 NA
HETATM   12  C12 UNL     1      21.117   4.353  48.261  1.00  0.00     0.236 A 
HETATM   13  N4  UNL     1      20.326   3.342  48.501  1.00  0.00    -0.224 NA
HETATM   14  C13 UNL     1      20.464   2.281  49.286  1.00  0.00     0.139 A 
HETATM   15  C22 UNL     1      21.620   2.169  50.003  1.00  0.00     0.053 A 
HETATM   16  C23 UNL     1      24.002   0.567  52.448  1.00  0.00     0.330 C 
ENDROOT
BRANCH  14  17
HETATM   17  N5  UNL     1      19.418   1.284  49.297  1.00  0.00    -0.363 N 
HETATM   18  H16 UNL     1      19.378   0.308  49.007  1.00  0.00     0.162 HD
BRANCH  17  19
HETATM   19  C14 UNL     1      18.137   1.679  49.805  1.00  0.00     0.140 C 
BRANCH  19  20
HETATM   20  C15 UNL     1      17.162   2.177  48.783  1.00  0.00     0.194 C 
BRANCH  20  21
HETATM   21  O2  UNL     1      17.649   2.380  47.522  1.00  0.00    -0.399 OA
HETATM   22  H20 UNL     1      17.278   3.163  47.065  1.00  0.00     0.209 HD
ENDBRANCH  20  21
ENDBRANCH  19  20
BRANCH  19  23
HETATM   23  C16 UNL     1      17.506   0.588  50.605  1.00  0.00    -0.034 A 
HETATM   24  C17 UNL     1      18.281   0.295  51.742  1.00  0.00     0.009 A 
HETATM   25  C18 UNL     1      17.796  -0.710  52.581  1.00  0.00     0.001 A 
HETATM   26  C19 UNL     1      16.625  -1.445  52.403  1.00  0.00     0.000 A 
HETATM   27  C20 UNL     1      15.908  -1.109  51.268  1.00  0.00     0.001 A 
HETATM   28  C21 UNL     1      16.336  -0.139  50.417  1.00  0.00     0.009 A 
ENDBRANCH  19  23
ENDBRANCH  17  19
ENDBRANCH  14  17
BRANCH   1  29
HETATM   29  C4  UNL     1      26.307  -0.388  54.155  1.00  0.00     0.007 C 
BRANCH  29  30
HETATM   30  C3  UNL     1      27.476  -0.211  53.339  1.00  0.00     0.299 C 
BRANCH  30  31
HETATM   31  N1  UNL     1      28.700  -0.189  54.069  1.00  0.00     0.083 N 
HETATM   32  C1  UNL     1      29.772  -0.995  53.563  1.00  0.00     0.309 C 
HETATM   33  C2  UNL     1      29.122   1.142  54.387  1.00  0.00     0.309 C 
ENDBRANCH  30  31
ENDBRANCH  29  30
ENDBRANCH   1  29
TORSDOF 8
ENDMDL
MODEL 8
REMARK VINA RESULT:      -7.1      2.730      5.110
REMARK  8 active torsions:
REMARK  status: ('A' for Active; 'I' for Inactive)
REMARK    1  A    between atoms: N1_2  and  C3_4 
REMARK    2  A    between atoms: C3_4  and  C4_5 
REMARK    3  A    between atoms: C4_5  and  C5_6 
REMARK    4  A    between atoms: C13_19  and  N5_20 
REMARK    5  A    between atoms: N5_20  and  C14_21 
REMARK    6  A    between atoms: C14_21  and  C15_22 
REMARK    7  A    between atoms: C14_21  and  C16_24 
REMARK    8  A    between atoms: C15_22  and  O2_23 
ROOT
HETATM    1  C5  UNL     1      28.179   6.998  47.343  1.00  0.00     0.067 C 
HETATM    2  C6  UNL     1      28.130   5.874  48.240  1.00  0.00     0.308 A 
HETATM    3  O1  UNL     1      28.329   4.899  48.979  1.00  0.00    -0.123 OA
HETATM    4  N2  UNL     1      27.034   5.259  48.905  1.00  0.00     0.113 N 
HETATM    5  C7  UNL     1      26.834   4.183  49.798  1.00  0.00     0.288 C 
HETATM    6  C8  UNL     1      25.558   3.388  49.425  1.00  0.00     0.072 C 
HETATM    7  C9  UNL     1      24.424   4.187  49.930  1.00  0.00    -0.025 A 
HETATM    8  C10 UNL     1      24.666   5.479  49.409  1.00  0.00     0.021 A 
HETATM    9  S1  UNL     1      23.279   6.417  50.046  1.00  0.00    -0.072 SA
HETATM   10  C11 UNL     1      22.514   5.089  50.917  1.00  0.00     0.114 A 
HETATM   11  N3  UNL     1      21.389   5.216  51.619  1.00  0.00    -0.234 NA
HETATM   12  C12 UNL     1      20.942   4.064  52.241  1.00  0.00     0.236 A 
HETATM   13  N4  UNL     1      21.709   3.027  52.033  1.00  0.00    -0.224 NA
HETATM   14  C13 UNL     1      22.829   2.884  51.336  1.00  0.00     0.139 A 
HETATM   15  C22 UNL     1      23.325   3.985  50.698  1.00  0.00     0.053 A 
HETATM   16  C23 UNL     1      25.779   5.913  48.584  1.00  0.00     0.330 C 
ENDROOT
BRANCH  14  17
HETATM   17  N5  UNL     1      23.427   1.572  51.244  1.00  0.00    -0.363 N 
HETATM   18  H16 UNL     1      23.767   1.010  50.466  1.00  0.00     0.162 HD
BRANCH  17  19
HETATM   19  C14 UNL     1      23.609   0.844  52.466  1.00  0.00     0.140 C 
BRANCH  19  20
HETATM   20  C15 UNL     1      22.694  -0.325  52.664  1.00  0.00     0.194 C 
BRANCH  20  21
HETATM   21  O2  UNL     1      21.395  -0.038  52.976  1.00  0.00    -0.399 OA
HETATM   22  H20 UNL     1      20.744  -0.687  52.638  1.00  0.00     0.209 HD
ENDBRANCH  20  21
ENDBRANCH  19  20
BRANCH  19  23
HETATM   23  C16 UNL     1      25.025   0.404  52.635  1.00  0.00    -0.034 A 
HETATM   24  C17 UNL     1      25.904   1.491  52.484  1.00  0.00     0.009 A 
HETATM   25  C18 UNL     1      27.266   1.213  52.623  1.00  0.00     0.001 A 
HETATM   26  C19 UNL     1      27.833  -0.032  52.896  1.00  0.00     0.000 A 
HETATM   27  C20 UNL     1      26.916  -1.059  53.033  1.00  0.00     0.001 A 
HETATM   28  C21 UNL     1      25.580  -0.842  52.906  1.00  0.00     0.009 A 
ENDBRANCH  19  23
ENDBRANCH  17  19
ENDBRANCH  14  17
BRANCH   1  29
HETATM   29  C4  UNL     1      27.320   7.834  46.830  1.00  0.00     0.007 C 
BRANCH  29  30
HETATM   30  C3  UNL     1      26.505   8.967  46.490  1.00  0.00     0.299 C 
BRANCH  30  31
HETATM   31  N1  UNL     1      25.668   9.423  47.549  1.00  0.00     0.083 N 
HETATM   32  C1  UNL     1      25.981  10.702  48.119  1.00  0.00     0.309 C 
HETATM   33  C2  UNL     1      24.276   9.290  47.241  1.00  0.00     0.309 C 
ENDBRANCH  30  31
ENDBRANCH  29  30
ENDBRANCH   1  29
TORSDOF 8
ENDMDL
MODEL 9
REMARK VINA RESULT:      -7.1      2.681      4.548
REMARK  8 active torsions:
REMARK  status: ('A' for Active; 'I' for Inactive)
REMARK    1  A    between atoms: N1_2  and  C3_4 
REMARK    2  A    between atoms: C3_4  and  C4_5 
REMARK    3  A    between atoms: C4_5  and  C5_6 
REMARK    4  A    between atoms: C13_19  and  N5_20 
REMARK    5  A    between atoms: N5_20  and  C14_21 
REMARK    6  A    between atoms: C14_21  and  C15_22 
REMARK    7  A    between atoms: C14_21  and  C16_24 
REMARK    8  A    between atoms: C15_22  and  O2_23 
ROOT
HETATM    1  C5  UNL     1      28.481   7.019  47.418  1.00  0.00     0.067 C 
HETATM    2  C6  UNL     1      28.334   5.857  48.254  1.00  0.00     0.308 A 
HETATM    3  O1  UNL     1      28.447   4.835  48.945  1.00  0.00    -0.123 OA
HETATM    4  N2  UNL     1      27.182   5.287  48.863  1.00  0.00     0.113 N 
HETATM    5  C7  UNL     1      26.888   4.184  49.694  1.00  0.00     0.288 C 
HETATM    6  C8  UNL     1      25.570   3.498  49.253  1.00  0.00     0.072 C 
HETATM    7  C9  UNL     1      24.481   4.348  49.774  1.00  0.00    -0.025 A 
HETATM    8  C10 UNL     1      24.823   5.644  49.326  1.00  0.00     0.021 A 
HETATM    9  S1  UNL     1      23.487   6.642  49.981  1.00  0.00    -0.072 SA
HETATM   10  C11 UNL     1      22.612   5.329  50.765  1.00  0.00     0.114 A 
HETATM   11  N3  UNL     1      21.481   5.498  51.449  1.00  0.00    -0.234 NA
HETATM   12  C12 UNL     1      20.942   4.350  52.001  1.00  0.00     0.236 A 
HETATM   13  N4  UNL     1      21.641   3.274  51.755  1.00  0.00    -0.224 NA
HETATM   14  C13 UNL     1      22.766   3.089  51.076  1.00  0.00     0.139 A 
HETATM   15  C22 UNL     1      23.351   4.184  50.507  1.00  0.00     0.053 A 
HETATM   16  C23 UNL     1      25.983   6.041  48.549  1.00  0.00     0.330 C 
ENDROOT
BRANCH  14  17
HETATM   17  N5  UNL     1      23.276   1.745  50.930  1.00  0.00    -0.363 N 
HETATM   18  H16 UNL     1      23.267   1.072  50.165  1.00  0.00     0.162 HD
BRANCH  17  19
HETATM   19  C14 UNL     1      23.943   1.167  52.059  1.00  0.00     0.140 C 
BRANCH  19  20
HETATM   20  C15 UNL     1      24.584   2.142  53.000  1.00  0.00     0.194 C 
BRANCH  20  21
HETATM   21  O2  UNL     1      25.834   2.581  52.667  1.00  0.00    -0.399 OA
HETATM   22  H20 UNL     1      26.148   2.282  51.788  1.00  0.00     0.209 HD
ENDBRANCH  20  21
ENDBRANCH  19  20
BRANCH  19  23
HETATM   23  C16 UNL     1      23.039   0.258  52.823  1.00  0.00    -0.034 A 
HETATM   24  C17 UNL     1      23.687  -0.240  53.967  1.00  0.00     0.009 A 
HETATM   25  C18 UNL     1      22.945  -1.104  54.775  1.00  0.00     0.001 A 
HETATM   26  C19 UNL     1      21.631  -1.517  54.557  1.00  0.00     0.000 A 
HETATM   27  C20 UNL     1      21.050  -0.993  53.416  1.00  0.00     0.001 A 
HETATM   28  C21 UNL     1      21.729  -0.149  52.595  1.00  0.00     0.009 A 
ENDBRANCH  19  23
ENDBRANCH  17  19
ENDBRANCH  14  17
BRANCH   1  29
HETATM   29  C4  UNL     1      27.694   7.937  46.930  1.00  0.00     0.007 C 
BRANCH  29  30
HETATM   30  C3  UNL     1      26.626   8.687  46.330  1.00  0.00     0.299 C 
BRANCH  30  31
HETATM   31  N1  UNL     1      26.464  10.000  46.861  1.00  0.00     0.083 N 
HETATM   32  C1  UNL     1      26.358  10.116  48.286  1.00  0.00     0.309 C 
HETATM   33  C2  UNL     1      27.399  10.933  46.306  1.00  0.00     0.309 C 
ENDBRANCH  30  31
ENDBRANCH  29  30
ENDBRANCH   1  29
TORSDOF 8
ENDMDL
