MODEL 1
REMARK VINA RESULT:      -8.4      0.000      0.000
REMARK  6 active torsions:
REMARK  status: ('A' for Active; 'I' for Inactive)
REMARK    1  A    between atoms: C2_2  and  C3_3 
REMARK    2  A    between atoms: C2_2  and  N4_17 
REMARK    3  A    between atoms: C7_9  and  N3_10 
REMARK    4  A    between atoms: N3_10  and  C8_11 
REMARK    5  A    between atoms: N4_17  and  C13_18 
REMARK    6  A    between atoms: C13_18  and  C14_19 
ROOT
HETATM    1  C3  UNL     1      22.854   1.183  51.895  1.00  0.00     0.010 C 
HETATM    2  C4  UNL     1      22.535   1.480  50.650  1.00  0.00     0.006 A 
HETATM    3  C5  UNL     1      21.525   0.641  49.990  1.00  0.00     0.192 A 
HETATM    4  N1  UNL     1      21.327   1.137  48.632  1.00  0.00    -0.278 NA
HETATM    5  C6  UNL     1      21.953   2.141  48.137  1.00  0.00     0.229 A 
HETATM    6  N2  UNL     1      22.923   2.914  48.830  1.00  0.00    -0.224 NA
HETATM    7  C7  UNL     1      23.235   2.618  50.067  1.00  0.00     0.137 A 
ENDROOT
BRANCH   1   8
HETATM    8  C2  UNL     1      22.226   0.033  52.656  1.00  0.00     0.096 C 
HETATM    9  C1  UNL     1      21.376   0.605  53.731  1.00  0.00     0.036 C 
BRANCH   8  10
HETATM   10  N4  UNL     1      23.267  -0.785  53.110  1.00  0.00    -0.410 N 
HETATM   11  H12 UNL     1      23.174  -1.800  52.883  1.00  0.00     0.154 HD
BRANCH  10  12
HETATM   12  C13 UNL     1      24.043  -0.470  54.230  1.00  0.00     0.153 C 
BRANCH  12  13
HETATM   13  C14 UNL     1      25.492  -0.523  53.967  1.00  0.00    -0.041 A 
HETATM   14  C15 UNL     1      26.361   0.102  54.867  1.00  0.00     0.010 A 
HETATM   15  C16 UNL     1      27.734   0.180  54.773  1.00  0.00     0.024 A 
HETATM   16  C17 UNL     1      28.313  -0.417  53.684  1.00  0.00     0.034 A 
HETATM   17 CL2  UNL     1      30.053  -0.340  53.529  1.00  0.00    -0.084 Cl
HETATM   18  C18 UNL     1      27.528  -1.051  52.757  1.00  0.00     0.024 A 
HETATM   19  C19 UNL     1      26.163  -1.106  52.887  1.00  0.00     0.010 A 
ENDBRANCH  12  13
ENDBRANCH  10  12
ENDBRANCH   8  10
ENDBRANCH   1   8
BRANCH   7  20
HETATM   20  N3  UNL     1      24.201   3.396  50.744  1.00  0.00    -0.340 N 
HETATM   21  H9  UNL     1      24.039   3.517  51.779  1.00  0.00     0.167 HD
BRANCH  20  22
HETATM   22  C8  UNL     1      25.304   3.954  50.014  1.00  0.00     0.046 A 
HETATM   23  C9  UNL     1      26.420   3.397  49.581  1.00  0.00     0.005 A 
HETATM   24  C10 UNL     1      27.220   4.219  48.961  1.00  0.00     0.038 A 
HETATM   25  C11 UNL     1      26.570   5.541  48.931  1.00  0.00     0.037 A 
HETATM   26 CL1  UNL     1      27.104   7.082  48.236  1.00  0.00    -0.084 Cl
HETATM   27  C12 UNL     1      25.425   5.357  49.569  1.00  0.00     0.054 A 
ENDBRANCH  20  22
ENDBRANCH   7  20
TORSDOF 6
ENDMDL
MODEL 2
REMARK VINA RESULT:      -8.3      1.309      6.310
REMARK  6 active torsions:
REMARK  status: ('A' for Active; 'I' for Inactive)
REMARK    1  A    between atoms: C2_2  and  C3_3 
REMARK    2  A    between atoms: C2_2  and  N4_17 
REMARK    3  A    between atoms: C7_9  and  N3_10 
REMARK    4  A    between atoms: N3_10  and  C8_11 
REMARK    5  A    between atoms: N4_17  and  C13_18 
REMARK    6  A    between atoms: C13_18  and  C14_19 
ROOT
HETATM    1  C3  UNL     1      23.120   1.189  51.720  1.00  0.00     0.010 C 
HETATM    2  C4  UNL     1      22.655   0.592  52.800  1.00  0.00     0.006 A 
HETATM    3  C5  UNL     1      21.365   1.055  53.331  1.00  0.00     0.192 A 
HETATM    4  N1  UNL     1      21.044   0.270  54.517  1.00  0.00    -0.278 NA
HETATM    5  C6  UNL     1      21.791  -0.662  54.986  1.00  0.00     0.229 A 
HETATM    6  N2  UNL     1      23.033  -1.064  54.424  1.00  0.00    -0.224 NA
HETATM    7  C7  UNL     1      23.489  -0.470  53.350  1.00  0.00     0.137 A 
ENDROOT
BRANCH   1   8
HETATM    8  C2  UNL     1      22.384   2.313  51.018  1.00  0.00     0.096 C 
HETATM    9  C1  UNL     1      22.052   1.854  49.645  1.00  0.00     0.036 C 
BRANCH   8  10
HETATM   10  N4  UNL     1      23.203   3.446  51.071  1.00  0.00    -0.410 N 
HETATM   11  H12 UNL     1      23.472   3.763  52.028  1.00  0.00     0.154 HD
BRANCH  10  12
HETATM   12  C13 UNL     1      23.207   4.424  50.070  1.00  0.00     0.153 C 
BRANCH  12  13
HETATM   13  C14 UNL     1      24.557   4.731  49.564  1.00  0.00    -0.041 A 
HETATM   14  C15 UNL     1      25.565   3.774  49.718  1.00  0.00     0.010 A 
HETATM   15  C16 UNL     1      26.884   3.893  49.335  1.00  0.00     0.024 A 
HETATM   16  C17 UNL     1      27.251   5.071  48.740  1.00  0.00     0.034 A 
HETATM   17 CL2  UNL     1      28.915   5.261  48.240  1.00  0.00    -0.084 Cl
HETATM   18  C18 UNL     1      26.319   6.058  48.555  1.00  0.00     0.024 A 
HETATM   19  C19 UNL     1      25.014   5.902  48.950  1.00  0.00     0.010 A 
ENDBRANCH  12  13
ENDBRANCH  10  12
ENDBRANCH   8  10
ENDBRANCH   1   8
BRANCH   7  20
HETATM   20  N3  UNL     1      24.726  -0.881  52.801  1.00  0.00    -0.340 N 
HETATM   21  H9  UNL     1      24.660  -1.474  51.933  1.00  0.00     0.167 HD
BRANCH  20  22
HETATM   22  C8  UNL     1      25.952  -0.482  53.434  1.00  0.00     0.046 A 
HETATM   23  C9  UNL     1      26.166   0.265  54.501  1.00  0.00     0.005 A 
HETATM   24  C10 UNL     1      27.427   0.440  54.783  1.00  0.00     0.038 A 
HETATM   25  C11 UNL     1      28.218  -0.304  53.788  1.00  0.00     0.037 A 
HETATM   26 CL1  UNL     1      29.971  -0.497  53.605  1.00  0.00    -0.084 Cl
HETATM   27  C12 UNL     1      27.312  -0.848  52.990  1.00  0.00     0.054 A 
ENDBRANCH  20  22
ENDBRANCH   7  20
TORSDOF 6
ENDMDL
MODEL 3
REMARK VINA RESULT:      -8.1      2.818      5.324
REMARK  6 active torsions:
REMARK  status: ('A' for Active; 'I' for Inactive)
REMARK    1  A    between atoms: C2_2  and  C3_3 
REMARK    2  A    between atoms: C2_2  and  N4_17 
REMARK    3  A    between atoms: C7_9  and  N3_10 
REMARK    4  A    between atoms: N3_10  and  C8_11 
REMARK    5  A    between atoms: N4_17  and  C13_18 
REMARK    6  A    between atoms: C13_18  and  C14_19 
ROOT
HETATM    1  C3  UNL     1      22.712   2.547  51.048  1.00  0.00     0.010 C 
HETATM    2  C4  UNL     1      21.418   2.766  51.176  1.00  0.00     0.006 A 
HETATM    3  C5  UNL     1      20.948   4.152  51.045  1.00  0.00     0.192 A 
HETATM    4  N1  UNL     1      19.500   4.169  51.223  1.00  0.00    -0.278 NA
HETATM    5  C6  UNL     1      18.793   3.123  51.454  1.00  0.00     0.229 A 
HETATM    6  N2  UNL     1      19.310   1.805  51.570  1.00  0.00    -0.224 NA
HETATM    7  C7  UNL     1      20.596   1.591  51.439  1.00  0.00     0.137 A 
ENDROOT
BRANCH   1   8
HETATM    8  C2  UNL     1      23.713   3.652  50.774  1.00  0.00     0.096 C 
HETATM    9  C1  UNL     1      24.215   3.479  49.386  1.00  0.00     0.036 C 
BRANCH   8  10
HETATM   10  N4  UNL     1      24.699   3.577  51.763  1.00  0.00    -0.410 N 
HETATM   11  H12 UNL     1      25.678   3.735  51.436  1.00  0.00     0.154 HD
BRANCH  10  12
HETATM   12  C13 UNL     1      24.550   2.810  52.924  1.00  0.00     0.153 C 
BRANCH  12  13
HETATM   13  C14 UNL     1      25.630   1.825  53.111  1.00  0.00    -0.041 A 
HETATM   14  C15 UNL     1      25.928   0.950  52.061  1.00  0.00     0.010 A 
HETATM   15  C16 UNL     1      26.879  -0.048  52.061  1.00  0.00     0.024 A 
HETATM   16  C17 UNL     1      27.611  -0.203  53.209  1.00  0.00     0.034 A 
HETATM   17 CL2  UNL     1      28.827  -1.459  53.249  1.00  0.00    -0.084 Cl
HETATM   18  C18 UNL     1      27.377   0.616  54.282  1.00  0.00     0.024 A 
HETATM   19  C19 UNL     1      26.421   1.599  54.242  1.00  0.00     0.010 A 
ENDBRANCH  12  13
ENDBRANCH  10  12
ENDBRANCH   8  10
ENDBRANCH   1   8
BRANCH   7  20
HETATM   20  N3  UNL     1      21.096   0.274  51.556  1.00  0.00    -0.340 N 
HETATM   21  H9  UNL     1      21.117  -0.283  50.661  1.00  0.00     0.167 HD
BRANCH  20  22
HETATM   22  C8  UNL     1      21.531  -0.210  52.836  1.00  0.00     0.046 A 
HETATM   23  C9  UNL     1      20.841  -0.531  53.915  1.00  0.00     0.005 A 
HETATM   24  C10 UNL     1      21.575  -0.922  54.919  1.00  0.00     0.038 A 
HETATM   25  C11 UNL     1      22.983  -0.894  54.485  1.00  0.00     0.037 A 
HETATM   26 CL1  UNL     1      24.473  -1.314  55.348  1.00  0.00    -0.084 Cl
HETATM   27  C12 UNL     1      22.931  -0.464  53.234  1.00  0.00     0.054 A 
ENDBRANCH  20  22
ENDBRANCH   7  20
TORSDOF 6
ENDMDL
MODEL 4
REMARK VINA RESULT:      -7.9      1.464      6.031
REMARK  6 active torsions:
REMARK  status: ('A' for Active; 'I' for Inactive)
REMARK    1  A    between atoms: C2_2  and  C3_3 
REMARK    2  A    between atoms: C2_2  and  N4_17 
REMARK    3  A    between atoms: C7_9  and  N3_10 
REMARK    4  A    between atoms: N3_10  and  C8_11 
REMARK    5  A    between atoms: N4_17  and  C13_18 
REMARK    6  A    between atoms: C13_18  and  C14_19 
ROOT
HETATM    1  C3  UNL     1      22.800   0.886  52.036  1.00  0.00     0.010 C 
HETATM    2  C4  UNL     1      22.769   0.186  53.154  1.00  0.00     0.006 A 
HETATM    3  C5  UNL     1      21.514   0.187  53.920  1.00  0.00     0.192 A 
HETATM    4  N1  UNL     1      21.698  -0.638  55.109  1.00  0.00    -0.278 NA
HETATM    5  C6  UNL     1      22.790  -1.246  55.399  1.00  0.00     0.229 A 
HETATM    6  N2  UNL     1      23.973  -1.207  54.613  1.00  0.00    -0.224 NA
HETATM    7  C7  UNL     1      23.999  -0.513  53.503  1.00  0.00     0.137 A 
ENDROOT
BRANCH   1   8
HETATM    8  C2  UNL     1      21.612   1.674  51.522  1.00  0.00     0.096 C 
HETATM    9  C1  UNL     1      20.994   0.900  50.416  1.00  0.00     0.036 C 
BRANCH   8  10
HETATM   10  N4  UNL     1      22.078   2.941  51.156  1.00  0.00    -0.410 N 
HETATM   11  H12 UNL     1      22.000   3.174  50.142  1.00  0.00     0.154 HD
BRANCH  10  12
HETATM   12  C13 UNL     1      23.072   3.618  51.872  1.00  0.00     0.153 C 
BRANCH  12  13
HETATM   13  C14 UNL     1      24.309   3.822  51.096  1.00  0.00    -0.041 A 
HETATM   14  C15 UNL     1      24.466   5.018  50.388  1.00  0.00     0.010 A 
HETATM   15  C16 UNL     1      25.533   5.373  49.591  1.00  0.00     0.024 A 
HETATM   16  C17 UNL     1      26.550   4.462  49.480  1.00  0.00     0.034 A 
HETATM   17 CL2  UNL     1      27.923   4.875  48.478  1.00  0.00    -0.084 Cl
HETATM   18  C18 UNL     1      26.469   3.267  50.144  1.00  0.00     0.024 A 
HETATM   19  C19 UNL     1      25.389   2.950  50.928  1.00  0.00     0.010 A 
ENDBRANCH  12  13
ENDBRANCH  10  12
ENDBRANCH   8  10
ENDBRANCH   1   8
BRANCH   7  20
HETATM   20  N3  UNL     1      25.183  -0.484  52.731  1.00  0.00    -0.340 N 
HETATM   21  H9  UNL     1      25.051  -0.636  51.696  1.00  0.00     0.167 HD
BRANCH  20  22
HETATM   22  C8  UNL     1      26.447  -0.256  53.374  1.00  0.00     0.046 A 
HETATM   23  C9  UNL     1      26.790   0.601  54.318  1.00  0.00     0.005 A 
HETATM   24  C10 UNL     1      28.048   0.544  54.656  1.00  0.00     0.038 A 
HETATM   25  C11 UNL     1      28.681  -0.517  53.854  1.00  0.00     0.037 A 
HETATM   26 CL1  UNL     1      30.349  -1.116  53.830  1.00  0.00    -0.084 Cl
HETATM   27  C12 UNL     1      27.702  -0.982  53.094  1.00  0.00     0.054 A 
ENDBRANCH  20  22
ENDBRANCH   7  20
TORSDOF 6
ENDMDL
MODEL 5
REMARK VINA RESULT:      -7.7      2.812      4.897
REMARK  6 active torsions:
REMARK  status: ('A' for Active; 'I' for Inactive)
REMARK    1  A    between atoms: C2_2  and  C3_3 
REMARK    2  A    between atoms: C2_2  and  N4_17 
REMARK    3  A    between atoms: C7_9  and  N3_10 
REMARK    4  A    between atoms: N3_10  and  C8_11 
REMARK    5  A    between atoms: N4_17  and  C13_18 
REMARK    6  A    between atoms: C13_18  and  C14_19 
ROOT
HETATM    1  C3  UNL     1      21.984   3.295  51.236  1.00  0.00     0.010 C 
HETATM    2  C4  UNL     1      22.899   3.907  50.511  1.00  0.00     0.006 A 
HETATM    3  C5  UNL     1      22.518   4.338  49.158  1.00  0.00     0.192 A 
HETATM    4  N1  UNL     1      23.669   4.984  48.536  1.00  0.00    -0.278 NA
HETATM    5  C6  UNL     1      24.807   5.130  49.111  1.00  0.00     0.229 A 
HETATM    6  N2  UNL     1      25.113   4.690  50.427  1.00  0.00    -0.224 NA
HETATM    7  C7  UNL     1      24.200   4.085  51.144  1.00  0.00     0.137 A 
ENDROOT
BRANCH   1   8
HETATM    8  C2  UNL     1      20.578   3.026  50.735  1.00  0.00     0.096 C 
HETATM    9  C1  UNL     1      19.626   3.656  51.686  1.00  0.00     0.036 C 
BRANCH   8  10
HETATM   10  N4  UNL     1      20.439   1.641  50.605  1.00  0.00    -0.410 N 
HETATM   11  H12 UNL     1      20.384   1.284  49.625  1.00  0.00     0.154 HD
BRANCH  10  12
HETATM   12  C13 UNL     1      19.843   0.844  51.588  1.00  0.00     0.153 C 
BRANCH  12  13
HETATM   13  C14 UNL     1      20.817   0.240  52.515  1.00  0.00    -0.041 A 
HETATM   14  C15 UNL     1      20.509   0.200  53.879  1.00  0.00     0.010 A 
HETATM   15  C16 UNL     1      21.302  -0.297  54.892  1.00  0.00     0.024 A 
HETATM   16  C17 UNL     1      22.520  -0.808  54.528  1.00  0.00     0.034 A 
HETATM   17 CL2  UNL     1      23.554  -1.448  55.784  1.00  0.00    -0.084 Cl
HETATM   18  C18 UNL     1      22.893  -0.804  53.210  1.00  0.00     0.024 A 
HETATM   19  C19 UNL     1      22.076  -0.300  52.231  1.00  0.00     0.010 A 
ENDBRANCH  12  13
ENDBRANCH  10  12
ENDBRANCH   8  10
ENDBRANCH   1   8
BRANCH   7  20
HETATM   20  N3  UNL     1      24.519   3.653  52.452  1.00  0.00    -0.340 N 
HETATM   21  H9  UNL     1      24.178   4.277  53.230  1.00  0.00     0.167 HD
BRANCH  20  22
HETATM   22  C8  UNL     1      25.258   2.436  52.639  1.00  0.00     0.046 A 
HETATM   23  C9  UNL     1      25.428   1.401  51.837  1.00  0.00     0.005 A 
HETATM   24  C10 UNL     1      26.157   0.447  52.347  1.00  0.00     0.038 A 
HETATM   25  C11 UNL     1      26.580   0.875  53.691  1.00  0.00     0.037 A 
HETATM   26 CL1  UNL     1      27.588   0.065  54.904  1.00  0.00    -0.084 Cl
HETATM   27  C12 UNL     1      26.029   2.069  53.843  1.00  0.00     0.054 A 
ENDBRANCH  20  22
ENDBRANCH   7  20
TORSDOF 6
ENDMDL
MODEL 6
REMARK VINA RESULT:      -7.6      1.582      6.407
REMARK  6 active torsions:
REMARK  status: ('A' for Active; 'I' for Inactive)
REMARK    1  A    between atoms: C2_2  and  C3_3 
REMARK    2  A    between atoms: C2_2  and  N4_17 
REMARK    3  A    between atoms: C7_9  and  N3_10 
REMARK    4  A    between atoms: N3_10  and  C8_11 
REMARK    5  A    between atoms: N4_17  and  C13_18 
REMARK    6  A    between atoms: C13_18  and  C14_19 
ROOT
HETATM    1  C3  UNL     1      23.756   2.528  50.808  1.00  0.00     0.010 C 
HETATM    2  C4  UNL     1      23.267   1.681  51.691  1.00  0.00     0.006 A 
HETATM    3  C5  UNL     1      21.813   1.463  51.690  1.00  0.00     0.192 A 
HETATM    4  N1  UNL     1      21.489   0.500  52.737  1.00  0.00    -0.278 NA
HETATM    5  C6  UNL     1      22.359  -0.041  53.509  1.00  0.00     0.229 A 
HETATM    6  N2  UNL     1      23.756   0.213  53.460  1.00  0.00    -0.224 NA
HETATM    7  C7  UNL     1      24.238   1.054  52.579  1.00  0.00     0.137 A 
ENDROOT
BRANCH   1   8
HETATM    8  C2  UNL     1      22.891   3.270  49.808  1.00  0.00     0.096 C 
HETATM    9  C1  UNL     1      23.025   2.590  48.495  1.00  0.00     0.036 C 
BRANCH   8  10
HETATM   10  N4  UNL     1      23.299   4.608  49.815  1.00  0.00    -0.410 N 
HETATM   11  H12 UNL     1      23.116   5.139  48.935  1.00  0.00     0.154 HD
BRANCH  10  12
HETATM   12  C13 UNL     1      24.349   5.076  50.612  1.00  0.00     0.153 C 
BRANCH  12  13
HETATM   13  C14 UNL     1      25.584   5.338  49.851  1.00  0.00    -0.041 A 
HETATM   14  C15 UNL     1      25.895   6.659  49.513  1.00  0.00     0.010 A 
HETATM   15  C16 UNL     1      26.984   7.092  48.788  1.00  0.00     0.024 A 
HETATM   16  C17 UNL     1      27.856   6.131  48.349  1.00  0.00     0.034 A 
HETATM   17 CL2  UNL     1      29.250   6.640  47.425  1.00  0.00    -0.084 Cl
HETATM   18  C18 UNL     1      27.619   4.813  48.640  1.00  0.00     0.024 A 
HETATM   19  C19 UNL     1      26.522   4.421  49.366  1.00  0.00     0.010 A 
ENDBRANCH  12  13
ENDBRANCH  10  12
ENDBRANCH   8  10
ENDBRANCH   1   8
BRANCH   7  20
HETATM   20  N3  UNL     1      25.630   1.296  52.541  1.00  0.00    -0.340 N 
HETATM   21  H9  UNL     1      25.910   2.301  52.390  1.00  0.00     0.167 HD
BRANCH  20  22
HETATM   22  C8  UNL     1      26.548   0.203  52.704  1.00  0.00     0.046 A 
HETATM   23  C9  UNL     1      26.410  -1.083  52.437  1.00  0.00     0.005 A 
HETATM   24  C10 UNL     1      27.457  -1.802  52.733  1.00  0.00     0.038 A 
HETATM   25  C11 UNL     1      28.490  -0.895  53.265  1.00  0.00     0.037 A 
HETATM   26 CL1  UNL     1      30.136  -1.218  53.836  1.00  0.00    -0.084 Cl
HETATM   27  C12 UNL     1      27.921   0.300  53.238  1.00  0.00     0.054 A 
ENDBRANCH  20  22
ENDBRANCH   7  20
TORSDOF 6
ENDMDL
MODEL 7
REMARK VINA RESULT:      -7.6      2.847      5.416
REMARK  6 active torsions:
REMARK  status: ('A' for Active; 'I' for Inactive)
REMARK    1  A    between atoms: C2_2  and  C3_3 
REMARK    2  A    between atoms: C2_2  and  N4_17 
REMARK    3  A    between atoms: C7_9  and  N3_10 
REMARK    4  A    between atoms: N3_10  and  C8_11 
REMARK    5  A    between atoms: N4_17  and  C13_18 
REMARK    6  A    between atoms: C13_18  and  C14_19 
ROOT
HETATM    1  C3  UNL     1      23.521   3.611  51.647  1.00  0.00     0.010 C 
HETATM    2  C4  UNL     1      24.583   3.731  50.875  1.00  0.00     0.006 A 
HETATM    3  C5  UNL     1      24.418   4.444  49.599  1.00  0.00     0.192 A 
HETATM    4  N1  UNL     1      25.703   4.459  48.909  1.00  0.00    -0.278 NA
HETATM    5  C6  UNL     1      26.774   3.927  49.374  1.00  0.00     0.229 A 
HETATM    6  N2  UNL     1      26.868   3.250  50.619  1.00  0.00    -0.224 NA
HETATM    7  C7  UNL     1      25.812   3.134  51.384  1.00  0.00     0.137 A 
ENDROOT
BRANCH   1   8
HETATM    8  C2  UNL     1      22.162   4.170  51.274  1.00  0.00     0.096 C 
HETATM    9  C1  UNL     1      22.115   5.588  51.716  1.00  0.00     0.036 C 
BRANCH   8  10
HETATM   10  N4  UNL     1      21.195   3.346  51.860  1.00  0.00    -0.410 N 
HETATM   11  H12 UNL     1      20.894   3.618  52.821  1.00  0.00     0.154 HD
BRANCH  10  12
HETATM   12  C13 UNL     1      21.050   1.995  51.524  1.00  0.00     0.153 C 
BRANCH  12  13
HETATM   13  C14 UNL     1      21.434   1.081  52.615  1.00  0.00    -0.041 A 
HETATM   14  C15 UNL     1      22.643   0.386  52.512  1.00  0.00     0.010 A 
HETATM   15  C16 UNL     1      23.153  -0.525  53.413  1.00  0.00     0.024 A 
HETATM   16  C17 UNL     1      22.400  -0.778  54.528  1.00  0.00     0.034 A 
HETATM   17 CL2  UNL     1      23.012  -1.927  55.695  1.00  0.00    -0.084 Cl
HETATM   18  C18 UNL     1      21.202  -0.135  54.701  1.00  0.00     0.024 A 
HETATM   19  C19 UNL     1      20.728   0.765  53.781  1.00  0.00     0.010 A 
ENDBRANCH  12  13
ENDBRANCH  10  12
ENDBRANCH   8  10
ENDBRANCH   1   8
BRANCH   7  20
HETATM   20  N3  UNL     1      25.920   2.459  52.620  1.00  0.00    -0.340 N 
HETATM   21  H9  UNL     1      25.456   2.935  53.438  1.00  0.00     0.167 HD
BRANCH  20  22
HETATM   22  C8  UNL     1      26.628   1.210  52.689  1.00  0.00     0.046 A 
HETATM   23  C9  UNL     1      26.331   0.024  52.191  1.00  0.00     0.005 A 
HETATM   24  C10 UNL     1      27.204  -0.903  52.469  1.00  0.00     0.038 A 
HETATM   25  C11 UNL     1      28.284  -0.282  53.257  1.00  0.00     0.037 A 
HETATM   26 CL1  UNL     1      29.769  -0.971  53.937  1.00  0.00    -0.084 Cl
HETATM   27  C12 UNL     1      27.915   0.984  53.376  1.00  0.00     0.054 A 
ENDBRANCH  20  22
ENDBRANCH   7  20
TORSDOF 6
ENDMDL
MODEL 8
REMARK VINA RESULT:      -7.4      3.215      5.449
REMARK  6 active torsions:
REMARK  status: ('A' for Active; 'I' for Inactive)
REMARK    1  A    between atoms: C2_2  and  C3_3 
REMARK    2  A    between atoms: C2_2  and  N4_17 
REMARK    3  A    between atoms: C7_9  and  N3_10 
REMARK    4  A    between atoms: N3_10  and  C8_11 
REMARK    5  A    between atoms: N4_17  and  C13_18 
REMARK    6  A    between atoms: C13_18  and  C14_19 
ROOT
HETATM    1  C3  UNL     1      23.347   2.950  50.814  1.00  0.00     0.010 C 
HETATM    2  C4  UNL     1      22.209   3.599  50.656  1.00  0.00     0.006 A 
HETATM    3  C5  UNL     1      22.252   5.067  50.710  1.00  0.00     0.192 A 
HETATM    4  N1  UNL     1      20.899   5.577  50.517  1.00  0.00    -0.278 NA
HETATM    5  C6  UNL     1      19.871   4.832  50.334  1.00  0.00     0.229 A 
HETATM    6  N2  UNL     1      19.896   3.412  50.292  1.00  0.00    -0.224 NA
HETATM    7  C7  UNL     1      21.028   2.772  50.447  1.00  0.00     0.137 A 
ENDROOT
BRANCH   1   8
HETATM    8  C2  UNL     1      24.671   3.651  51.042  1.00  0.00     0.096 C 
HETATM    9  C1  UNL     1      25.580   3.286  49.925  1.00  0.00     0.036 C 
BRANCH   8  10
HETATM   10  N4  UNL     1      25.129   3.277  52.311  1.00  0.00    -0.410 N 
HETATM   11  H12 UNL     1      26.025   3.718  52.614  1.00  0.00     0.154 HD
BRANCH  10  12
HETATM   12  C13 UNL     1      24.816   2.045  52.895  1.00  0.00     0.153 C 
BRANCH  12  13
HETATM   13  C14 UNL     1      25.987   1.164  53.055  1.00  0.00    -0.041 A 
HETATM   14  C15 UNL     1      27.229   1.744  53.331  1.00  0.00     0.010 A 
HETATM   15  C16 UNL     1      28.432   1.089  53.487  1.00  0.00     0.024 A 
HETATM   16  C17 UNL     1      28.413  -0.274  53.357  1.00  0.00     0.034 A 
HETATM   17 CL2  UNL     1      29.919  -1.143  53.546  1.00  0.00    -0.084 Cl
HETATM   18  C18 UNL     1      27.233  -0.916  53.086  1.00  0.00     0.024 A 
HETATM   19  C19 UNL     1      26.056  -0.228  52.939  1.00  0.00     0.010 A 
ENDBRANCH  12  13
ENDBRANCH  10  12
ENDBRANCH   8  10
ENDBRANCH   1   8
BRANCH   7  20
HETATM   20  N3  UNL     1      21.038   1.359  50.403  1.00  0.00    -0.340 N 
HETATM   21  H9  UNL     1      21.394   0.937  49.505  1.00  0.00     0.167 HD
BRANCH  20  22
HETATM   22  C8  UNL     1      20.581   0.608  51.539  1.00  0.00     0.046 A 
HETATM   23  C9  UNL     1      21.220   0.220  52.627  1.00  0.00     0.005 A 
HETATM   24  C10 UNL     1      20.489  -0.473  53.455  1.00  0.00     0.038 A 
HETATM   25  C11 UNL     1      19.134  -0.573  52.882  1.00  0.00     0.037 A 
HETATM   26 CL1  UNL     1      17.669  -1.358  53.497  1.00  0.00    -0.084 Cl
HETATM   27  C12 UNL     1      19.215   0.082  51.735  1.00  0.00     0.054 A 
ENDBRANCH  20  22
ENDBRANCH   7  20
TORSDOF 6
ENDMDL
MODEL 9
REMARK VINA RESULT:      -7.3      2.899      6.833
REMARK  6 active torsions:
REMARK  status: ('A' for Active; 'I' for Inactive)
REMARK    1  A    between atoms: C2_2  and  C3_3 
REMARK    2  A    between atoms: C2_2  and  N4_17 
REMARK    3  A    between atoms: C7_9  and  N3_10 
REMARK    4  A    between atoms: N3_10  and  C8_11 
REMARK    5  A    between atoms: N4_17  and  C13_18 
REMARK    6  A    between atoms: C13_18  and  C14_19 
ROOT
HETATM    1  C3  UNL     1      22.088   0.910  52.534  1.00  0.00     0.010 C 
HETATM    2  C4  UNL     1      22.465   0.125  53.525  1.00  0.00     0.006 A 
HETATM    3  C5  UNL     1      21.422  -0.359  54.441  1.00  0.00     0.192 A 
HETATM    4  N1  UNL     1      22.051  -1.201  55.454  1.00  0.00    -0.278 NA
HETATM    5  C6  UNL     1      23.309  -1.449  55.500  1.00  0.00     0.229 A 
HETATM    6  N2  UNL     1      24.268  -0.948  54.580  1.00  0.00    -0.224 NA
HETATM    7  C7  UNL     1      23.890  -0.171  53.596  1.00  0.00     0.137 A 
ENDROOT
BRANCH   1   8
HETATM    8  C2  UNL     1      20.646   1.321  52.310  1.00  0.00     0.096 C 
HETATM    9  C1  UNL     1      20.091   0.467  51.229  1.00  0.00     0.036 C 
BRANCH   8  10
HETATM   10  N4  UNL     1      20.642   2.692  52.028  1.00  0.00    -0.410 N 
HETATM   11  H12 UNL     1      19.708   3.103  51.807  1.00  0.00     0.154 HD
BRANCH  10  12
HETATM   12  C13 UNL     1      21.753   3.360  51.503  1.00  0.00     0.153 C 
BRANCH  12  13
HETATM   13  C14 UNL     1      21.704   3.505  50.037  1.00  0.00    -0.041 A 
HETATM   14  C15 UNL     1      22.457   2.628  49.251  1.00  0.00     0.010 A 
HETATM   15  C16 UNL     1      22.557   2.627  47.876  1.00  0.00     0.024 A 
HETATM   16  C17 UNL     1      21.844   3.585  47.205  1.00  0.00     0.034 A 
HETATM   17 CL2  UNL     1      21.945   3.618  45.459  1.00  0.00    -0.084 Cl
HETATM   18  C18 UNL     1      21.082   4.482  47.906  1.00  0.00     0.024 A 
HETATM   19  C19 UNL     1      21.008   4.450  49.275  1.00  0.00     0.010 A 
ENDBRANCH  12  13
ENDBRANCH  10  12
ENDBRANCH   8  10
ENDBRANCH   1   8
BRANCH   7  20
HETATM   20  N3  UNL     1      24.856   0.320  52.688  1.00  0.00    -0.340 N 
HETATM   21  H9  UNL     1      24.500   0.528  51.718  1.00  0.00     0.167 HD
BRANCH  20  22
HETATM   22  C8  UNL     1      26.213   0.500  53.122  1.00  0.00     0.046 A 
HETATM   23  C9  UNL     1      26.782   1.496  53.777  1.00  0.00     0.005 A 
HETATM   24  C10 UNL     1      28.058   1.332  53.990  1.00  0.00     0.038 A 
HETATM   25  C11 UNL     1      28.444   0.027  53.425  1.00  0.00     0.037 A 
HETATM   26 CL1  UNL     1      30.009  -0.804  53.386  1.00  0.00    -0.084 Cl
HETATM   27  C12 UNL     1      27.322  -0.452  52.911  1.00  0.00     0.054 A 
ENDBRANCH  20  22
ENDBRANCH   7  20
TORSDOF 6
ENDMDL
