MODEL 1
REMARK VINA RESULT:      -9.2      0.000      0.000
REMARK  6 active torsions:
REMARK  status: ('A' for Active; 'I' for Inactive)
REMARK    1  A    between atoms: C2_2  and  O1_3 
REMARK    2  A    between atoms: O1_3  and  C3_4 
REMARK    3  A    between atoms: C18_23  and  N4_24 
REMARK       I    between atoms: N4_24  and  C19_25 
REMARK    4  A    between atoms: C19_25  and  C20_27 
REMARK    5  A    between atoms: C21_28  and  C22_29 
REMARK    6  A    between atoms: C22_29  and  N5_30 
ROOT
HETATM    1  C3  UNL     1      26.621   1.947  52.381  1.00  0.00     0.097 A 
HETATM    2  C4  UNL     1      26.077   0.976  53.097  1.00  0.00     0.071 A 
HETATM    3  C5  UNL     1      24.656   0.670  53.019  1.00  0.00     0.065 A 
HETATM    4  N1  UNL     1      24.228  -0.275  53.771  1.00  0.00    -0.294 NA
HETATM    5  C6  UNL     1      25.077  -1.022  54.665  1.00  0.00     0.178 C 
HETATM    6  C7  UNL     1      23.738   1.393  52.164  1.00  0.00     0.019 A 
HETATM    7  C8  UNL     1      22.459   1.158  51.975  1.00  0.00     0.046 C 
HETATM    8  N2  UNL     1      21.886   0.045  52.687  1.00  0.00    -0.387 N 
HETATM    9  C9  UNL     1      20.785  -0.330  53.502  1.00  0.00     0.148 C 
HETATM   10  C10 UNL     1      19.512   0.015  52.782  1.00  0.00     0.017 C 
HETATM   11  C11 UNL     1      19.208   1.030  51.942  1.00  0.00     0.040 C 
HETATM   12 CL1  UNL     1      17.572   1.139  51.261  1.00  0.00    -0.084 Cl
HETATM   13  C12 UNL     1      20.209   2.076  51.582  1.00  0.00    -0.011 C 
HETATM   14  C13 UNL     1      20.169   3.361  51.460  1.00  0.00    -0.013 C 
HETATM   15  C14 UNL     1      21.590   3.429  51.119  1.00  0.00     0.064 C 
HETATM   16  C15 UNL     1      21.565   1.953  51.124  1.00  0.00     0.123 C 
HETATM   17  C16 UNL     1      21.744   1.516  49.693  1.00  0.00     0.081 C 
HETATM   18  N3  UNL     1      21.871   1.164  48.592  1.00  0.00    -0.196 NA
HETATM   19  C17 UNL     1      24.445   2.429  51.429  1.00  0.00     0.048 A 
HETATM   20  C18 UNL     1      25.738   2.702  51.506  1.00  0.00     0.069 A 
HETATM   21  H10 UNL     1      22.478  -0.849  52.574  1.00  0.00     0.159 HD
ENDROOT
BRANCH  20  22
HETATM   22  N4  UNL     1      26.376   3.734  50.760  1.00  0.00    -0.321 N 
HETATM   23  C19 UNL     1      25.894   4.333  49.564  1.00  0.00     0.245 C 
HETATM   24  O2  UNL     1      24.810   3.998  49.021  1.00  0.00    -0.268 OA
HETATM   25  H18 UNL     1      27.270   3.986  51.238  1.00  0.00     0.169 HD
BRANCH  23  26
HETATM   26  C20 UNL     1      26.688   5.382  48.932  1.00  0.00     0.072 C 
HETATM   27  C21 UNL     1      27.940   5.189  48.562  1.00  0.00     0.008 C 
BRANCH  27  28
HETATM   28  C22 UNL     1      28.785   6.235  47.915  1.00  0.00     0.299 C 
BRANCH  28  29
HETATM   29  N5  UNL     1      30.085   6.174  48.567  1.00  0.00     0.083 N 
HETATM   30  C23 UNL     1      30.718   7.475  48.661  1.00  0.00     0.309 C 
HETATM   31  C24 UNL     1      30.945   5.294  47.789  1.00  0.00     0.309 C 
ENDBRANCH  28  29
ENDBRANCH  27  28
ENDBRANCH  23  26
ENDBRANCH  20  22
BRANCH   1  32
HETATM   32  O1  UNL     1      27.964   2.190  52.497  1.00  0.00    -0.349 OA
BRANCH  32  33
HETATM   33  C2  UNL     1      28.662   1.958  53.707  1.00  0.00     0.171 C 
HETATM   34  C1  UNL     1      29.446   0.670  53.692  1.00  0.00     0.034 C 
ENDBRANCH  32  33
ENDBRANCH   1  32
TORSDOF 6
ENDMDL
MODEL 2
REMARK VINA RESULT:      -8.3      1.512      1.797
REMARK  6 active torsions:
REMARK  status: ('A' for Active; 'I' for Inactive)
REMARK    1  A    between atoms: C2_2  and  O1_3 
REMARK    2  A    between atoms: O1_3  and  C3_4 
REMARK    3  A    between atoms: C18_23  and  N4_24 
REMARK       I    between atoms: N4_24  and  C19_25 
REMARK    4  A    between atoms: C19_25  and  C20_27 
REMARK    5  A    between atoms: C21_28  and  C22_29 
REMARK    6  A    between atoms: C22_29  and  N5_30 
ROOT
HETATM    1  C3  UNL     1      26.358   1.858  52.073  1.00  0.00     0.097 A 
HETATM    2  C4  UNL     1      25.790   0.972  52.875  1.00  0.00     0.071 A 
HETATM    3  C5  UNL     1      24.370   0.664  52.793  1.00  0.00     0.065 A 
HETATM    4  N1  UNL     1      23.917  -0.193  53.632  1.00  0.00    -0.294 NA
HETATM    5  C6  UNL     1      24.739  -0.840  54.624  1.00  0.00     0.178 C 
HETATM    6  C7  UNL     1      23.479   1.291  51.840  1.00  0.00     0.019 A 
HETATM    7  C8  UNL     1      22.204   1.040  51.644  1.00  0.00     0.046 C 
HETATM    8  N2  UNL     1      21.606   0.013  52.457  1.00  0.00    -0.387 N 
HETATM    9  C9  UNL     1      20.482  -0.268  53.279  1.00  0.00     0.148 C 
HETATM   10  C10 UNL     1      19.231  -0.001  52.491  1.00  0.00     0.017 C 
HETATM   11  C11 UNL     1      18.954   0.918  51.539  1.00  0.00     0.040 C 
HETATM   12 CL1  UNL     1      17.337   0.956  50.806  1.00  0.00    -0.084 Cl
HETATM   13  C12 UNL     1      19.970   1.916  51.094  1.00  0.00    -0.011 C 
HETATM   14  C13 UNL     1      19.941   3.180  50.831  1.00  0.00    -0.013 C 
HETATM   15  C14 UNL     1      21.370   3.207  50.522  1.00  0.00     0.064 C 
HETATM   16  C15 UNL     1      21.337   1.740  50.688  1.00  0.00     0.123 C 
HETATM   17  C16 UNL     1      21.551   1.149  49.318  1.00  0.00     0.081 C 
HETATM   18  N3  UNL     1      21.704   0.680  48.266  1.00  0.00    -0.196 NA
HETATM   19  C17 UNL     1      24.210   2.239  51.016  1.00  0.00     0.048 A 
HETATM   20  C18 UNL     1      25.502   2.516  51.097  1.00  0.00     0.069 A 
HETATM   21  H10 UNL     1      22.196  -0.889  52.458  1.00  0.00     0.159 HD
ENDROOT
BRANCH  20  22
HETATM   22  N4  UNL     1      26.165   3.458  50.261  1.00  0.00    -0.321 N 
HETATM   23  C19 UNL     1      25.729   4.779  49.965  1.00  0.00     0.245 C 
HETATM   24  O2  UNL     1      24.669   5.269  50.432  1.00  0.00    -0.268 OA
HETATM   25  H18 UNL     1      27.038   3.020  49.892  1.00  0.00     0.169 HD
BRANCH  23  26
HETATM   26  C20 UNL     1      26.542   5.609  49.081  1.00  0.00     0.072 C 
HETATM   27  C21 UNL     1      26.114   6.768  48.616  1.00  0.00     0.008 C 
BRANCH  27  28
HETATM   28  C22 UNL     1      26.913   7.644  47.711  1.00  0.00     0.299 C 
BRANCH  28  29
HETATM   29  N5  UNL     1      26.938   8.961  48.332  1.00  0.00     0.083 N 
HETATM   30  C23 UNL     1      27.337   8.908  49.725  1.00  0.00     0.309 C 
HETATM   31  C24 UNL     1      25.599   9.528  48.253  1.00  0.00     0.309 C 
ENDBRANCH  28  29
ENDBRANCH  27  28
ENDBRANCH  23  26
ENDBRANCH  20  22
BRANCH   1  32
HETATM   32  O1  UNL     1      27.698   2.109  52.197  1.00  0.00    -0.349 OA
BRANCH  32  33
HETATM   33  C2  UNL     1      28.515   1.372  53.090  1.00  0.00     0.171 C 
HETATM   34  C1  UNL     1      29.172   2.241  54.132  1.00  0.00     0.034 C 
ENDBRANCH  32  33
ENDBRANCH   1  32
TORSDOF 6
ENDMDL
MODEL 3
REMARK VINA RESULT:      -8.0      2.498      4.999
REMARK  6 active torsions:
REMARK  status: ('A' for Active; 'I' for Inactive)
REMARK    1  A    between atoms: C2_2  and  O1_3 
REMARK    2  A    between atoms: O1_3  and  C3_4 
REMARK    3  A    between atoms: C18_23  and  N4_24 
REMARK       I    between atoms: N4_24  and  C19_25 
REMARK    4  A    between atoms: C19_25  and  C20_27 
REMARK    5  A    between atoms: C21_28  and  C22_29 
REMARK    6  A    between atoms: C22_29  and  N5_30 
ROOT
HETATM    1  C3  UNL     1      22.814   3.965  48.410  1.00  0.00     0.097 A 
HETATM    2  C4  UNL     1      21.754   3.300  48.843  1.00  0.00     0.071 A 
HETATM    3  C5  UNL     1      21.821   2.425  50.004  1.00  0.00     0.065 A 
HETATM    4  N1  UNL     1      20.743   1.811  50.325  1.00  0.00    -0.294 NA
HETATM    5  C6  UNL     1      19.506   1.951  49.599  1.00  0.00     0.178 C 
HETATM    6  C7  UNL     1      23.034   2.216  50.767  1.00  0.00     0.019 A 
HETATM    7  C8  UNL     1      23.184   1.500  51.858  1.00  0.00     0.046 C 
HETATM    8  N2  UNL     1      22.012   0.847  52.381  1.00  0.00    -0.387 N 
HETATM    9  C9  UNL     1      21.531  -0.401  52.859  1.00  0.00     0.148 C 
HETATM   10  C10 UNL     1      22.428  -0.870  53.969  1.00  0.00     0.017 C 
HETATM   11  C11 UNL     1      23.758  -0.723  54.165  1.00  0.00     0.040 C 
HETATM   12 CL1  UNL     1      24.510  -1.423  55.613  1.00  0.00    -0.084 Cl
HETATM   13  C12 UNL     1      24.618   0.003  53.186  1.00  0.00    -0.011 C 
HETATM   14  C13 UNL     1      25.785  -0.212  52.675  1.00  0.00    -0.013 C 
HETATM   15  C14 UNL     1      25.714   1.000  51.859  1.00  0.00     0.064 C 
HETATM   16  C15 UNL     1      24.452   1.289  52.569  1.00  0.00     0.123 C 
HETATM   17  C16 UNL     1      24.719   2.485  53.447  1.00  0.00     0.081 C 
HETATM   18  N3  UNL     1      24.914   3.400  54.138  1.00  0.00    -0.196 NA
HETATM   19  C17 UNL     1      24.124   2.994  50.202  1.00  0.00     0.048 A 
HETATM   20  C18 UNL     1      24.056   3.787  49.145  1.00  0.00     0.069 A 
HETATM   21  H10 UNL     1      21.178   1.527  52.459  1.00  0.00     0.159 HD
ENDROOT
BRANCH  20  22
HETATM   22  N4  UNL     1      25.162   4.525  48.635  1.00  0.00    -0.321 N 
HETATM   23  C19 UNL     1      25.749   5.680  49.223  1.00  0.00     0.245 C 
HETATM   24  O2  UNL     1      25.334   6.185  50.297  1.00  0.00    -0.268 OA
HETATM   25  H18 UNL     1      25.480   4.079  47.747  1.00  0.00     0.169 HD
BRANCH  23  26
HETATM   26  C20 UNL     1      26.884   6.311  48.556  1.00  0.00     0.072 C 
HETATM   27  C21 UNL     1      28.052   5.708  48.436  1.00  0.00     0.008 C 
BRANCH  27  28
HETATM   28  C22 UNL     1      29.235   6.318  47.762  1.00  0.00     0.299 C 
BRANCH  28  29
HETATM   29  N5  UNL     1      30.402   5.904  48.529  1.00  0.00     0.083 N 
HETATM   30  C23 UNL     1      31.233   7.026  48.919  1.00  0.00     0.309 C 
HETATM   31  C24 UNL     1      31.195   5.003  47.704  1.00  0.00     0.309 C 
ENDBRANCH  28  29
ENDBRANCH  27  28
ENDBRANCH  23  26
ENDBRANCH  20  22
BRANCH   1  32
HETATM   32  O1  UNL     1      22.691   4.773  47.311  1.00  0.00    -0.349 OA
BRANCH  32  33
HETATM   33  C2  UNL     1      22.175   6.089  47.407  1.00  0.00     0.171 C 
HETATM   34  C1  UNL     1      23.181   7.142  47.017  1.00  0.00     0.034 C 
ENDBRANCH  32  33
ENDBRANCH   1  32
TORSDOF 6
ENDMDL
MODEL 4
REMARK VINA RESULT:      -8.0      2.435      3.374
REMARK  6 active torsions:
REMARK  status: ('A' for Active; 'I' for Inactive)
REMARK    1  A    between atoms: C2_2  and  O1_3 
REMARK    2  A    between atoms: O1_3  and  C3_4 
REMARK    3  A    between atoms: C18_23  and  N4_24 
REMARK       I    between atoms: N4_24  and  C19_25 
REMARK    4  A    between atoms: C19_25  and  C20_27 
REMARK    5  A    between atoms: C21_28  and  C22_29 
REMARK    6  A    between atoms: C22_29  and  N5_30 
ROOT
HETATM    1  C3  UNL     1      26.381   3.567  50.450  1.00  0.00     0.097 A 
HETATM    2  C4  UNL     1      26.639   2.510  51.203  1.00  0.00     0.071 A 
HETATM    3  C5  UNL     1      25.576   1.664  51.726  1.00  0.00     0.065 A 
HETATM    4  N1  UNL     1      25.934   0.678  52.463  1.00  0.00    -0.294 NA
HETATM    5  C6  UNL     1      27.310   0.389  52.784  1.00  0.00     0.178 C 
HETATM    6  C7  UNL     1      24.172   1.906  51.466  1.00  0.00     0.019 A 
HETATM    7  C8  UNL     1      23.147   1.174  51.838  1.00  0.00     0.046 C 
HETATM    8  N2  UNL     1      23.433  -0.025  52.582  1.00  0.00    -0.387 N 
HETATM    9  C9  UNL     1      23.062  -0.748  53.747  1.00  0.00     0.148 C 
HETATM   10  C10 UNL     1      21.579  -0.983  53.716  1.00  0.00     0.017 C 
HETATM   11  C11 UNL     1      20.565  -0.229  53.236  1.00  0.00     0.040 C 
HETATM   12 CL1  UNL     1      18.896  -0.820  53.372  1.00  0.00    -0.084 Cl
HETATM   13  C12 UNL     1      20.809   1.101  52.605  1.00  0.00    -0.011 C 
HETATM   14  C13 UNL     1      20.233   2.255  52.677  1.00  0.00    -0.013 C 
HETATM   15  C14 UNL     1      21.194   2.855  51.752  1.00  0.00     0.064 C 
HETATM   16  C15 UNL     1      21.737   1.493  51.581  1.00  0.00     0.123 C 
HETATM   17  C16 UNL     1      21.393   1.068  50.176  1.00  0.00     0.081 C 
HETATM   18  N3  UNL     1      21.125   0.722  49.099  1.00  0.00    -0.196 NA
HETATM   19  C17 UNL     1      24.012   3.086  50.632  1.00  0.00     0.048 A 
HETATM   20  C18 UNL     1      24.983   3.852  50.161  1.00  0.00     0.069 A 
HETATM   21  H10 UNL     1      24.198  -0.618  52.106  1.00  0.00     0.159 HD
ENDROOT
BRANCH  20  22
HETATM   22  N4  UNL     1      24.764   5.000  49.347  1.00  0.00    -0.321 N 
HETATM   23  C19 UNL     1      24.587   6.336  49.801  1.00  0.00     0.245 C 
HETATM   24  O2  UNL     1      24.607   6.651  51.018  1.00  0.00    -0.268 OA
HETATM   25  H18 UNL     1      24.754   4.702  48.347  1.00  0.00     0.169 HD
BRANCH  23  26
HETATM   26  C20 UNL     1      24.372   7.391  48.817  1.00  0.00     0.072 C 
HETATM   27  C21 UNL     1      24.657   7.228  47.538  1.00  0.00     0.008 C 
BRANCH  27  28
HETATM   28  C22 UNL     1      24.453   8.281  46.501  1.00  0.00     0.299 C 
BRANCH  28  29
HETATM   29  N5  UNL     1      25.761   8.542  45.918  1.00  0.00     0.083 N 
HETATM   30  C23 UNL     1      26.317   9.809  46.353  1.00  0.00     0.309 C 
HETATM   31  C24 UNL     1      25.619   8.570  44.470  1.00  0.00     0.309 C 
ENDBRANCH  28  29
ENDBRANCH  27  28
ENDBRANCH  23  26
ENDBRANCH  20  22
BRANCH   1  32
HETATM   32  O1  UNL     1      27.421   4.327  49.987  1.00  0.00    -0.349 OA
BRANCH  32  33
HETATM   33  C2  UNL     1      27.617   4.559  48.603  1.00  0.00     0.171 C 
HETATM   34  C1  UNL     1      28.121   5.949  48.309  1.00  0.00     0.034 C 
ENDBRANCH  32  33
ENDBRANCH   1  32
TORSDOF 6
ENDMDL
MODEL 5
REMARK VINA RESULT:      -7.8      3.763      8.147
REMARK  6 active torsions:
REMARK  status: ('A' for Active; 'I' for Inactive)
REMARK    1  A    between atoms: C2_2  and  O1_3 
REMARK    2  A    between atoms: O1_3  and  C3_4 
REMARK    3  A    between atoms: C18_23  and  N4_24 
REMARK       I    between atoms: N4_24  and  C19_25 
REMARK    4  A    between atoms: C19_25  and  C20_27 
REMARK    5  A    between atoms: C21_28  and  C22_29 
REMARK    6  A    between atoms: C22_29  and  N5_30 
ROOT
HETATM    1  C3  UNL     1      26.228   3.426  49.863  1.00  0.00     0.097 A 
HETATM    2  C4  UNL     1      27.171   4.205  49.357  1.00  0.00     0.071 A 
HETATM    3  C5  UNL     1      26.851   5.441  48.660  1.00  0.00     0.065 A 
HETATM    4  N1  UNL     1      27.838   6.110  48.189  1.00  0.00    -0.294 NA
HETATM    5  C6  UNL     1      29.212   5.692  48.320  1.00  0.00     0.178 C 
HETATM    6  C7  UNL     1      25.495   5.912  48.467  1.00  0.00     0.019 A 
HETATM    7  C8  UNL     1      25.105   7.036  47.910  1.00  0.00     0.046 C 
HETATM    8  N2  UNL     1      26.134   7.926  47.439  1.00  0.00    -0.387 N 
HETATM    9  C9  UNL     1      26.532   8.703  46.318  1.00  0.00     0.148 C 
HETATM   10  C10 UNL     1      25.404   9.623  45.946  1.00  0.00     0.017 C 
HETATM   11  C11 UNL     1      24.063   9.465  46.012  1.00  0.00     0.040 C 
HETATM   12 CL1  UNL     1      23.001  10.782  45.474  1.00  0.00    -0.084 Cl
HETATM   13  C12 UNL     1      23.447   8.202  46.513  1.00  0.00    -0.011 C 
HETATM   14  C13 UNL     1      22.456   7.467  46.132  1.00  0.00    -0.013 C 
HETATM   15  C14 UNL     1      22.680   6.506  47.212  1.00  0.00     0.064 C 
HETATM   16  C15 UNL     1      23.710   7.444  47.704  1.00  0.00     0.123 C 
HETATM   17  C16 UNL     1      23.180   8.024  48.991  1.00  0.00     0.081 C 
HETATM   18  N3  UNL     1      22.780   8.489  49.978  1.00  0.00    -0.196 NA
HETATM   19  C17 UNL     1      24.551   4.982  49.063  1.00  0.00     0.048 A 
HETATM   20  C18 UNL     1      24.849   3.858  49.694  1.00  0.00     0.069 A 
HETATM   21  H10 UNL     1      26.892   8.092  48.187  1.00  0.00     0.159 HD
ENDROOT
BRANCH  20  22
HETATM   22  N4  UNL     1      23.877   2.982  50.258  1.00  0.00    -0.321 N 
HETATM   23  C19 UNL     1      23.305   3.080  51.557  1.00  0.00     0.245 C 
HETATM   24  O2  UNL     1      23.612   3.987  52.372  1.00  0.00    -0.268 OA
HETATM   25  H18 UNL     1      23.646   2.244  49.557  1.00  0.00     0.169 HD
BRANCH  23  26
HETATM   26  C20 UNL     1      22.318   2.087  51.968  1.00  0.00     0.072 C 
HETATM   27  C21 UNL     1      22.606   0.802  52.047  1.00  0.00     0.008 C 
BRANCH  27  28
HETATM   28  C22 UNL     1      21.626  -0.244  52.462  1.00  0.00     0.299 C 
BRANCH  28  29
HETATM   29  N5  UNL     1      22.257  -0.992  53.541  1.00  0.00     0.083 N 
HETATM   30  C23 UNL     1      21.654  -0.717  54.831  1.00  0.00     0.309 C 
HETATM   31  C24 UNL     1      23.663  -0.617  53.596  1.00  0.00     0.309 C 
ENDBRANCH  28  29
ENDBRANCH  27  28
ENDBRANCH  23  26
ENDBRANCH  20  22
BRANCH   1  32
HETATM   32  O1  UNL     1      26.589   2.274  50.508  1.00  0.00    -0.349 OA
BRANCH  32  33
HETATM   33  C2  UNL     1      26.995   2.274  51.865  1.00  0.00     0.171 C 
HETATM   34  C1  UNL     1      26.891   0.914  52.507  1.00  0.00     0.034 C 
ENDBRANCH  32  33
ENDBRANCH   1  32
TORSDOF 6
ENDMDL
MODEL 6
REMARK VINA RESULT:      -7.7      3.214      4.541
REMARK  6 active torsions:
REMARK  status: ('A' for Active; 'I' for Inactive)
REMARK    1  A    between atoms: C2_2  and  O1_3 
REMARK    2  A    between atoms: O1_3  and  C3_4 
REMARK    3  A    between atoms: C18_23  and  N4_24 
REMARK       I    between atoms: N4_24  and  C19_25 
REMARK    4  A    between atoms: C19_25  and  C20_27 
REMARK    5  A    between atoms: C21_28  and  C22_29 
REMARK    6  A    between atoms: C22_29  and  N5_30 
ROOT
HETATM    1  C3  UNL     1      25.854   4.400  49.693  1.00  0.00     0.097 A 
HETATM    2  C4  UNL     1      26.308   3.503  50.554  1.00  0.00     0.071 A 
HETATM    3  C5  UNL     1      25.422   2.552  51.207  1.00  0.00     0.065 A 
HETATM    4  N1  UNL     1      25.961   1.741  52.041  1.00  0.00    -0.294 NA
HETATM    5  C6  UNL     1      27.370   1.739  52.345  1.00  0.00     0.178 C 
HETATM    6  C7  UNL     1      23.994   2.510  50.970  1.00  0.00     0.019 A 
HETATM    7  C8  UNL     1      23.121   1.658  51.459  1.00  0.00     0.046 C 
HETATM    8  N2  UNL     1      23.628   0.626  52.326  1.00  0.00    -0.387 N 
HETATM    9  C9  UNL     1      23.409  -0.006  53.579  1.00  0.00     0.148 C 
HETATM   10  C10 UNL     1      21.991  -0.501  53.627  1.00  0.00     0.017 C 
HETATM   11  C11 UNL     1      20.852  -0.000  53.098  1.00  0.00     0.040 C 
HETATM   12 CL1  UNL     1      19.318  -0.857  53.359  1.00  0.00    -0.084 Cl
HETATM   13  C12 UNL     1      20.845   1.266  52.310  1.00  0.00    -0.011 C 
HETATM   14  C13 UNL     1      20.072   2.300  52.268  1.00  0.00    -0.013 C 
HETATM   15  C14 UNL     1      20.897   2.946  51.247  1.00  0.00     0.064 C 
HETATM   16  C15 UNL     1      21.674   1.690  51.216  1.00  0.00     0.123 C 
HETATM   17  C16 UNL     1      21.393   1.045  49.882  1.00  0.00     0.081 C 
HETATM   18  N3  UNL     1      21.177   0.531  48.862  1.00  0.00    -0.196 NA
HETATM   19  C17 UNL     1      23.613   3.534  50.011  1.00  0.00     0.048 A 
HETATM   20  C18 UNL     1      24.425   4.397  49.422  1.00  0.00     0.069 A 
HETATM   21  H10 UNL     1      24.480   0.125  51.896  1.00  0.00     0.159 HD
ENDROOT
BRANCH  20  22
HETATM   22  N4  UNL     1      23.993   5.382  48.489  1.00  0.00    -0.321 N 
HETATM   23  C19 UNL     1      23.439   6.655  48.800  1.00  0.00     0.245 C 
HETATM   24  O2  UNL     1      23.269   7.056  49.980  1.00  0.00    -0.268 OA
HETATM   25  H18 UNL     1      24.148   5.018  47.523  1.00  0.00     0.169 HD
BRANCH  23  26
HETATM   26  C20 UNL     1      23.050   7.540  47.706  1.00  0.00     0.072 C 
HETATM   27  C21 UNL     1      22.784   7.086  46.496  1.00  0.00     0.008 C 
BRANCH  27  28
HETATM   28  C22 UNL     1      22.384   7.956  45.352  1.00  0.00     0.299 C 
BRANCH  28  29
HETATM   29  N5  UNL     1      22.539   7.150  44.150  1.00  0.00     0.083 N 
HETATM   30  C23 UNL     1      22.265   7.902  42.941  1.00  0.00     0.309 C 
HETATM   31  C24 UNL     1      21.606   6.034  44.224  1.00  0.00     0.309 C 
ENDBRANCH  28  29
ENDBRANCH  27  28
ENDBRANCH  23  26
ENDBRANCH  20  22
BRANCH   1  32
HETATM   32  O1  UNL     1      26.735   5.271  49.109  1.00  0.00    -0.349 OA
BRANCH  32  33
HETATM   33  C2  UNL     1      27.968   4.832  48.566  1.00  0.00     0.171 C 
HETATM   34  C1  UNL     1      28.879   5.973  48.189  1.00  0.00     0.034 C 
ENDBRANCH  32  33
ENDBRANCH   1  32
TORSDOF 6
ENDMDL
MODEL 7
REMARK VINA RESULT:      -7.5      4.349      8.168
REMARK  6 active torsions:
REMARK  status: ('A' for Active; 'I' for Inactive)
REMARK    1  A    between atoms: C2_2  and  O1_3 
REMARK    2  A    between atoms: O1_3  and  C3_4 
REMARK    3  A    between atoms: C18_23  and  N4_24 
REMARK       I    between atoms: N4_24  and  C19_25 
REMARK    4  A    between atoms: C19_25  and  C20_27 
REMARK    5  A    between atoms: C21_28  and  C22_29 
REMARK    6  A    between atoms: C22_29  and  N5_30 
ROOT
HETATM    1  C3  UNL     1      28.700   6.031  48.288  1.00  0.00     0.097 A 
HETATM    2  C4  UNL     1      28.783   7.217  47.706  1.00  0.00     0.071 A 
HETATM    3  C5  UNL     1      27.600   8.021  47.434  1.00  0.00     0.065 A 
HETATM    4  N1  UNL     1      27.789   9.144  46.847  1.00  0.00    -0.294 NA
HETATM    5  C6  UNL     1      29.092   9.625  46.458  1.00  0.00     0.178 C 
HETATM    6  C7  UNL     1      26.259   7.594  47.773  1.00  0.00     0.019 A 
HETATM    7  C8  UNL     1      25.139   8.265  47.627  1.00  0.00     0.046 C 
HETATM    8  N2  UNL     1      25.237   9.592  47.076  1.00  0.00    -0.387 N 
HETATM    9  C9  UNL     1      24.683  10.451  46.090  1.00  0.00     0.148 C 
HETATM   10  C10 UNL     1      23.196  10.521  46.294  1.00  0.00     0.017 C 
HETATM   11  C11 UNL     1      22.310   9.597  46.727  1.00  0.00     0.040 C 
HETATM   12 CL1  UNL     1      20.590  10.025  46.845  1.00  0.00    -0.084 Cl
HETATM   13  C12 UNL     1      22.736   8.216  47.097  1.00  0.00    -0.011 C 
HETATM   14  C13 UNL     1      22.259   7.035  46.881  1.00  0.00    -0.013 C 
HETATM   15  C14 UNL     1      23.362   6.397  47.599  1.00  0.00     0.064 C 
HETATM   16  C15 UNL     1      23.798   7.763  47.951  1.00  0.00     0.123 C 
HETATM   17  C16 UNL     1      23.569   7.917  49.433  1.00  0.00     0.081 C 
HETATM   18  N3  UNL     1      23.387   8.054  50.573  1.00  0.00    -0.196 NA
HETATM   19  C17 UNL     1      26.292   6.284  48.404  1.00  0.00     0.048 A 
HETATM   20  C18 UNL     1      27.372   5.559  48.648  1.00  0.00     0.069 A 
HETATM   21  H10 UNL     1      25.993  10.176  47.576  1.00  0.00     0.159 HD
ENDROOT
BRANCH  20  22
HETATM   22  N4  UNL     1      27.343   4.278  49.270  1.00  0.00    -0.321 N 
HETATM   23  C19 UNL     1      26.343   3.793  50.158  1.00  0.00     0.245 C 
HETATM   24  O2  UNL     1      25.343   4.475  50.497  1.00  0.00    -0.268 OA
HETATM   25  H18 UNL     1      28.185   3.741  48.967  1.00  0.00     0.169 HD
BRANCH  23  26
HETATM   26  C20 UNL     1      26.479   2.446  50.703  1.00  0.00     0.072 C 
HETATM   27  C21 UNL     1      26.963   2.223  51.911  1.00  0.00     0.008 C 
BRANCH  27  28
HETATM   28  C22 UNL     1      27.118   0.863  52.505  1.00  0.00     0.299 C 
BRANCH  28  29
HETATM   29  N5  UNL     1      27.972   1.021  53.673  1.00  0.00     0.083 N 
HETATM   30  C23 UNL     1      28.670   2.292  53.680  1.00  0.00     0.309 C 
HETATM   31  C24 UNL     1      28.959  -0.050  53.666  1.00  0.00     0.309 C 
ENDBRANCH  28  29
ENDBRANCH  27  28
ENDBRANCH  23  26
ENDBRANCH  20  22
BRANCH   1  32
HETATM   32  O1  UNL     1      29.847   5.320  48.518  1.00  0.00    -0.349 OA
BRANCH  32  33
HETATM   33  C2  UNL     1      30.957   5.390  47.642  1.00  0.00     0.171 C 
HETATM   34  C1  UNL     1      32.263   5.593  48.367  1.00  0.00     0.034 C 
ENDBRANCH  32  33
ENDBRANCH   1  32
TORSDOF 6
ENDMDL
MODEL 8
REMARK VINA RESULT:      -7.5      3.099      6.398
REMARK  6 active torsions:
REMARK  status: ('A' for Active; 'I' for Inactive)
REMARK    1  A    between atoms: C2_2  and  O1_3 
REMARK    2  A    between atoms: O1_3  and  C3_4 
REMARK    3  A    between atoms: C18_23  and  N4_24 
REMARK       I    between atoms: N4_24  and  C19_25 
REMARK    4  A    between atoms: C19_25  and  C20_27 
REMARK    5  A    between atoms: C21_28  and  C22_29 
REMARK    6  A    between atoms: C22_29  and  N5_30 
ROOT
HETATM    1  C3  UNL     1      23.039   2.796  48.821  1.00  0.00     0.097 A 
HETATM    2  C4  UNL     1      22.334   3.230  47.789  1.00  0.00     0.071 A 
HETATM    3  C5  UNL     1      20.886   3.097  47.740  1.00  0.00     0.065 A 
HETATM    4  N1  UNL     1      20.303   3.531  46.684  1.00  0.00    -0.294 NA
HETATM    5  C6  UNL     1      21.009   4.126  45.577  1.00  0.00     0.178 C 
HETATM    6  C7  UNL     1      20.111   2.489  48.802  1.00  0.00     0.019 A 
HETATM    7  C8  UNL     1      18.805   2.376  48.882  1.00  0.00     0.046 C 
HETATM    8  N2  UNL     1      18.032   2.928  47.800  1.00  0.00    -0.387 N 
HETATM    9  C9  UNL     1      16.974   2.631  46.899  1.00  0.00     0.148 C 
HETATM   10  C10 UNL     1      15.773   2.201  47.692  1.00  0.00     0.017 C 
HETATM   11  C11 UNL     1      15.667   1.515  48.852  1.00  0.00     0.040 C 
HETATM   12 CL1  UNL     1      14.058   1.168  49.518  1.00  0.00    -0.084 Cl
HETATM   13  C12 UNL     1      16.871   1.025  49.585  1.00  0.00    -0.011 C 
HETATM   14  C13 UNL     1      17.178  -0.077  50.185  1.00  0.00    -0.013 C 
HETATM   15  C14 UNL     1      18.510   0.417  50.532  1.00  0.00     0.064 C 
HETATM   16  C15 UNL     1      18.074   1.710  49.968  1.00  0.00     0.123 C 
HETATM   17  C16 UNL     1      17.954   2.665  51.128  1.00  0.00     0.081 C 
HETATM   18  N3  UNL     1      17.846   3.409  52.014  1.00  0.00    -0.196 NA
HETATM   19  C17 UNL     1      20.988   2.054  49.877  1.00  0.00     0.048 A 
HETATM   20  C18 UNL     1      22.305   2.177  49.914  1.00  0.00     0.069 A 
HETATM   21  H10 UNL     1      18.333   3.937  47.568  1.00  0.00     0.159 HD
ENDROOT
BRANCH  20  22
HETATM   22  N4  UNL     1      23.113   1.729  50.997  1.00  0.00    -0.321 N 
HETATM   23  C19 UNL     1      23.465   2.477  52.154  1.00  0.00     0.245 C 
HETATM   24  O2  UNL     1      23.082   3.660  52.345  1.00  0.00    -0.268 OA
HETATM   25  H18 UNL     1      23.413   0.747  50.806  1.00  0.00     0.169 HD
BRANCH  23  26
HETATM   26  C20 UNL     1      24.309   1.852  53.168  1.00  0.00     0.072 C 
HETATM   27  C21 UNL     1      24.660   0.582  53.103  1.00  0.00     0.008 C 
BRANCH  27  28
HETATM   28  C22 UNL     1      25.519  -0.095  54.118  1.00  0.00     0.299 C 
BRANCH  28  29
HETATM   29  N5  UNL     1      26.884  -0.020  53.616  1.00  0.00     0.083 N 
HETATM   30  C23 UNL     1      27.275  -1.219  52.899  1.00  0.00     0.309 C 
HETATM   31  C24 UNL     1      27.780   0.155  54.750  1.00  0.00     0.309 C 
ENDBRANCH  28  29
ENDBRANCH  27  28
ENDBRANCH  23  26
ENDBRANCH  20  22
BRANCH   1  32
HETATM   32  O1  UNL     1      24.400   2.948  48.811  1.00  0.00    -0.349 OA
BRANCH  32  33
HETATM   33  C2  UNL     1      25.023   4.125  49.294  1.00  0.00     0.171 C 
HETATM   34  C1  UNL     1      26.363   3.858  49.931  1.00  0.00     0.034 C 
ENDBRANCH  32  33
ENDBRANCH   1  32
TORSDOF 6
ENDMDL
MODEL 9
REMARK VINA RESULT:      -7.4      6.165     10.270
REMARK  6 active torsions:
REMARK  status: ('A' for Active; 'I' for Inactive)
REMARK    1  A    between atoms: C2_2  and  O1_3 
REMARK    2  A    between atoms: O1_3  and  C3_4 
REMARK    3  A    between atoms: C18_23  and  N4_24 
REMARK       I    between atoms: N4_24  and  C19_25 
REMARK    4  A    between atoms: C19_25  and  C20_27 
REMARK    5  A    between atoms: C21_28  and  C22_29 
REMARK    6  A    between atoms: C22_29  and  N5_30 
ROOT
HETATM    1  C3  UNL     1      27.691   6.144  48.507  1.00  0.00     0.097 A 
HETATM    2  C4  UNL     1      26.581   6.863  48.487  1.00  0.00     0.071 A 
HETATM    3  C5  UNL     1      26.600   8.297  48.237  1.00  0.00     0.065 A 
HETATM    4  N1  UNL     1      25.471   8.902  48.262  1.00  0.00    -0.294 NA
HETATM    5  C6  UNL     1      24.220   8.233  48.523  1.00  0.00     0.178 C 
HETATM    6  C7  UNL     1      27.818   9.040  47.991  1.00  0.00     0.019 A 
HETATM    7  C8  UNL     1      27.938  10.314  47.697  1.00  0.00     0.046 C 
HETATM    8  N2  UNL     1      26.723  11.079  47.588  1.00  0.00    -0.387 N 
HETATM    9  C9  UNL     1      26.106  12.287  48.007  1.00  0.00     0.148 C 
HETATM   10  C10 UNL     1      26.999  13.438  47.639  1.00  0.00     0.017 C 
HETATM   11  C11 UNL     1      28.346  13.541  47.586  1.00  0.00     0.040 C 
HETATM   12 CL1  UNL     1      29.085  15.082  47.105  1.00  0.00    -0.084 Cl
HETATM   13  C12 UNL     1      29.234  12.394  47.934  1.00  0.00    -0.011 C 
HETATM   14  C13 UNL     1      30.325  12.270  48.615  1.00  0.00    -0.013 C 
HETATM   15  C14 UNL     1      30.370  10.826  48.388  1.00  0.00     0.064 C 
HETATM   16  C15 UNL     1      29.207  11.026  47.498  1.00  0.00     0.123 C 
HETATM   17  C16 UNL     1      29.693  10.767  46.095  1.00  0.00     0.081 C 
HETATM   18  N3  UNL     1      30.056  10.582  45.006  1.00  0.00    -0.196 NA
HETATM   19  C17 UNL     1      28.967   8.150  48.036  1.00  0.00     0.048 A 
HETATM   20  C18 UNL     1      28.942   6.847  48.266  1.00  0.00     0.069 A 
HETATM   21  H10 UNL     1      25.998  10.588  46.958  1.00  0.00     0.159 HD
ENDROOT
BRANCH  20  22
HETATM   22  N4  UNL     1      30.104   6.025  48.298  1.00  0.00    -0.321 N 
HETATM   23  C19 UNL     1      31.314   6.300  48.993  1.00  0.00     0.245 C 
HETATM   24  O2  UNL     1      31.487   7.340  49.678  1.00  0.00    -0.268 OA
HETATM   25  H18 UNL     1      29.927   5.173  47.721  1.00  0.00     0.169 HD
BRANCH  23  26
HETATM   26  C20 UNL     1      32.408   5.337  48.912  1.00  0.00     0.072 C 
HETATM   27  C21 UNL     1      32.771   4.781  47.771  1.00  0.00     0.008 C 
BRANCH  27  28
HETATM   28  C22 UNL     1      33.882   3.793  47.646  1.00  0.00     0.299 C 
BRANCH  28  29
HETATM   29  N5  UNL     1      33.893   3.363  46.255  1.00  0.00     0.083 N 
HETATM   30  C23 UNL     1      35.150   3.661  45.595  1.00  0.00     0.309 C 
HETATM   31  C24 UNL     1      32.824   4.059  45.553  1.00  0.00     0.309 C 
ENDBRANCH  28  29
ENDBRANCH  27  28
ENDBRANCH  23  26
ENDBRANCH  20  22
BRANCH   1  32
HETATM   32  O1  UNL     1      27.612   4.799  48.749  1.00  0.00    -0.349 OA
BRANCH  32  33
HETATM   33  C2  UNL     1      26.407   4.188  49.175  1.00  0.00     0.171 C 
HETATM   34  C1  UNL     1      26.615   3.211  50.305  1.00  0.00     0.034 C 
ENDBRANCH  32  33
ENDBRANCH   1  32
TORSDOF 6
ENDMDL
