MODEL 1
REMARK VINA RESULT:      -7.4      0.000      0.000
REMARK  7 active torsions:
REMARK  status: ('A' for Active; 'I' for Inactive)
REMARK    1  A    between atoms: C2_2  and  C3_3 
REMARK    2  A    between atoms: C3_3  and  C4_4 
REMARK    3  A    between atoms: C4_4  and  N1_5 
REMARK    4  A    between atoms: N1_5  and  C5_6 
REMARK       I    between atoms: N1_5  and  C12_15 
REMARK    5  A    between atoms: C5_6  and  C6_7 
REMARK    6  A    between atoms: C11_13  and  O1_14 
REMARK       I    between atoms: C12_15  and  N2_17 
REMARK    7  A    between atoms: N2_17  and  C13_18 
ROOT
HETATM    1  N1  UNL     1      23.484   1.955  51.715  1.00  0.00    -0.330 N 
HETATM    2  C12 UNL     1      24.162   2.891  50.837  1.00  0.00     0.323 C 
HETATM    3  O2  UNL     1      23.834   3.178  49.649  1.00  0.00    -0.247 OA
HETATM    4  N2  UNL     1      25.317   3.665  51.128  1.00  0.00    -0.309 N 
HETATM    5  H16 UNL     1      25.754   3.557  52.068  1.00  0.00     0.170 HD
ENDROOT
BRANCH   1   6
HETATM    6  C4  UNL     1      22.359   1.371  51.058  1.00  0.00     0.128 C 
BRANCH   6   7
HETATM    7  C3  UNL     1      21.724   0.136  51.505  1.00  0.00     0.020 C 
BRANCH   7   8
HETATM    8  C2  UNL     1      21.035   0.082  52.828  1.00  0.00    -0.003 C 
HETATM    9  C1  UNL     1      21.639  -0.932  53.730  1.00  0.00     0.005 C 
ENDBRANCH   7   8
ENDBRANCH   6   7
ENDBRANCH   1   6
BRANCH   1  10
HETATM   10  C5  UNL     1      24.101   1.783  53.008  1.00  0.00     0.169 C 
BRANCH  10  11
HETATM   11  C6  UNL     1      25.231   0.857  53.106  1.00  0.00    -0.006 A 
HETATM   12  C7  UNL     1      25.305  -0.489  52.824  1.00  0.00     0.012 A 
HETATM   13  C8  UNL     1      26.421  -1.270  52.937  1.00  0.00     0.002 A 
HETATM   14  C9  UNL     1      27.607  -0.715  53.369  1.00  0.00     0.022 A 
HETATM   15  C10 UNL     1      27.606   0.631  53.672  1.00  0.00     0.044 A 
HETATM   16 BR1  UNL     1      29.275   1.333  54.261  1.00  0.00    -0.048 Br
HETATM   17  C11 UNL     1      26.455   1.383  53.543  1.00  0.00     0.090 A 
BRANCH  17  18
HETATM   18  O1  UNL     1      26.642   2.697  53.890  1.00  0.00    -0.359 OA
HETATM   19  H15 UNL     1      26.671   3.463  53.232  1.00  0.00     0.217 HD
ENDBRANCH  17  18
ENDBRANCH  10  11
ENDBRANCH   1  10
BRANCH   4  20
HETATM   20  C13 UNL     1      25.865   4.546  50.159  1.00  0.00     0.032 A 
HETATM   21  C14 UNL     1      25.499   5.785  49.865  1.00  0.00     0.006 A 
HETATM   22  C15 UNL     1      26.369   6.297  48.782  1.00  0.00     0.056 A 
HETATM   23  C16 UNL     1      27.260   5.161  48.528  1.00  0.00    -0.021 A 
HETATM   24  C17 UNL     1      26.995   4.121  49.313  1.00  0.00     0.025 A 
ENDBRANCH   4  20
TORSDOF 7
ENDMDL
MODEL 2
REMARK VINA RESULT:      -7.1      2.554      4.717
REMARK  7 active torsions:
REMARK  status: ('A' for Active; 'I' for Inactive)
REMARK    1  A    between atoms: C2_2  and  C3_3 
REMARK    2  A    between atoms: C3_3  and  C4_4 
REMARK    3  A    between atoms: C4_4  and  N1_5 
REMARK    4  A    between atoms: N1_5  and  C5_6 
REMARK       I    between atoms: N1_5  and  C12_15 
REMARK    5  A    between atoms: C5_6  and  C6_7 
REMARK    6  A    between atoms: C11_13  and  O1_14 
REMARK       I    between atoms: C12_15  and  N2_17 
REMARK    7  A    between atoms: N2_17  and  C13_18 
ROOT
HETATM    1  N1  UNL     1      26.929   0.635  52.958  1.00  0.00    -0.330 N 
HETATM    2  C12 UNL     1      26.876   1.823  52.125  1.00  0.00     0.323 C 
HETATM    3  O2  UNL     1      27.595   2.857  52.248  1.00  0.00    -0.247 OA
HETATM    4  N2  UNL     1      26.019   2.063  51.018  1.00  0.00    -0.309 N 
HETATM    5  H16 UNL     1      25.332   1.323  50.762  1.00  0.00     0.170 HD
ENDROOT
BRANCH   1   6
HETATM    6  C4  UNL     1      27.923   0.773  53.973  1.00  0.00     0.128 C 
BRANCH   6   7
HETATM    7  C3  UNL     1      28.755  -0.334  54.434  1.00  0.00     0.020 C 
BRANCH   7   8
HETATM    8  C2  UNL     1      29.624  -1.072  53.471  1.00  0.00    -0.003 C 
HETATM    9  C1  UNL     1      29.085  -2.419  53.154  1.00  0.00     0.005 C 
ENDBRANCH   7   8
ENDBRANCH   6   7
ENDBRANCH   1   6
BRANCH   1  10
HETATM   10  C5  UNL     1      25.961  -0.382  52.622  1.00  0.00     0.169 C 
BRANCH  10  11
HETATM   11  C6  UNL     1      24.797  -0.529  53.499  1.00  0.00    -0.006 A 
HETATM   12  C7  UNL     1      24.673  -1.163  54.715  1.00  0.00     0.012 A 
HETATM   13  C8  UNL     1      23.535  -1.235  55.468  1.00  0.00     0.002 A 
HETATM   14  C9  UNL     1      22.376  -0.638  55.019  1.00  0.00     0.022 A 
HETATM   15  C10 UNL     1      22.426   0.016  53.805  1.00  0.00     0.044 A 
HETATM   16 BR1  UNL     1      20.792   0.818  53.245  1.00  0.00    -0.048 Br
HETATM   17  C11 UNL     1      23.598   0.064  53.077  1.00  0.00     0.090 A 
BRANCH  17  18
HETATM   18  O1  UNL     1      23.458   0.751  51.898  1.00  0.00    -0.359 OA
HETATM   19  H15 UNL     1      23.739   0.398  50.994  1.00  0.00     0.217 HD
ENDBRANCH  17  18
ENDBRANCH  10  11
ENDBRANCH   1  10
BRANCH   4  20
HETATM   20  C13 UNL     1      26.091   3.283  50.295  1.00  0.00     0.032 A 
HETATM   21  C14 UNL     1      26.969   3.649  49.373  1.00  0.00     0.006 A 
HETATM   22  C15 UNL     1      26.633   5.014  48.907  1.00  0.00     0.056 A 
HETATM   23  C16 UNL     1      25.448   5.338  49.707  1.00  0.00    -0.021 A 
HETATM   24  C17 UNL     1      25.103   4.352  50.529  1.00  0.00     0.025 A 
ENDBRANCH   4  20
TORSDOF 7
ENDMDL
MODEL 3
REMARK VINA RESULT:      -7.1      2.439      5.237
REMARK  7 active torsions:
REMARK  status: ('A' for Active; 'I' for Inactive)
REMARK    1  A    between atoms: C2_2  and  C3_3 
REMARK    2  A    between atoms: C3_3  and  C4_4 
REMARK    3  A    between atoms: C4_4  and  N1_5 
REMARK    4  A    between atoms: N1_5  and  C5_6 
REMARK       I    between atoms: N1_5  and  C12_15 
REMARK    5  A    between atoms: C5_6  and  C6_7 
REMARK    6  A    between atoms: C11_13  and  O1_14 
REMARK       I    between atoms: C12_15  and  N2_17 
REMARK    7  A    between atoms: N2_17  and  C13_18 
ROOT
HETATM    1  N1  UNL     1      24.119   0.282  53.354  1.00  0.00    -0.330 N 
HETATM    2  C12 UNL     1      25.482  -0.213  53.429  1.00  0.00     0.323 C 
HETATM    3  O2  UNL     1      25.834  -1.409  53.650  1.00  0.00    -0.247 OA
HETATM    4  N2  UNL     1      26.681   0.532  53.271  1.00  0.00    -0.309 N 
HETATM    5  H16 UNL     1      26.600   1.556  53.094  1.00  0.00     0.170 HD
ENDROOT
BRANCH   1   6
HETATM    6  C4  UNL     1      23.185  -0.776  53.568  1.00  0.00     0.128 C 
BRANCH   6   7
HETATM    7  C3  UNL     1      22.275  -0.821  54.706  1.00  0.00     0.020 C 
BRANCH   7   8
HETATM    8  C2  UNL     1      21.034   0.008  54.710  1.00  0.00    -0.003 C 
HETATM    9  C1  UNL     1      20.532   0.266  53.337  1.00  0.00     0.005 C 
ENDBRANCH   7   8
ENDBRANCH   6   7
ENDBRANCH   1   6
BRANCH   1  10
HETATM   10  C5  UNL     1      24.004   1.703  53.134  1.00  0.00     0.169 C 
BRANCH  10  11
HETATM   11  C6  UNL     1      23.898   2.172  51.750  1.00  0.00    -0.006 A 
HETATM   12  C7  UNL     1      22.876   2.032  50.839  1.00  0.00     0.012 A 
HETATM   13  C8  UNL     1      22.867   2.521  49.563  1.00  0.00     0.002 A 
HETATM   14  C9  UNL     1      23.954   3.226  49.091  1.00  0.00     0.022 A 
HETATM   15  C10 UNL     1      25.018   3.405  49.951  1.00  0.00     0.044 A 
HETATM   16 BR1  UNL     1      26.486   4.388  49.237  1.00  0.00    -0.048 Br
HETATM   17  C11 UNL     1      24.984   2.893  51.233  1.00  0.00     0.090 A 
BRANCH  17  18
HETATM   18  O1  UNL     1      26.128   3.165  51.940  1.00  0.00    -0.359 OA
HETATM   19  H15 UNL     1      27.055   2.878  51.659  1.00  0.00     0.217 HD
ENDBRANCH  17  18
ENDBRANCH  10  11
ENDBRANCH   1  10
BRANCH   4  20
HETATM   20  C13 UNL     1      27.948  -0.100  53.370  1.00  0.00     0.032 A 
HETATM   21  C14 UNL     1      28.270  -1.356  53.098  1.00  0.00     0.006 A 
HETATM   22  C15 UNL     1      29.716  -1.546  53.354  1.00  0.00     0.056 A 
HETATM   23  C16 UNL     1      30.134  -0.216  53.805  1.00  0.00    -0.021 A 
HETATM   24  C17 UNL     1      29.129   0.654  53.827  1.00  0.00     0.025 A 
ENDBRANCH   4  20
TORSDOF 7
ENDMDL
MODEL 4
REMARK VINA RESULT:      -7.0      1.316      1.749
REMARK  7 active torsions:
REMARK  status: ('A' for Active; 'I' for Inactive)
REMARK    1  A    between atoms: C2_2  and  C3_3 
REMARK    2  A    between atoms: C3_3  and  C4_4 
REMARK    3  A    between atoms: C4_4  and  N1_5 
REMARK    4  A    between atoms: N1_5  and  C5_6 
REMARK       I    between atoms: N1_5  and  C12_15 
REMARK    5  A    between atoms: C5_6  and  C6_7 
REMARK    6  A    between atoms: C11_13  and  O1_14 
REMARK       I    between atoms: C12_15  and  N2_17 
REMARK    7  A    between atoms: N2_17  and  C13_18 
ROOT
HETATM    1  N1  UNL     1      22.912   3.176  51.110  1.00  0.00    -0.330 N 
HETATM    2  C12 UNL     1      23.915   3.845  50.301  1.00  0.00     0.323 C 
HETATM    3  O2  UNL     1      23.866   4.033  49.051  1.00  0.00    -0.247 OA
HETATM    4  N2  UNL     1      25.138   4.416  50.742  1.00  0.00    -0.309 N 
HETATM    5  H16 UNL     1      25.371   4.350  51.756  1.00  0.00     0.170 HD
ENDROOT
BRANCH   1   6
HETATM    6  C4  UNL     1      21.821   2.736  50.301  1.00  0.00     0.128 C 
BRANCH   6   7
HETATM    7  C3  UNL     1      21.737   1.396  49.731  1.00  0.00     0.020 C 
BRANCH   7   8
HETATM    8  C2  UNL     1      21.082   0.294  50.495  1.00  0.00    -0.003 C 
HETATM    9  C1  UNL     1      19.911   0.773  51.272  1.00  0.00     0.005 C 
ENDBRANCH   7   8
ENDBRANCH   6   7
ENDBRANCH   1   6
BRANCH   1  10
HETATM   10  C5  UNL     1      23.243   3.059  52.509  1.00  0.00     0.169 C 
BRANCH  10  11
HETATM   11  C6  UNL     1      23.793   1.783  52.975  1.00  0.00    -0.006 A 
HETATM   12  C7  UNL     1      23.172   0.574  53.194  1.00  0.00     0.012 A 
HETATM   13  C8  UNL     1      23.780  -0.572  53.622  1.00  0.00     0.002 A 
HETATM   14  C9  UNL     1      25.137  -0.578  53.871  1.00  0.00     0.022 A 
HETATM   15  C10 UNL     1      25.825   0.601  53.673  1.00  0.00     0.044 A 
HETATM   16 BR1  UNL     1      27.693   0.525  54.035  1.00  0.00    -0.048 Br
HETATM   17  C11 UNL     1      25.169   1.737  53.240  1.00  0.00     0.090 A 
BRANCH  17  18
HETATM   18  O1  UNL     1      26.011   2.812  53.102  1.00  0.00    -0.359 OA
HETATM   19  H15 UNL     1      26.338   3.383  53.869  1.00  0.00     0.217 HD
ENDBRANCH  17  18
ENDBRANCH  10  11
ENDBRANCH   1  10
BRANCH   4  20
HETATM   20  C13 UNL     1      26.019   5.045  49.823  1.00  0.00     0.032 A 
HETATM   21  C14 UNL     1      26.009   6.297  49.390  1.00  0.00     0.006 A 
HETATM   22  C15 UNL     1      27.128   6.483  48.439  1.00  0.00     0.056 A 
HETATM   23  C16 UNL     1      27.748   5.155  48.416  1.00  0.00    -0.021 A 
HETATM   24  C17 UNL     1      27.128   4.289  49.212  1.00  0.00     0.025 A 
ENDBRANCH   4  20
TORSDOF 7
ENDMDL
MODEL 5
REMARK VINA RESULT:      -7.0      3.676      5.820
REMARK  7 active torsions:
REMARK  status: ('A' for Active; 'I' for Inactive)
REMARK    1  A    between atoms: C2_2  and  C3_3 
REMARK    2  A    between atoms: C3_3  and  C4_4 
REMARK    3  A    between atoms: C4_4  and  N1_5 
REMARK    4  A    between atoms: N1_5  and  C5_6 
REMARK       I    between atoms: N1_5  and  C12_15 
REMARK    5  A    between atoms: C5_6  and  C6_7 
REMARK    6  A    between atoms: C11_13  and  O1_14 
REMARK       I    between atoms: C12_15  and  N2_17 
REMARK    7  A    between atoms: N2_17  and  C13_18 
ROOT
HETATM    1  N1  UNL     1      23.822  -0.345  53.530  1.00  0.00    -0.330 N 
HETATM    2  C12 UNL     1      25.253  -0.524  53.695  1.00  0.00     0.323 C 
HETATM    3  O2  UNL     1      25.832  -1.059  54.685  1.00  0.00    -0.247 OA
HETATM    4  N2  UNL     1      26.280  -0.139  52.793  1.00  0.00    -0.309 N 
HETATM    5  H16 UNL     1      26.002   0.339  51.910  1.00  0.00     0.170 HD
ENDROOT
BRANCH   1   6
HETATM    6  C4  UNL     1      23.114  -0.863  54.657  1.00  0.00     0.128 C 
BRANCH   6   7
HETATM    7  C3  UNL     1      21.691  -0.637  54.880  1.00  0.00     0.020 C 
BRANCH   7   8
HETATM    8  C2  UNL     1      20.677  -1.468  54.166  1.00  0.00    -0.003 C 
HETATM    9  C1  UNL     1      19.697  -0.635  53.423  1.00  0.00     0.005 C 
ENDBRANCH   7   8
ENDBRANCH   6   7
ENDBRANCH   1   6
BRANCH   1  10
HETATM   10  C5  UNL     1      23.434   0.339  52.320  1.00  0.00     0.169 C 
BRANCH  10  11
HETATM   11  C6  UNL     1      23.230   1.788  52.393  1.00  0.00    -0.006 A 
HETATM   12  C7  UNL     1      24.016   2.770  52.953  1.00  0.00     0.012 A 
HETATM   13  C8  UNL     1      23.741   4.109  52.958  1.00  0.00     0.002 A 
HETATM   14  C9  UNL     1      22.588   4.575  52.364  1.00  0.00     0.022 A 
HETATM   15  C10 UNL     1      21.751   3.645  51.782  1.00  0.00     0.044 A 
HETATM   16 BR1  UNL     1      20.177   4.357  50.979  1.00  0.00    -0.048 Br
HETATM   17  C11 UNL     1      22.067   2.301  51.800  1.00  0.00     0.090 A 
BRANCH  17  18
HETATM   18  O1  UNL     1      21.120   1.528  51.179  1.00  0.00    -0.359 OA
HETATM   19  H15 UNL     1      20.641   1.786  50.327  1.00  0.00     0.217 HD
ENDBRANCH  17  18
ENDBRANCH  10  11
ENDBRANCH   1  10
BRANCH   4  20
HETATM   20  C13 UNL     1      27.645  -0.387  53.097  1.00  0.00     0.032 A 
HETATM   21  C14 UNL     1      28.307  -1.534  53.058  1.00  0.00     0.006 A 
HETATM   22  C15 UNL     1      29.711  -1.291  53.462  1.00  0.00     0.056 A 
HETATM   23  C16 UNL     1      29.717   0.151  53.727  1.00  0.00    -0.021 A 
HETATM   24  C17 UNL     1      28.529   0.712  53.525  1.00  0.00     0.025 A 
ENDBRANCH   4  20
TORSDOF 7
ENDMDL
MODEL 6
REMARK VINA RESULT:      -7.0      2.479      6.009
REMARK  7 active torsions:
REMARK  status: ('A' for Active; 'I' for Inactive)
REMARK    1  A    between atoms: C2_2  and  C3_3 
REMARK    2  A    between atoms: C3_3  and  C4_4 
REMARK    3  A    between atoms: C4_4  and  N1_5 
REMARK    4  A    between atoms: N1_5  and  C5_6 
REMARK       I    between atoms: N1_5  and  C12_15 
REMARK    5  A    between atoms: C5_6  and  C6_7 
REMARK    6  A    between atoms: C11_13  and  O1_14 
REMARK       I    between atoms: C12_15  and  N2_17 
REMARK    7  A    between atoms: N2_17  and  C13_18 
ROOT
HETATM    1  N1  UNL     1      25.140   2.656  51.721  1.00  0.00    -0.330 N 
HETATM    2  C12 UNL     1      26.268   1.779  51.976  1.00  0.00     0.323 C 
HETATM    3  O2  UNL     1      27.165   1.450  51.145  1.00  0.00    -0.247 OA
HETATM    4  N2  UNL     1      26.591   1.119  53.191  1.00  0.00    -0.309 N 
HETATM    5  H16 UNL     1      25.954   1.254  54.005  1.00  0.00     0.170 HD
ENDROOT
BRANCH   1   6
HETATM    6  C4  UNL     1      25.158   3.124  50.372  1.00  0.00     0.128 C 
BRANCH   6   7
HETATM    7  C3  UNL     1      25.766   4.388  49.973  1.00  0.00     0.020 C 
BRANCH   7   8
HETATM    8  C2  UNL     1      26.961   4.398  49.079  1.00  0.00    -0.003 C 
HETATM    9  C1  UNL     1      27.259   5.758  48.562  1.00  0.00     0.005 C 
ENDBRANCH   7   8
ENDBRANCH   6   7
ENDBRANCH   1   6
BRANCH   1  10
HETATM   10  C5  UNL     1      24.241   2.824  52.837  1.00  0.00     0.169 C 
BRANCH  10  11
HETATM   11  C6  UNL     1      22.936   2.165  52.767  1.00  0.00    -0.006 A 
HETATM   12  C7  UNL     1      21.748   2.599  52.222  1.00  0.00     0.012 A 
HETATM   13  C8  UNL     1      20.576   1.897  52.195  1.00  0.00     0.002 A 
HETATM   14  C9  UNL     1      20.518   0.635  52.748  1.00  0.00     0.022 A 
HETATM   15  C10 UNL     1      21.673   0.135  53.313  1.00  0.00     0.044 A 
HETATM   16 BR1  UNL     1      21.525  -1.612  54.058  1.00  0.00    -0.048 Br
HETATM   17  C11 UNL     1      22.836   0.879  53.319  1.00  0.00     0.090 A 
BRANCH  17  18
HETATM   18  O1  UNL     1      23.878   0.225  53.925  1.00  0.00    -0.359 OA
HETATM   19  H15 UNL     1      24.692  -0.127  53.439  1.00  0.00     0.217 HD
ENDBRANCH  17  18
ENDBRANCH  10  11
ENDBRANCH   1  10
BRANCH   4  20
HETATM   20  C13 UNL     1      27.740   0.289  53.285  1.00  0.00     0.032 A 
HETATM   21  C14 UNL     1      27.831  -1.021  53.113  1.00  0.00     0.006 A 
HETATM   22  C15 UNL     1      29.239  -1.434  53.316  1.00  0.00     0.056 A 
HETATM   23  C16 UNL     1      29.899  -0.162  53.624  1.00  0.00    -0.021 A 
HETATM   24  C17 UNL     1      29.055   0.866  53.616  1.00  0.00     0.025 A 
ENDBRANCH   4  20
TORSDOF 7
ENDMDL
MODEL 7
REMARK VINA RESULT:      -6.9      2.386      5.647
REMARK  7 active torsions:
REMARK  status: ('A' for Active; 'I' for Inactive)
REMARK    1  A    between atoms: C2_2  and  C3_3 
REMARK    2  A    between atoms: C3_3  and  C4_4 
REMARK    3  A    between atoms: C4_4  and  N1_5 
REMARK    4  A    between atoms: N1_5  and  C5_6 
REMARK       I    between atoms: N1_5  and  C12_15 
REMARK    5  A    between atoms: C5_6  and  C6_7 
REMARK    6  A    between atoms: C11_13  and  O1_14 
REMARK       I    between atoms: C12_15  and  N2_17 
REMARK    7  A    between atoms: N2_17  and  C13_18 
ROOT
HETATM    1  N1  UNL     1      24.542   3.057  51.300  1.00  0.00    -0.330 N 
HETATM    2  C12 UNL     1      25.578   2.584  52.200  1.00  0.00     0.323 C 
HETATM    3  O2  UNL     1      25.489   2.482  53.458  1.00  0.00    -0.247 OA
HETATM    4  N2  UNL     1      26.885   2.147  51.857  1.00  0.00    -0.309 N 
HETATM    5  H16 UNL     1      27.161   2.170  50.852  1.00  0.00     0.170 HD
ENDROOT
BRANCH   1   6
HETATM    6  C4  UNL     1      23.364   3.407  52.026  1.00  0.00     0.128 C 
BRANCH   6   7
HETATM    7  C3  UNL     1      22.152   2.595  52.026  1.00  0.00     0.020 C 
BRANCH   7   8
HETATM    8  C2  UNL     1      22.232   1.128  51.766  1.00  0.00    -0.003 C 
HETATM    9  C1  UNL     1      22.625   0.367  52.979  1.00  0.00     0.005 C 
ENDBRANCH   7   8
ENDBRANCH   6   7
ENDBRANCH   1   6
BRANCH   1  10
HETATM   10  C5  UNL     1      24.928   3.115  49.911  1.00  0.00     0.169 C 
BRANCH  10  11
HETATM   11  C6  UNL     1      25.087   4.438  49.303  1.00  0.00    -0.006 A 
HETATM   12  C7  UNL     1      24.139   5.339  48.874  1.00  0.00     0.012 A 
HETATM   13  C8  UNL     1      24.390   6.566  48.326  1.00  0.00     0.002 A 
HETATM   14  C9  UNL     1      25.691   6.991  48.164  1.00  0.00     0.022 A 
HETATM   15  C10 UNL     1      26.696   6.138  48.572  1.00  0.00     0.044 A 
HETATM   16 BR1  UNL     1      28.468   6.787  48.320  1.00  0.00    -0.048 Br
HETATM   17  C11 UNL     1      26.396   4.906  49.121  1.00  0.00     0.090 A 
BRANCH  17  18
HETATM   18  O1  UNL     1      27.517   4.195  49.463  1.00  0.00    -0.359 OA
HETATM   19  H15 UNL     1      27.683   3.795  50.376  1.00  0.00     0.217 HD
ENDBRANCH  17  18
ENDBRANCH  10  11
ENDBRANCH   1  10
BRANCH   4  20
HETATM   20  C13 UNL     1      27.791   1.706  52.858  1.00  0.00     0.032 A 
HETATM   21  C14 UNL     1      28.632   2.425  53.588  1.00  0.00     0.006 A 
HETATM   22  C15 UNL     1      29.369   1.520  54.499  1.00  0.00     0.056 A 
HETATM   23  C16 UNL     1      28.810   0.208  54.160  1.00  0.00    -0.021 A 
HETATM   24  C17 UNL     1      27.887   0.277  53.206  1.00  0.00     0.025 A 
ENDBRANCH   4  20
TORSDOF 7
ENDMDL
MODEL 8
REMARK VINA RESULT:      -6.8      2.636      6.241
REMARK  7 active torsions:
REMARK  status: ('A' for Active; 'I' for Inactive)
REMARK    1  A    between atoms: C2_2  and  C3_3 
REMARK    2  A    between atoms: C3_3  and  C4_4 
REMARK    3  A    between atoms: C4_4  and  N1_5 
REMARK    4  A    between atoms: N1_5  and  C5_6 
REMARK       I    between atoms: N1_5  and  C12_15 
REMARK    5  A    between atoms: C5_6  and  C6_7 
REMARK    6  A    between atoms: C11_13  and  O1_14 
REMARK       I    between atoms: C12_15  and  N2_17 
REMARK    7  A    between atoms: N2_17  and  C13_18 
ROOT
HETATM    1  N1  UNL     1      24.991   0.491  53.238  1.00  0.00    -0.330 N 
HETATM    2  C12 UNL     1      23.598   0.100  53.115  1.00  0.00     0.323 C 
HETATM    3  O2  UNL     1      23.155  -1.084  53.058  1.00  0.00    -0.247 OA
HETATM    4  N2  UNL     1      22.466   0.954  53.036  1.00  0.00    -0.309 N 
HETATM    5  H16 UNL     1      22.628   1.983  53.052  1.00  0.00     0.170 HD
ENDROOT
BRANCH   1   6
HETATM    6  C4  UNL     1      25.836  -0.658  53.288  1.00  0.00     0.128 C 
BRANCH   6   7
HETATM    7  C3  UNL     1      27.116  -0.740  52.593  1.00  0.00     0.020 C 
BRANCH   7   8
HETATM    8  C2  UNL     1      28.389  -0.811  53.369  1.00  0.00    -0.003 C 
HETATM    9  C1  UNL     1      28.358   0.059  54.572  1.00  0.00     0.005 C 
ENDBRANCH   7   8
ENDBRANCH   6   7
ENDBRANCH   1   6
BRANCH   1  10
HETATM   10  C5  UNL     1      25.221   1.916  53.236  1.00  0.00     0.169 C 
BRANCH  10  11
HETATM   11  C6  UNL     1      25.419   2.571  51.941  1.00  0.00    -0.006 A 
HETATM   12  C7  UNL     1      26.451   2.463  51.037  1.00  0.00     0.012 A 
HETATM   13  C8  UNL     1      26.538   3.114  49.838  1.00  0.00     0.002 A 
HETATM   14  C9  UNL     1      25.530   3.969  49.448  1.00  0.00     0.022 A 
HETATM   15  C10 UNL     1      24.461   4.128  50.306  1.00  0.00     0.044 A 
HETATM   16 BR1  UNL     1      23.105   5.322  49.705  1.00  0.00    -0.048 Br
HETATM   17  C11 UNL     1      24.415   3.450  51.508  1.00  0.00     0.090 A 
BRANCH  17  18
HETATM   18  O1  UNL     1      23.283   3.733  52.230  1.00  0.00    -0.359 OA
HETATM   19  H15 UNL     1      23.247   4.380  53.005  1.00  0.00     0.217 HD
ENDBRANCH  17  18
ENDBRANCH  10  11
ENDBRANCH   1  10
BRANCH   4  20
HETATM   20  C13 UNL     1      21.157   0.416  52.921  1.00  0.00     0.032 A 
HETATM   21  C14 UNL     1      20.401  -0.131  53.862  1.00  0.00     0.006 A 
HETATM   22  C15 UNL     1      19.113  -0.545  53.261  1.00  0.00     0.056 A 
HETATM   23  C16 UNL     1      19.276  -0.147  51.860  1.00  0.00    -0.021 A 
HETATM   24  C17 UNL     1      20.457   0.418  51.624  1.00  0.00     0.025 A 
ENDBRANCH   4  20
TORSDOF 7
ENDMDL
MODEL 9
REMARK VINA RESULT:      -6.7      2.847      5.918
REMARK  7 active torsions:
REMARK  status: ('A' for Active; 'I' for Inactive)
REMARK    1  A    between atoms: C2_2  and  C3_3 
REMARK    2  A    between atoms: C3_3  and  C4_4 
REMARK    3  A    between atoms: C4_4  and  N1_5 
REMARK    4  A    between atoms: N1_5  and  C5_6 
REMARK       I    between atoms: N1_5  and  C12_15 
REMARK    5  A    between atoms: C5_6  and  C6_7 
REMARK    6  A    between atoms: C11_13  and  O1_14 
REMARK       I    between atoms: C12_15  and  N2_17 
REMARK    7  A    between atoms: N2_17  and  C13_18 
ROOT
HETATM    1  N1  UNL     1      24.581   1.724  52.026  1.00  0.00    -0.330 N 
HETATM    2  C12 UNL     1      25.866   1.075  52.219  1.00  0.00     0.323 C 
HETATM    3  O2  UNL     1      26.741   0.867  51.328  1.00  0.00    -0.247 OA
HETATM    4  N2  UNL     1      26.395   0.550  53.427  1.00  0.00    -0.309 N 
HETATM    5  H16 UNL     1      25.808   0.614  54.286  1.00  0.00     0.170 HD
ENDROOT
BRANCH   1   6
HETATM    6  C4  UNL     1      24.411   2.114  50.664  1.00  0.00     0.128 C 
BRANCH   6   7
HETATM    7  C3  UNL     1      24.107   3.481  50.255  1.00  0.00     0.020 C 
BRANCH   7   8
HETATM    8  C2  UNL     1      25.211   4.429  49.924  1.00  0.00    -0.003 C 
HETATM    9  C1  UNL     1      26.431   3.723  49.458  1.00  0.00     0.005 C 
ENDBRANCH   7   8
ENDBRANCH   6   7
ENDBRANCH   1   6
BRANCH   1  10
HETATM   10  C5  UNL     1      23.755   1.790  53.208  1.00  0.00     0.169 C 
BRANCH  10  11
HETATM   11  C6  UNL     1      22.835   0.679  53.459  1.00  0.00    -0.006 A 
HETATM   12  C7  UNL     1      23.013  -0.477  54.184  1.00  0.00     0.012 A 
HETATM   13  C8  UNL     1      22.079  -1.457  54.371  1.00  0.00     0.002 A 
HETATM   14  C9  UNL     1      20.828  -1.330  53.806  1.00  0.00     0.022 A 
HETATM   15  C10 UNL     1      20.578  -0.194  53.064  1.00  0.00     0.044 A 
HETATM   16 BR1  UNL     1      18.831  -0.080  52.312  1.00  0.00    -0.048 Br
HETATM   17  C11 UNL     1      21.552   0.772  52.900  1.00  0.00     0.090 A 
BRANCH  17  18
HETATM   18  O1  UNL     1      21.127   1.825  52.131  1.00  0.00    -0.359 OA
HETATM   19  H15 UNL     1      21.686   2.640  51.919  1.00  0.00     0.217 HD
ENDBRANCH  17  18
ENDBRANCH  10  11
ENDBRANCH   1  10
BRANCH   4  20
HETATM   20  C13 UNL     1      27.679  -0.056  53.456  1.00  0.00     0.032 A 
HETATM   21  C14 UNL     1      28.842   0.484  53.789  1.00  0.00     0.006 A 
HETATM   22  C15 UNL     1      29.900  -0.544  53.664  1.00  0.00     0.056 A 
HETATM   23  C16 UNL     1      29.148  -1.718  53.214  1.00  0.00    -0.021 A 
HETATM   24  C17 UNL     1      27.848  -1.471  53.082  1.00  0.00     0.025 A 
ENDBRANCH   4  20
TORSDOF 7
ENDMDL
