MODEL 1
REMARK VINA RESULT:      -7.9      0.000      0.000
REMARK  2 active torsions:
REMARK  status: ('A' for Active; 'I' for Inactive)
REMARK    1  A    between atoms: C2_2  and  O1_4 
REMARK    2  A    between atoms: O1_4  and  C4_5 
ROOT
HETATM    1  C4  UNL     1      21.113   3.524  52.210  1.00  0.00     0.073 C 
HETATM    2  C5  UNL     1      21.919   4.605  51.987  1.00  0.00     0.087 C 
HETATM    3  C6  UNL     1      23.329   4.370  51.544  1.00  0.00     0.131 C 
HETATM    4  N1  UNL     1      24.109   4.397  50.528  1.00  0.00    -0.230 NA
HETATM    5  C7  UNL     1      23.784   4.740  49.198  1.00  0.00     0.335 C 
HETATM    6  N2  UNL     1      22.845   4.219  48.413  1.00  0.00    -0.277 NA
HETATM    7  C8  UNL     1      22.033   3.160  48.969  1.00  0.00     0.051 C 
HETATM    8  C9  UNL     1      22.200   2.129  49.771  1.00  0.00    -0.011 C 
HETATM    9  C10 UNL     1      21.947   0.901  50.605  1.00  0.00     0.067 C 
HETATM   10  C11 UNL     1      22.258   1.418  52.012  1.00  0.00    -0.038 C 
HETATM   11  C12 UNL     1      21.164   2.057  52.531  1.00  0.00     0.045 C 
HETATM   12  C13 UNL     1      23.565   1.315  52.721  1.00  0.00     0.022 A 
HETATM   13  C14 UNL     1      24.416   2.451  52.813  1.00  0.00     0.046 A 
HETATM   14  C15 UNL     1      25.606   2.262  53.482  1.00  0.00     0.033 A 
HETATM   15  C16 UNL     1      25.948   1.049  54.028  1.00  0.00     0.046 A 
HETATM   16  C17 UNL     1      25.079  -0.012  53.904  1.00  0.00     0.139 A 
HETATM   17  F1  UNL     1      25.292  -1.275  54.399  1.00  0.00    -0.204 F 
HETATM   18  C18 UNL     1      23.884   0.108  53.252  1.00  0.00     0.085 A 
HETATM   19 CL1  UNL     1      22.643  -1.072  52.974  1.00  0.00    -0.080 Cl
HETATM   20  N3  UNL     1      24.421   3.857  52.389  1.00  0.00    -0.340 N 
HETATM   21  H17 UNL     1      25.259   4.307  52.785  1.00  0.00     0.167 HD
ENDROOT
BRANCH   1  22
HETATM   22  O1  UNL     1      19.786   3.924  52.103  1.00  0.00    -0.347 OA
BRANCH  22  23
HETATM   23  C2  UNL     1      18.936   3.624  51.031  1.00  0.00     0.120 C 
HETATM   24  C1  UNL     1      17.547   3.433  51.654  1.00  0.00     0.040 C 
HETATM   25  C3  UNL     1      18.785   4.792  50.063  1.00  0.00     0.040 C 
ENDBRANCH  22  23
ENDBRANCH   1  22
TORSDOF 2
ENDMDL
MODEL 2
REMARK VINA RESULT:      -7.9      2.413      4.407
REMARK  2 active torsions:
REMARK  status: ('A' for Active; 'I' for Inactive)
REMARK    1  A    between atoms: C2_2  and  O1_4 
REMARK    2  A    between atoms: O1_4  and  C4_5 
ROOT
HETATM    1  C4  UNL     1      24.439   2.746  50.134  1.00  0.00     0.073 C 
HETATM    2  C5  UNL     1      23.173   2.789  49.619  1.00  0.00     0.087 C 
HETATM    3  C6  UNL     1      22.013   2.594  50.545  1.00  0.00     0.131 C 
HETATM    4  N1  UNL     1      21.079   3.207  51.171  1.00  0.00    -0.230 NA
HETATM    5  C7  UNL     1      20.805   4.592  51.174  1.00  0.00     0.335 C 
HETATM    6  N2  UNL     1      21.619   5.598  51.483  1.00  0.00    -0.277 NA
HETATM    7  C8  UNL     1      22.971   5.259  51.870  1.00  0.00     0.051 C 
HETATM    8  C9  UNL     1      23.574   4.312  52.559  1.00  0.00    -0.011 C 
HETATM    9  C10 UNL     1      24.629   3.473  53.231  1.00  0.00     0.067 C 
HETATM   10  C11 UNL     1      24.504   2.154  52.465  1.00  0.00    -0.038 C 
HETATM   11  C12 UNL     1      25.222   2.215  51.302  1.00  0.00     0.045 C 
HETATM   12  C13 UNL     1      23.680   0.976  52.864  1.00  0.00     0.022 A 
HETATM   13  C14 UNL     1      22.438   0.725  52.219  1.00  0.00     0.046 A 
HETATM   14  C15 UNL     1      21.744  -0.382  52.655  1.00  0.00     0.033 A 
HETATM   15  C16 UNL     1      22.224  -1.194  53.653  1.00  0.00     0.046 A 
HETATM   16  C17 UNL     1      23.435  -0.895  54.238  1.00  0.00     0.139 A 
HETATM   17  F1  UNL     1      24.031  -1.617  55.242  1.00  0.00    -0.204 F 
HETATM   18  C18 UNL     1      24.173   0.188  53.852  1.00  0.00     0.085 A 
HETATM   19 CL1  UNL     1      25.705   0.756  54.435  1.00  0.00    -0.080 Cl
HETATM   20  N3  UNL     1      21.610   1.318  51.160  1.00  0.00    -0.340 N 
HETATM   21  H17 UNL     1      20.808   0.694  50.995  1.00  0.00     0.167 HD
ENDROOT
BRANCH   1  22
HETATM   22  O1  UNL     1      25.295   3.430  49.281  1.00  0.00    -0.347 OA
BRANCH  22  23
HETATM   23  C2  UNL     1      25.924   4.647  49.571  1.00  0.00     0.120 C 
HETATM   24  C1  UNL     1      27.298   4.568  48.894  1.00  0.00     0.040 C 
HETATM   25  C3  UNL     1      25.223   5.835  48.923  1.00  0.00     0.040 C 
ENDBRANCH  22  23
ENDBRANCH   1  22
TORSDOF 2
ENDMDL
MODEL 3
REMARK VINA RESULT:      -7.8      2.550      3.907
REMARK  2 active torsions:
REMARK  status: ('A' for Active; 'I' for Inactive)
REMARK    1  A    between atoms: C2_2  and  O1_4 
REMARK    2  A    between atoms: O1_4  and  C4_5 
ROOT
HETATM    1  C4  UNL     1      23.196   2.093  50.053  1.00  0.00     0.073 C 
HETATM    2  C5  UNL     1      22.034   1.378  50.139  1.00  0.00     0.087 C 
HETATM    3  C6  UNL     1      21.521   1.000  51.493  1.00  0.00     0.131 C 
HETATM    4  N1  UNL     1      20.646   1.289  52.382  1.00  0.00    -0.230 NA
HETATM    5  C7  UNL     1      19.668   2.306  52.333  1.00  0.00     0.335 C 
HETATM    6  N2  UNL     1      19.836   3.610  52.129  1.00  0.00    -0.277 NA
HETATM    7  C8  UNL     1      21.189   4.078  51.928  1.00  0.00     0.051 C 
HETATM    8  C9  UNL     1      22.389   3.806  52.398  1.00  0.00    -0.011 C 
HETATM    9  C10 UNL     1      23.875   3.822  52.642  1.00  0.00     0.067 C 
HETATM   10  C11 UNL     1      24.277   2.421  52.177  1.00  0.00    -0.038 C 
HETATM   11  C12 UNL     1      24.450   2.407  50.819  1.00  0.00     0.045 C 
HETATM   12  C13 UNL     1      24.411   1.210  53.037  1.00  0.00     0.022 A 
HETATM   13  C14 UNL     1      23.391   0.219  53.033  1.00  0.00     0.046 A 
HETATM   14  C15 UNL     1      23.596  -0.863  53.861  1.00  0.00     0.033 A 
HETATM   15  C16 UNL     1      24.720  -0.976  54.643  1.00  0.00     0.046 A 
HETATM   16  C17 UNL     1      25.671   0.019  54.601  1.00  0.00     0.139 A 
HETATM   17  F1  UNL     1      26.836   0.036  55.326  1.00  0.00    -0.204 F 
HETATM   18  C18 UNL     1      25.527   1.118  53.801  1.00  0.00     0.085 A 
HETATM   19 CL1  UNL     1      26.578   2.482  53.584  1.00  0.00    -0.080 Cl
HETATM   20  N3  UNL     1      22.101  -0.028  52.375  1.00  0.00    -0.340 N 
HETATM   21  H17 UNL     1      21.773  -0.963  52.655  1.00  0.00     0.167 HD
ENDROOT
BRANCH   1  22
HETATM   22  O1  UNL     1      23.224   2.760  48.835  1.00  0.00    -0.347 OA
BRANCH  22  23
HETATM   23  C2  UNL     1      22.250   3.659  48.382  1.00  0.00     0.120 C 
HETATM   24  C1  UNL     1      22.902   5.045  48.472  1.00  0.00     0.040 C 
HETATM   25  C3  UNL     1      21.918   3.465  46.907  1.00  0.00     0.040 C 
ENDBRANCH  22  23
ENDBRANCH   1  22
TORSDOF 2
ENDMDL
MODEL 4
REMARK VINA RESULT:      -7.5      3.558      5.514
REMARK  2 active torsions:
REMARK  status: ('A' for Active; 'I' for Inactive)
REMARK    1  A    between atoms: C2_2  and  O1_4 
REMARK    2  A    between atoms: O1_4  and  C4_5 
ROOT
HETATM    1  C4  UNL     1      23.654   3.424  52.350  1.00  0.00     0.073 C 
HETATM    2  C5  UNL     1      22.559   4.163  52.700  1.00  0.00     0.087 C 
HETATM    3  C6  UNL     1      22.074   5.221  51.759  1.00  0.00     0.131 C 
HETATM    4  N1  UNL     1      21.172   5.494  50.892  1.00  0.00    -0.230 NA
HETATM    5  C7  UNL     1      20.109   4.671  50.461  1.00  0.00     0.335 C 
HETATM    6  N2  UNL     1      20.164   3.441  49.958  1.00  0.00    -0.277 NA
HETATM    7  C8  UNL     1      21.472   2.840  49.824  1.00  0.00     0.051 C 
HETATM    8  C9  UNL     1      22.689   3.228  49.502  1.00  0.00    -0.011 C 
HETATM    9  C10 UNL     1      24.167   3.232  49.211  1.00  0.00     0.067 C 
HETATM   10  C11 UNL     1      24.692   4.161  50.308  1.00  0.00    -0.038 C 
HETATM   11  C12 UNL     1      24.873   3.461  51.471  1.00  0.00     0.045 C 
HETATM   12  C13 UNL     1      24.926   5.628  50.186  1.00  0.00     0.022 A 
HETATM   13  C14 UNL     1      23.996   6.546  50.748  1.00  0.00     0.046 A 
HETATM   14  C15 UNL     1      24.291   7.882  50.583  1.00  0.00     0.033 A 
HETATM   15  C16 UNL     1      25.416   8.301  49.915  1.00  0.00     0.046 A 
HETATM   16  C17 UNL     1      26.277   7.360  49.394  1.00  0.00     0.139 A 
HETATM   17  F1  UNL     1      27.433   7.636  48.706  1.00  0.00    -0.204 F 
HETATM   18  C18 UNL     1      26.042   6.020  49.523  1.00  0.00     0.085 A 
HETATM   19 CL1  UNL     1      26.971   4.668  48.958  1.00  0.00    -0.080 Cl
HETATM   20  N3  UNL     1      22.736   6.511  51.502  1.00  0.00    -0.340 N 
HETATM   21  H17 UNL     1      22.490   7.478  51.758  1.00  0.00     0.167 HD
ENDROOT
BRANCH   1  22
HETATM   22  O1  UNL     1      23.631   2.225  53.051  1.00  0.00    -0.347 OA
BRANCH  22  23
HETATM   23  C2  UNL     1      23.699   0.950  52.475  1.00  0.00     0.120 C 
HETATM   24  C1  UNL     1      24.536   0.108  53.447  1.00  0.00     0.040 C 
HETATM   25  C3  UNL     1      22.340   0.264  52.415  1.00  0.00     0.040 C 
ENDBRANCH  22  23
ENDBRANCH   1  22
TORSDOF 2
ENDMDL
MODEL 5
REMARK VINA RESULT:      -7.4      2.805      4.259
REMARK  2 active torsions:
REMARK  status: ('A' for Active; 'I' for Inactive)
REMARK    1  A    between atoms: C2_2  and  O1_4 
REMARK    2  A    between atoms: O1_4  and  C4_5 
ROOT
HETATM    1  C4  UNL     1      21.618   1.484  49.675  1.00  0.00     0.073 C 
HETATM    2  C5  UNL     1      20.269   1.271  49.631  1.00  0.00     0.087 C 
HETATM    3  C6  UNL     1      19.505   1.229  50.917  1.00  0.00     0.131 C 
HETATM    4  N1  UNL     1      18.718   1.901  51.671  1.00  0.00    -0.230 NA
HETATM    5  C7  UNL     1      18.219   3.204  51.456  1.00  0.00     0.335 C 
HETATM    6  N2  UNL     1      18.898   4.326  51.231  1.00  0.00    -0.277 NA
HETATM    7  C8  UNL     1      20.340   4.229  51.196  1.00  0.00     0.051 C 
HETATM    8  C9  UNL     1      21.283   3.564  51.830  1.00  0.00    -0.011 C 
HETATM    9  C10 UNL     1      22.624   3.037  52.269  1.00  0.00     0.067 C 
HETATM   10  C11 UNL     1      22.503   1.554  51.911  1.00  0.00    -0.038 C 
HETATM   11  C12 UNL     1      22.805   1.363  50.590  1.00  0.00     0.045 C 
HETATM   12  C13 UNL     1      22.064   0.459  52.823  1.00  0.00     0.022 A 
HETATM   13  C14 UNL     1      20.748  -0.069  52.719  1.00  0.00     0.046 A 
HETATM   14  C15 UNL     1      20.429  -1.075  53.604  1.00  0.00     0.033 A 
HETATM   15  C16 UNL     1      21.329  -1.539  54.532  1.00  0.00     0.046 A 
HETATM   16  C17 UNL     1      22.589  -0.984  54.582  1.00  0.00     0.139 A 
HETATM   17  F1  UNL     1      23.584  -1.349  55.455  1.00  0.00    -0.204 F 
HETATM   18  C18 UNL     1      22.968   0.016  53.732  1.00  0.00     0.085 A 
HETATM   19 CL1  UNL     1      24.480   0.858  53.609  1.00  0.00    -0.080 Cl
HETATM   20  N3  UNL     1      19.543   0.136  51.904  1.00  0.00    -0.340 N 
HETATM   21  H17 UNL     1      18.852  -0.579  52.171  1.00  0.00     0.167 HD
ENDROOT
BRANCH   1  22
HETATM   22  O1  UNL     1      22.034   1.986  48.449  1.00  0.00    -0.347 OA
BRANCH  22  23
HETATM   23  C2  UNL     1      21.761   3.272  47.966  1.00  0.00     0.120 C 
HETATM   24  C1  UNL     1      22.920   4.148  48.460  1.00  0.00     0.040 C 
HETATM   25  C3  UNL     1      21.818   3.349  46.445  1.00  0.00     0.040 C 
ENDBRANCH  22  23
ENDBRANCH   1  22
TORSDOF 2
ENDMDL
MODEL 6
REMARK VINA RESULT:      -7.4      2.147      2.956
REMARK  2 active torsions:
REMARK  status: ('A' for Active; 'I' for Inactive)
REMARK    1  A    between atoms: C2_2  and  O1_4 
REMARK    2  A    between atoms: O1_4  and  C4_5 
ROOT
HETATM    1  C4  UNL     1      22.419   4.227  52.163  1.00  0.00     0.073 C 
HETATM    2  C5  UNL     1      23.737   4.277  52.522  1.00  0.00     0.087 C 
HETATM    3  C6  UNL     1      24.557   3.029  52.423  1.00  0.00     0.131 C 
HETATM    4  N1  UNL     1      25.444   2.430  51.719  1.00  0.00    -0.230 NA
HETATM    5  C7  UNL     1      26.056   2.886  50.532  1.00  0.00     0.335 C 
HETATM    6  N2  UNL     1      25.480   3.281  49.399  1.00  0.00    -0.277 NA
HETATM    7  C8  UNL     1      24.035   3.252  49.349  1.00  0.00     0.051 C 
HETATM    8  C9  UNL     1      23.065   2.481  49.794  1.00  0.00    -0.011 C 
HETATM    9  C10 UNL     1      21.702   1.913  50.093  1.00  0.00     0.067 C 
HETATM   10  C11 UNL     1      21.659   2.010  51.620  1.00  0.00    -0.038 C 
HETATM   11  C12 UNL     1      21.274   3.267  52.001  1.00  0.00     0.045 C 
HETATM   12  C13 UNL     1      22.034   0.936  52.584  1.00  0.00     0.022 A 
HETATM   13  C14 UNL     1      23.285   0.989  53.257  1.00  0.00     0.046 A 
HETATM   14  C15 UNL     1      23.549  -0.048  54.126  1.00  0.00     0.033 A 
HETATM   15  C16 UNL     1      22.656  -1.071  54.328  1.00  0.00     0.046 A 
HETATM   16  C17 UNL     1      21.460  -1.064  53.643  1.00  0.00     0.139 A 
HETATM   17  F1  UNL     1      20.480  -2.020  53.747  1.00  0.00    -0.204 F 
HETATM   18  C18 UNL     1      21.138  -0.066  52.767  1.00  0.00     0.085 A 
HETATM   19 CL1  UNL     1      19.712   0.153  51.805  1.00  0.00    -0.080 Cl
HETATM   20  N3  UNL     1      24.462   1.866  53.322  1.00  0.00    -0.340 N 
HETATM   21  H17 UNL     1      25.092   1.501  54.050  1.00  0.00     0.167 HD
ENDROOT
BRANCH   1  22
HETATM   22  O1  UNL     1      21.993   5.508  51.837  1.00  0.00    -0.347 OA
BRANCH  22  23
HETATM   23  C2  UNL     1      22.167   6.126  50.592  1.00  0.00     0.120 C 
HETATM   24  C1  UNL     1      20.753   6.449  50.094  1.00  0.00     0.040 C 
HETATM   25  C3  UNL     1      22.873   7.473  50.703  1.00  0.00     0.040 C 
ENDBRANCH  22  23
ENDBRANCH   1  22
TORSDOF 2
ENDMDL
MODEL 7
REMARK VINA RESULT:      -7.1      4.216      6.091
REMARK  2 active torsions:
REMARK  status: ('A' for Active; 'I' for Inactive)
REMARK    1  A    between atoms: C2_2  and  O1_4 
REMARK    2  A    between atoms: O1_4  and  C4_5 
ROOT
HETATM    1  C4  UNL     1      23.138   4.368  48.861  1.00  0.00     0.073 C 
HETATM    2  C5  UNL     1      23.699   3.185  49.252  1.00  0.00     0.087 C 
HETATM    3  C6  UNL     1      24.999   3.215  49.993  1.00  0.00     0.131 C 
HETATM    4  N1  UNL     1      25.527   3.101  51.154  1.00  0.00    -0.230 NA
HETATM    5  C7  UNL     1      24.872   2.853  52.380  1.00  0.00     0.335 C 
HETATM    6  N2  UNL     1      23.878   3.536  52.943  1.00  0.00    -0.277 NA
HETATM    7  C8  UNL     1      23.381   4.688  52.226  1.00  0.00     0.051 C 
HETATM    8  C9  UNL     1      23.876   5.657  51.483  1.00  0.00    -0.011 C 
HETATM    9  C10 UNL     1      24.004   6.882  50.617  1.00  0.00     0.067 C 
HETATM   10  C11 UNL     1      24.528   6.281  49.311  1.00  0.00    -0.038 C 
HETATM   11  C12 UNL     1      23.486   5.800  48.564  1.00  0.00     0.045 C 
HETATM   12  C13 UNL     1      25.957   6.160  48.905  1.00  0.00     0.022 A 
HETATM   13  C14 UNL     1      26.620   4.906  48.998  1.00  0.00     0.046 A 
HETATM   14  C15 UNL     1      27.941   4.889  48.605  1.00  0.00     0.033 A 
HETATM   15  C16 UNL     1      28.577   6.018  48.151  1.00  0.00     0.046 A 
HETATM   16  C17 UNL     1      27.878   7.204  48.085  1.00  0.00     0.139 A 
HETATM   17  F1  UNL     1      28.388   8.403  47.653  1.00  0.00    -0.204 F 
HETATM   18  C18 UNL     1      26.567   7.287  48.460  1.00  0.00     0.085 A 
HETATM   19 CL1  UNL     1      25.495   8.651  48.464  1.00  0.00    -0.080 Cl
HETATM   20  N3  UNL     1      26.314   3.528  49.408  1.00  0.00    -0.340 N 
HETATM   21  H17 UNL     1      27.137   2.944  49.204  1.00  0.00     0.167 HD
ENDROOT
BRANCH   1  22
HETATM   22  O1  UNL     1      21.775   4.180  48.674  1.00  0.00    -0.347 OA
BRANCH  22  23
HETATM   23  C2  UNL     1      20.897   3.636  49.620  1.00  0.00     0.120 C 
HETATM   24  C1  UNL     1      20.189   4.838  50.259  1.00  0.00     0.040 C 
HETATM   25  C3  UNL     1      19.787   2.810  48.979  1.00  0.00     0.040 C 
ENDBRANCH  22  23
ENDBRANCH   1  22
TORSDOF 2
ENDMDL
MODEL 8
REMARK VINA RESULT:      -7.1      3.010      4.482
REMARK  2 active torsions:
REMARK  status: ('A' for Active; 'I' for Inactive)
REMARK    1  A    between atoms: C2_2  and  O1_4 
REMARK    2  A    between atoms: O1_4  and  C4_5 
ROOT
HETATM    1  C4  UNL     1      23.213   4.902  51.674  1.00  0.00     0.073 C 
HETATM    2  C5  UNL     1      24.084   4.433  52.618  1.00  0.00     0.087 C 
HETATM    3  C6  UNL     1      24.380   2.967  52.658  1.00  0.00     0.131 C 
HETATM    4  N1  UNL     1      25.254   2.083  52.350  1.00  0.00    -0.230 NA
HETATM    5  C7  UNL     1      26.504   2.284  51.725  1.00  0.00     0.335 C 
HETATM    6  N2  UNL     1      26.766   2.888  50.569  1.00  0.00    -0.277 NA
HETATM    7  C8  UNL     1      25.641   3.420  49.833  1.00  0.00     0.051 C 
HETATM    8  C9  UNL     1      24.393   3.077  49.587  1.00  0.00    -0.011 C 
HETATM    9  C10 UNL     1      22.977   3.076  49.074  1.00  0.00     0.067 C 
HETATM   10  C11 UNL     1      22.179   3.159  50.377  1.00  0.00    -0.038 C 
HETATM   11  C12 UNL     1      22.082   4.461  50.787  1.00  0.00     0.045 C 
HETATM   12  C13 UNL     1      21.627   2.009  51.149  1.00  0.00     0.022 A 
HETATM   13  C14 UNL     1      22.282   1.565  52.330  1.00  0.00     0.046 A 
HETATM   14  C15 UNL     1      21.704   0.494  52.976  1.00  0.00     0.033 A 
HETATM   15  C16 UNL     1      20.562  -0.108  52.505  1.00  0.00     0.046 A 
HETATM   16  C17 UNL     1      19.976   0.370  51.354  1.00  0.00     0.139 A 
HETATM   17  F1  UNL     1      18.839  -0.134  50.774  1.00  0.00    -0.204 F 
HETATM   18  C18 UNL     1      20.500   1.429  50.667  1.00  0.00     0.085 A 
HETATM   19 CL1  UNL     1      19.945   2.196  49.213  1.00  0.00    -0.080 Cl
HETATM   20  N3  UNL     1      23.462   1.918  53.132  1.00  0.00    -0.340 N 
HETATM   21  H17 UNL     1      23.463   1.327  53.975  1.00  0.00     0.167 HD
ENDROOT
BRANCH   1  22
HETATM   22  O1  UNL     1      23.459   6.253  51.466  1.00  0.00    -0.347 OA
BRANCH  22  23
HETATM   23  C2  UNL     1      23.968   6.809  50.285  1.00  0.00     0.120 C 
HETATM   24  C1  UNL     1      23.202   8.124  50.090  1.00  0.00     0.040 C 
HETATM   25  C3  UNL     1      25.432   7.212  50.414  1.00  0.00     0.040 C 
ENDBRANCH  22  23
ENDBRANCH   1  22
TORSDOF 2
ENDMDL
MODEL 9
REMARK VINA RESULT:      -6.8      3.099      5.355
REMARK  2 active torsions:
REMARK  status: ('A' for Active; 'I' for Inactive)
REMARK    1  A    between atoms: C2_2  and  O1_4 
REMARK    2  A    between atoms: O1_4  and  C4_5 
ROOT
HETATM    1  C4  UNL     1      24.816   5.085  49.586  1.00  0.00     0.073 C 
HETATM    2  C5  UNL     1      24.087   5.422  48.479  1.00  0.00     0.087 C 
HETATM    3  C6  UNL     1      22.622   5.115  48.463  1.00  0.00     0.131 C 
HETATM    4  N1  UNL     1      21.458   5.634  48.587  1.00  0.00    -0.230 NA
HETATM    5  C7  UNL     1      21.137   6.985  48.843  1.00  0.00     0.335 C 
HETATM    6  N2  UNL     1      21.547   7.760  49.845  1.00  0.00    -0.277 NA
HETATM    7  C8  UNL     1      22.441   7.167  50.814  1.00  0.00     0.051 C 
HETATM    8  C9  UNL     1      22.595   6.000  51.405  1.00  0.00    -0.011 C 
HETATM    9  C10 UNL     1      23.118   4.887  52.274  1.00  0.00     0.067 C 
HETATM   10  C11 UNL     1      23.553   3.860  51.227  1.00  0.00    -0.038 C 
HETATM   11  C12 UNL     1      24.808   4.159  50.769  1.00  0.00     0.045 C 
HETATM   12  C13 UNL     1      22.737   2.725  50.709  1.00  0.00     0.022 A 
HETATM   13  C14 UNL     1      22.123   2.815  49.430  1.00  0.00     0.046 A 
HETATM   14  C15 UNL     1      21.384   1.721  49.035  1.00  0.00     0.033 A 
HETATM   15  C16 UNL     1      21.249   0.610  49.832  1.00  0.00     0.046 A 
HETATM   16  C17 UNL     1      21.869   0.586  51.062  1.00  0.00     0.139 A 
HETATM   17  F1  UNL     1      21.819  -0.454  51.956  1.00  0.00    -0.204 F 
HETATM   18  C18 UNL     1      22.616   1.638  51.512  1.00  0.00     0.085 A 
HETATM   19 CL1  UNL     1      23.479   1.833  53.004  1.00  0.00    -0.080 Cl
HETATM   20  N3  UNL     1      22.027   3.775  48.322  1.00  0.00    -0.340 N 
HETATM   21  H17 UNL     1      21.515   3.323  47.551  1.00  0.00     0.167 HD
ENDROOT
BRANCH   1  22
HETATM   22  O1  UNL     1      25.958   5.874  49.628  1.00  0.00    -0.347 OA
BRANCH  22  23
HETATM   23  C2  UNL     1      26.827   6.098  48.552  1.00  0.00     0.120 C 
HETATM   24  C1  UNL     1      27.463   7.468  48.820  1.00  0.00     0.040 C 
HETATM   25  C3  UNL     1      27.989   5.112  48.526  1.00  0.00     0.040 C 
ENDBRANCH  22  23
ENDBRANCH   1  22
TORSDOF 2
ENDMDL
