MODEL 1
REMARK VINA RESULT:      -7.5      0.000      0.000
REMARK  7 active torsions:
REMARK  status: ('A' for Active; 'I' for Inactive)
REMARK    1  A    between atoms: O1_2  and  C2_3 
REMARK    2  A    between atoms: C2_3  and  C3_4 
REMARK    3  A    between atoms: C3_4  and  C4_5 
REMARK       I    between atoms: C4_5  and  N1_7 
REMARK    4  A    between atoms: N1_7  and  C5_8 
REMARK    5  A    between atoms: C6_9  and  C7_10 
REMARK    6  A    between atoms: C10_15  and  N4_16 
REMARK    7  A    between atoms: N4_16  and  C11_17 
ROOT
HETATM    1  C7  UNL     1      23.347  -0.515  53.875  1.00  0.00     0.036 C 
HETATM    2  C8  UNL     1      22.779  -0.932  55.203  1.00  0.00     0.159 C 
HETATM    3  N2  UNL     1      21.645  -1.833  54.950  1.00  0.00    -0.282 NA
HETATM    4  C9  UNL     1      20.703  -1.643  54.090  1.00  0.00     0.228 C 
HETATM    5  N3  UNL     1      20.486  -0.556  53.168  1.00  0.00    -0.229 NA
HETATM    6  C10 UNL     1      21.293   0.417  52.904  1.00  0.00     0.106 C 
HETATM    7  C17 UNL     1      22.647   0.749  53.420  1.00  0.00     0.088 C 
ENDROOT
BRANCH   1   8
HETATM    8  C6  UNL     1      24.821  -0.330  53.931  1.00  0.00    -0.003 C 
HETATM    9  C5  UNL     1      25.803  -1.044  53.402  1.00  0.00     0.087 C 
BRANCH   9  10
HETATM   10  N1  UNL     1      27.199  -0.795  53.506  1.00  0.00    -0.337 N 
HETATM   11  C4  UNL     1      28.231  -1.709  53.160  1.00  0.00     0.223 C 
HETATM   12  O2  UNL     1      27.866  -2.838  52.723  1.00  0.00    -0.273 OA
HETATM   13  H8  UNL     1      27.256   0.185  53.884  1.00  0.00     0.168 HD
BRANCH  11  14
HETATM   14  C3  UNL     1      29.566  -1.063  53.417  1.00  0.00     0.129 C 
BRANCH  14  15
HETATM   15  C2  UNL     1      29.422   0.277  54.037  1.00  0.00     0.176 C 
BRANCH  15  16
HETATM   16  O1  UNL     1      29.235   1.255  53.091  1.00  0.00    -0.395 OA
HETATM   17  C1  UNL     1      28.676   2.390  53.651  1.00  0.00     0.201 C 
ENDBRANCH  15  16
ENDBRANCH  14  15
ENDBRANCH  11  14
ENDBRANCH   9  10
ENDBRANCH   1   8
BRANCH   6  18
HETATM   18  N4  UNL     1      20.719   1.296  51.935  1.00  0.00    -0.344 N 
HETATM   19  H15 UNL     1      19.663   1.352  51.845  1.00  0.00     0.167 HD
BRANCH  18  20
HETATM   20  C11 UNL     1      21.426   2.146  51.035  1.00  0.00     0.035 A 
HETATM   21  C12 UNL     1      22.003   1.557  49.917  1.00  0.00     0.032 A 
HETATM   22  C13 UNL     1      22.697   2.377  49.030  1.00  0.00     0.046 A 
HETATM   23  C14 UNL     1      22.787   3.745  49.288  1.00  0.00     0.138 A 
HETATM   24  F1  UNL     1      23.438   4.609  48.484  1.00  0.00    -0.204 F 
HETATM   25  C15 UNL     1      22.203   4.296  50.407  1.00  0.00     0.074 A 
HETATM   26 CL1  UNL     1      22.292   6.008  50.771  1.00  0.00    -0.081 Cl
HETATM   27  C16 UNL     1      21.514   3.498  51.293  1.00  0.00     0.056 A 
ENDBRANCH  18  20
ENDBRANCH   6  18
TORSDOF 7
ENDMDL
MODEL 2
REMARK VINA RESULT:      -7.5      3.695      6.565
REMARK  7 active torsions:
REMARK  status: ('A' for Active; 'I' for Inactive)
REMARK    1  A    between atoms: O1_2  and  C2_3 
REMARK    2  A    between atoms: C2_3  and  C3_4 
REMARK    3  A    between atoms: C3_4  and  C4_5 
REMARK       I    between atoms: C4_5  and  N1_7 
REMARK    4  A    between atoms: N1_7  and  C5_8 
REMARK    5  A    between atoms: C6_9  and  C7_10 
REMARK    6  A    between atoms: C10_15  and  N4_16 
REMARK    7  A    between atoms: N4_16  and  C11_17 
ROOT
HETATM    1  C7  UNL     1      27.324   1.599  52.784  1.00  0.00     0.036 C 
HETATM    2  C8  UNL     1      28.661   1.789  53.443  1.00  0.00     0.159 C 
HETATM    3  N2  UNL     1      29.358   0.495  53.443  1.00  0.00    -0.282 NA
HETATM    4  C9  UNL     1      28.844  -0.642  53.771  1.00  0.00     0.228 C 
HETATM    5  N3  UNL     1      27.512  -0.973  54.211  1.00  0.00    -0.229 NA
HETATM    6  C10 UNL     1      26.482  -0.195  54.234  1.00  0.00     0.106 C 
HETATM    7  C17 UNL     1      26.306   1.228  53.842  1.00  0.00     0.088 C 
ENDROOT
BRANCH   1   8
HETATM    8  C6  UNL     1      26.902   2.802  52.020  1.00  0.00    -0.003 C 
HETATM    9  C5  UNL     1      26.107   2.923  50.968  1.00  0.00     0.087 C 
BRANCH   9  10
HETATM   10  N1  UNL     1      25.752   4.124  50.293  1.00  0.00    -0.337 N 
HETATM   11  C4  UNL     1      26.510   4.752  49.268  1.00  0.00     0.223 C 
HETATM   12  O2  UNL     1      27.590   4.187  48.934  1.00  0.00    -0.273 OA
HETATM   13  H8  UNL     1      24.837   4.403  50.732  1.00  0.00     0.168 HD
BRANCH  11  14
HETATM   14  C3  UNL     1      25.793   5.997  48.819  1.00  0.00     0.129 C 
BRANCH  14  15
HETATM   15  C2  UNL     1      25.839   7.064  49.849  1.00  0.00     0.176 C 
BRANCH  15  16
HETATM   16  O1  UNL     1      24.909   6.853  50.838  1.00  0.00    -0.395 OA
HETATM   17  C1  UNL     1      23.900   7.797  50.784  1.00  0.00     0.201 C 
ENDBRANCH  15  16
ENDBRANCH  14  15
ENDBRANCH  11  14
ENDBRANCH   9  10
ENDBRANCH   1   8
BRANCH   6  18
HETATM   18  N4  UNL     1      25.340  -0.889  54.739  1.00  0.00    -0.344 N 
HETATM   19  H15 UNL     1      25.465  -1.598  55.520  1.00  0.00     0.167 HD
BRANCH  18  20
HETATM   20  C11 UNL     1      23.992  -0.739  54.300  1.00  0.00     0.035 A 
HETATM   21  C12 UNL     1      22.990  -1.224  55.131  1.00  0.00     0.032 A 
HETATM   22  C13 UNL     1      21.668  -1.083  54.713  1.00  0.00     0.046 A 
HETATM   23  C14 UNL     1      21.397  -0.467  53.491  1.00  0.00     0.138 A 
HETATM   24  F1  UNL     1      20.150  -0.290  53.011  1.00  0.00    -0.204 F 
HETATM   25  C15 UNL     1      22.416   0.002  52.691  1.00  0.00     0.074 A 
HETATM   26 CL1  UNL     1      22.122   0.781  51.149  1.00  0.00    -0.081 Cl
HETATM   27  C16 UNL     1      23.727  -0.130  53.091  1.00  0.00     0.056 A 
ENDBRANCH  18  20
ENDBRANCH   6  18
TORSDOF 7
ENDMDL
MODEL 3
REMARK VINA RESULT:      -7.4      4.420      6.930
REMARK  7 active torsions:
REMARK  status: ('A' for Active; 'I' for Inactive)
REMARK    1  A    between atoms: O1_2  and  C2_3 
REMARK    2  A    between atoms: C2_3  and  C3_4 
REMARK    3  A    between atoms: C3_4  and  C4_5 
REMARK       I    between atoms: C4_5  and  N1_7 
REMARK    4  A    between atoms: N1_7  and  C5_8 
REMARK    5  A    between atoms: C6_9  and  C7_10 
REMARK    6  A    between atoms: C10_15  and  N4_16 
REMARK    7  A    between atoms: N4_16  and  C11_17 
ROOT
HETATM    1  C7  UNL     1      23.783   2.307  51.611  1.00  0.00     0.036 C 
HETATM    2  C8  UNL     1      22.834   1.635  50.658  1.00  0.00     0.159 C 
HETATM    3  N2  UNL     1      21.757   1.020  51.446  1.00  0.00    -0.282 NA
HETATM    4  C9  UNL     1      21.908   0.313  52.514  1.00  0.00     0.228 C 
HETATM    5  N3  UNL     1      23.106  -0.068  53.220  1.00  0.00    -0.229 NA
HETATM    6  C10 UNL     1      24.307   0.353  53.002  1.00  0.00     0.106 C 
HETATM    7  C17 UNL     1      24.855   1.316  52.011  1.00  0.00     0.088 C 
ENDROOT
BRANCH   1   8
HETATM    8  C6  UNL     1      24.372   3.543  51.033  1.00  0.00    -0.003 C 
HETATM    9  C5  UNL     1      25.088   3.727  49.934  1.00  0.00     0.087 C 
BRANCH   9  10
HETATM   10  N1  UNL     1      25.619   4.955  49.450  1.00  0.00    -0.337 N 
HETATM   11  C4  UNL     1      26.907   5.132  48.876  1.00  0.00     0.223 C 
HETATM   12  O2  UNL     1      27.636   4.103  48.793  1.00  0.00    -0.273 OA
HETATM   13  H8  UNL     1      24.849   5.651  49.623  1.00  0.00     0.168 HD
BRANCH  11  14
HETATM   14  C3  UNL     1      27.081   6.577  48.495  1.00  0.00     0.129 C 
BRANCH  14  15
HETATM   15  C2  UNL     1      25.963   7.418  48.989  1.00  0.00     0.176 C 
BRANCH  15  16
HETATM   16  O1  UNL     1      26.243   7.962  50.219  1.00  0.00    -0.395 OA
HETATM   17  C1  UNL     1      27.078   9.058  50.101  1.00  0.00     0.201 C 
ENDBRANCH  15  16
ENDBRANCH  14  15
ENDBRANCH  11  14
ENDBRANCH   9  10
ENDBRANCH   1   8
BRANCH   6  18
HETATM   18  N4  UNL     1      25.225  -0.258  53.911  1.00  0.00    -0.344 N 
HETATM   19  H15 UNL     1      24.852  -0.751  54.774  1.00  0.00     0.167 HD
BRANCH  18  20
HETATM   20  C11 UNL     1      26.645  -0.287  53.793  1.00  0.00     0.035 A 
HETATM   21  C12 UNL     1      27.215  -1.389  53.169  1.00  0.00     0.032 A 
HETATM   22  C13 UNL     1      28.602  -1.429  53.049  1.00  0.00     0.046 A 
HETATM   23  C14 UNL     1      29.365  -0.374  53.551  1.00  0.00     0.138 A 
HETATM   24  F1  UNL     1      30.711  -0.332  53.477  1.00  0.00    -0.204 F 
HETATM   25  C15 UNL     1      28.767   0.704  54.165  1.00  0.00     0.074 A 
HETATM   26 CL1  UNL     1      29.686   2.050  54.812  1.00  0.00    -0.081 Cl
HETATM   27  C16 UNL     1      27.397   0.757  54.292  1.00  0.00     0.056 A 
ENDBRANCH  18  20
ENDBRANCH   6  18
TORSDOF 7
ENDMDL
MODEL 4
REMARK VINA RESULT:      -7.4      4.953      8.255
REMARK  7 active torsions:
REMARK  status: ('A' for Active; 'I' for Inactive)
REMARK    1  A    between atoms: O1_2  and  C2_3 
REMARK    2  A    between atoms: C2_3  and  C3_4 
REMARK    3  A    between atoms: C3_4  and  C4_5 
REMARK       I    between atoms: C4_5  and  N1_7 
REMARK    4  A    between atoms: N1_7  and  C5_8 
REMARK    5  A    between atoms: C6_9  and  C7_10 
REMARK    6  A    between atoms: C10_15  and  N4_16 
REMARK    7  A    between atoms: N4_16  and  C11_17 
ROOT
HETATM    1  C7  UNL     1      21.384  -0.130  53.555  1.00  0.00     0.036 C 
HETATM    2  C8  UNL     1      21.184  -1.527  54.073  1.00  0.00     0.159 C 
HETATM    3  N2  UNL     1      21.998  -1.683  55.287  1.00  0.00    -0.282 NA
HETATM    4  C9  UNL     1      23.225  -1.314  55.430  1.00  0.00     0.228 C 
HETATM    5  N3  UNL     1      24.122  -0.674  54.500  1.00  0.00    -0.229 NA
HETATM    6  C10 UNL     1      23.829  -0.194  53.338  1.00  0.00     0.106 C 
HETATM    7  C17 UNL     1      22.548  -0.130  52.586  1.00  0.00     0.088 C 
ENDROOT
BRANCH   1   8
HETATM    8  C6  UNL     1      20.152   0.414  52.925  1.00  0.00    -0.003 C 
HETATM    9  C5  UNL     1      19.927   1.572  52.324  1.00  0.00     0.087 C 
BRANCH   9  10
HETATM   10  N1  UNL     1      18.707   2.016  51.744  1.00  0.00    -0.337 N 
HETATM   11  C4  UNL     1      18.479   3.298  51.174  1.00  0.00     0.223 C 
HETATM   12  O2  UNL     1      19.452   4.106  51.190  1.00  0.00    -0.273 OA
HETATM   13  H8  UNL     1      18.061   1.192  51.845  1.00  0.00     0.168 HD
BRANCH  11  14
HETATM   14  C3  UNL     1      17.062   3.369  50.672  1.00  0.00     0.129 C 
BRANCH  14  15
HETATM   15  C2  UNL     1      16.253   4.349  51.439  1.00  0.00     0.176 C 
BRANCH  15  16
HETATM   16  O1  UNL     1      16.275   4.080  52.786  1.00  0.00    -0.395 OA
HETATM   17  C1  UNL     1      15.014   4.203  53.339  1.00  0.00     0.201 C 
ENDBRANCH  15  16
ENDBRANCH  14  15
ENDBRANCH  11  14
ENDBRANCH   9  10
ENDBRANCH   1   8
BRANCH   6  18
HETATM   18  N4  UNL     1      24.990   0.360  52.716  1.00  0.00    -0.344 N 
HETATM   19  H15 UNL     1      24.873   1.087  51.951  1.00  0.00     0.167 HD
BRANCH  18  20
HETATM   20  C11 UNL     1      26.347   0.041  53.013  1.00  0.00     0.035 A 
HETATM   21  C12 UNL     1      26.788  -1.238  52.699  1.00  0.00     0.032 A 
HETATM   22  C13 UNL     1      28.113  -1.562  52.985  1.00  0.00     0.046 A 
HETATM   23  C14 UNL     1      28.943  -0.604  53.569  1.00  0.00     0.138 A 
HETATM   24  F1  UNL     1      30.235  -0.833  53.878  1.00  0.00    -0.204 F 
HETATM   25  C15 UNL     1      28.472   0.655  53.868  1.00  0.00     0.074 A 
HETATM   26 CL1  UNL     1      29.478   1.889  54.602  1.00  0.00    -0.081 Cl
HETATM   27  C16 UNL     1      27.165   0.990  53.591  1.00  0.00     0.056 A 
ENDBRANCH  18  20
ENDBRANCH   6  18
TORSDOF 7
ENDMDL
MODEL 5
REMARK VINA RESULT:      -7.2      5.531      7.748
REMARK  7 active torsions:
REMARK  status: ('A' for Active; 'I' for Inactive)
REMARK    1  A    between atoms: O1_2  and  C2_3 
REMARK    2  A    between atoms: C2_3  and  C3_4 
REMARK    3  A    between atoms: C3_4  and  C4_5 
REMARK       I    between atoms: C4_5  and  N1_7 
REMARK    4  A    between atoms: N1_7  and  C5_8 
REMARK    5  A    between atoms: C6_9  and  C7_10 
REMARK    6  A    between atoms: C10_15  and  N4_16 
REMARK    7  A    between atoms: N4_16  and  C11_17 
ROOT
HETATM    1  C7  UNL     1      26.316   4.422  49.635  1.00  0.00     0.036 C 
HETATM    2  C8  UNL     1      25.135   5.090  48.988  1.00  0.00     0.159 C 
HETATM    3  N2  UNL     1      24.284   5.641  50.053  1.00  0.00    -0.282 NA
HETATM    4  C9  UNL     1      23.928   5.029  51.131  1.00  0.00     0.228 C 
HETATM    5  N3  UNL     1      24.237   3.700  51.596  1.00  0.00    -0.229 NA
HETATM    6  C10 UNL     1      25.078   2.867  51.078  1.00  0.00     0.106 C 
HETATM    7  C17 UNL     1      25.972   2.970  49.895  1.00  0.00     0.088 C 
ENDROOT
BRANCH   1   8
HETATM    8  C6  UNL     1      27.549   4.550  48.815  1.00  0.00    -0.003 C 
HETATM    9  C5  UNL     1      28.306   5.604  48.553  1.00  0.00     0.087 C 
BRANCH   9  10
HETATM   10  N1  UNL     1      29.480   5.640  47.750  1.00  0.00    -0.337 N 
HETATM   11  C4  UNL     1      30.816   5.593  48.234  1.00  0.00     0.223 C 
HETATM   12  O2  UNL     1      30.962   5.512  49.488  1.00  0.00    -0.273 OA
HETATM   13  H8  UNL     1      29.115   5.708  46.766  1.00  0.00     0.168 HD
BRANCH  11  14
HETATM   14  C3  UNL     1      31.765   5.656  47.068  1.00  0.00     0.129 C 
BRANCH  14  15
HETATM   15  C2  UNL     1      33.025   4.921  47.341  1.00  0.00     0.176 C 
BRANCH  15  16
HETATM   16  O1  UNL     1      32.788   3.600  47.634  1.00  0.00    -0.395 OA
HETATM   17  C1  UNL     1      33.528   2.767  46.816  1.00  0.00     0.201 C 
ENDBRANCH  15  16
ENDBRANCH  14  15
ENDBRANCH  11  14
ENDBRANCH   9  10
ENDBRANCH   1   8
BRANCH   6  18
HETATM   18  N4  UNL     1      25.103   1.649  51.825  1.00  0.00    -0.344 N 
HETATM   19  H15 UNL     1      24.198   1.117  51.982  1.00  0.00     0.167 HD
BRANCH  18  20
HETATM   20  C11 UNL     1      26.248   1.035  52.409  1.00  0.00     0.035 A 
HETATM   21  C12 UNL     1      26.357  -0.346  52.308  1.00  0.00     0.032 A 
HETATM   22  C13 UNL     1      27.472  -0.959  52.876  1.00  0.00     0.046 A 
HETATM   23  C14 UNL     1      28.431  -0.176  53.520  1.00  0.00     0.138 A 
HETATM   24  F1  UNL     1      29.538  -0.686  54.096  1.00  0.00    -0.204 F 
HETATM   25  C15 UNL     1      28.291   1.191  53.602  1.00  0.00     0.074 A 
HETATM   26 CL1  UNL     1      29.471   2.214  54.401  1.00  0.00    -0.081 Cl
HETATM   27  C16 UNL     1      27.195   1.811  53.045  1.00  0.00     0.056 A 
ENDBRANCH  18  20
ENDBRANCH   6  18
TORSDOF 7
ENDMDL
MODEL 6
REMARK VINA RESULT:      -7.1      5.206      7.603
REMARK  7 active torsions:
REMARK  status: ('A' for Active; 'I' for Inactive)
REMARK    1  A    between atoms: O1_2  and  C2_3 
REMARK    2  A    between atoms: C2_3  and  C3_4 
REMARK    3  A    between atoms: C3_4  and  C4_5 
REMARK       I    between atoms: C4_5  and  N1_7 
REMARK    4  A    between atoms: N1_7  and  C5_8 
REMARK    5  A    between atoms: C6_9  and  C7_10 
REMARK    6  A    between atoms: C10_15  and  N4_16 
REMARK    7  A    between atoms: N4_16  and  C11_17 
ROOT
HETATM    1  C7  UNL     1      24.887   3.857  50.047  1.00  0.00     0.036 C 
HETATM    2  C8  UNL     1      23.791   3.166  49.285  1.00  0.00     0.159 C 
HETATM    3  N2  UNL     1      22.568   3.220  50.097  1.00  0.00    -0.282 NA
HETATM    4  C9  UNL     1      22.483   2.958  51.357  1.00  0.00     0.228 C 
HETATM    5  N3  UNL     1      23.498   2.557  52.299  1.00  0.00    -0.229 NA
HETATM    6  C10 UNL     1      24.773   2.512  52.099  1.00  0.00     0.106 C 
HETATM    7  C17 UNL     1      25.602   2.835  50.908  1.00  0.00     0.088 C 
ENDROOT
BRANCH   1   8
HETATM    8  C6  UNL     1      25.833   4.566  49.147  1.00  0.00    -0.003 C 
HETATM    9  C5  UNL     1      27.144   4.733  49.228  1.00  0.00     0.087 C 
BRANCH   9  10
HETATM   10  N1  UNL     1      27.980   5.432  48.314  1.00  0.00    -0.337 N 
HETATM   11  C4  UNL     1      28.115   6.844  48.229  1.00  0.00     0.223 C 
HETATM   12  O2  UNL     1      27.428   7.529  49.040  1.00  0.00    -0.273 OA
HETATM   13  H8  UNL     1      28.441   4.669  47.755  1.00  0.00     0.168 HD
BRANCH  11  14
HETATM   14  C3  UNL     1      29.092   7.180  47.135  1.00  0.00     0.129 C 
BRANCH  14  15
HETATM   15  C2  UNL     1      30.459   6.691  47.446  1.00  0.00     0.176 C 
BRANCH  15  16
HETATM   16  O1  UNL     1      30.697   6.680  48.799  1.00  0.00    -0.395 OA
HETATM   17  C1  UNL     1      31.758   5.850  49.111  1.00  0.00     0.201 C 
ENDBRANCH  15  16
ENDBRANCH  14  15
ENDBRANCH  11  14
ENDBRANCH   9  10
ENDBRANCH   1   8
BRANCH   6  18
HETATM   18  N4  UNL     1      25.450   2.062  53.274  1.00  0.00    -0.344 N 
HETATM   19  H15 UNL     1      25.085   2.354  54.228  1.00  0.00     0.167 HD
BRANCH  18  20
HETATM   20  C11 UNL     1      26.607   1.231  53.324  1.00  0.00     0.035 A 
HETATM   21  C12 UNL     1      27.804   1.821  53.706  1.00  0.00     0.032 A 
HETATM   22  C13 UNL     1      28.942   1.019  53.757  1.00  0.00     0.046 A 
HETATM   23  C14 UNL     1      28.844  -0.333  53.428  1.00  0.00     0.138 A 
HETATM   24  F1  UNL     1      29.893  -1.179  53.451  1.00  0.00    -0.204 F 
HETATM   25  C15 UNL     1      27.640  -0.886  53.052  1.00  0.00     0.074 A 
HETATM   26 CL1  UNL     1      27.470  -2.579  52.630  1.00  0.00    -0.081 Cl
HETATM   27  C16 UNL     1      26.506  -0.105  52.997  1.00  0.00     0.056 A 
ENDBRANCH  18  20
ENDBRANCH   6  18
TORSDOF 7
ENDMDL
MODEL 7
REMARK VINA RESULT:      -7.0      5.186      7.371
REMARK  7 active torsions:
REMARK  status: ('A' for Active; 'I' for Inactive)
REMARK    1  A    between atoms: O1_2  and  C2_3 
REMARK    2  A    between atoms: C2_3  and  C3_4 
REMARK    3  A    between atoms: C3_4  and  C4_5 
REMARK       I    between atoms: C4_5  and  N1_7 
REMARK    4  A    between atoms: N1_7  and  C5_8 
REMARK    5  A    between atoms: C6_9  and  C7_10 
REMARK    6  A    between atoms: C10_15  and  N4_16 
REMARK    7  A    between atoms: N4_16  and  C11_17 
ROOT
HETATM    1  C7  UNL     1      24.499   3.625  50.275  1.00  0.00     0.036 C 
HETATM    2  C8  UNL     1      23.822   3.005  49.084  1.00  0.00     0.159 C 
HETATM    3  N2  UNL     1      22.495   2.537  49.508  1.00  0.00    -0.282 NA
HETATM    4  C9  UNL     1      22.233   1.871  50.581  1.00  0.00     0.228 C 
HETATM    5  N3  UNL     1      23.107   1.408  51.630  1.00  0.00    -0.229 NA
HETATM    6  C10 UNL     1      24.355   1.697  51.789  1.00  0.00     0.106 C 
HETATM    7  C17 UNL     1      25.283   2.553  51.003  1.00  0.00     0.088 C 
ENDROOT
BRANCH   1   8
HETATM    8  C6  UNL     1      25.368   4.768  49.890  1.00  0.00    -0.003 C 
HETATM    9  C5  UNL     1      26.471   4.807  49.158  1.00  0.00     0.087 C 
BRANCH   9  10
HETATM   10  N1  UNL     1      27.248   5.954  48.836  1.00  0.00    -0.337 N 
HETATM   11  C4  UNL     1      28.586   5.940  48.357  1.00  0.00     0.223 C 
HETATM   12  O2  UNL     1      29.123   4.805  48.207  1.00  0.00    -0.273 OA
HETATM   13  H8  UNL     1      26.605   6.762  49.037  1.00  0.00     0.168 HD
BRANCH  11  14
HETATM   14  C3  UNL     1      29.046   7.356  48.140  1.00  0.00     0.129 C 
BRANCH  14  15
HETATM   15  C2  UNL     1      30.419   7.578  48.659  1.00  0.00     0.176 C 
BRANCH  15  16
HETATM   16  O1  UNL     1      30.843   8.865  48.436  1.00  0.00    -0.395 OA
HETATM   17  C1  UNL     1      30.408   9.714  49.438  1.00  0.00     0.201 C 
ENDBRANCH  15  16
ENDBRANCH  14  15
ENDBRANCH  11  14
ENDBRANCH   9  10
ENDBRANCH   1   8
BRANCH   6  18
HETATM   18  N4  UNL     1      24.878   1.044  52.948  1.00  0.00    -0.344 N 
HETATM   19  H15 UNL     1      24.235   0.854  53.772  1.00  0.00     0.167 HD
BRANCH  18  20
HETATM   20  C11 UNL     1      26.217   0.595  53.139  1.00  0.00     0.035 A 
HETATM   21  C12 UNL     1      26.529  -0.691  52.719  1.00  0.00     0.032 A 
HETATM   22  C13 UNL     1      27.835  -1.141  52.901  1.00  0.00     0.046 A 
HETATM   23  C14 UNL     1      28.775  -0.296  53.492  1.00  0.00     0.138 A 
HETATM   24  F1  UNL     1      30.058  -0.650  53.706  1.00  0.00    -0.204 F 
HETATM   25  C15 UNL     1      28.431   0.974  53.898  1.00  0.00     0.074 A 
HETATM   26 CL1  UNL     1      29.579   2.069  54.644  1.00  0.00    -0.081 Cl
HETATM   27  C16 UNL     1      27.144   1.433  53.724  1.00  0.00     0.056 A 
ENDBRANCH  18  20
ENDBRANCH   6  18
TORSDOF 7
ENDMDL
MODEL 8
REMARK VINA RESULT:      -7.0      6.622      9.113
REMARK  7 active torsions:
REMARK  status: ('A' for Active; 'I' for Inactive)
REMARK    1  A    between atoms: O1_2  and  C2_3 
REMARK    2  A    between atoms: C2_3  and  C3_4 
REMARK    3  A    between atoms: C3_4  and  C4_5 
REMARK       I    between atoms: C4_5  and  N1_7 
REMARK    4  A    between atoms: N1_7  and  C5_8 
REMARK    5  A    between atoms: C6_9  and  C7_10 
REMARK    6  A    between atoms: C10_15  and  N4_16 
REMARK    7  A    between atoms: N4_16  and  C11_17 
ROOT
HETATM    1  C7  UNL     1      26.689   5.299  48.769  1.00  0.00     0.036 C 
HETATM    2  C8  UNL     1      25.863   6.324  49.494  1.00  0.00     0.159 C 
HETATM    3  N2  UNL     1      25.348   7.279  48.503  1.00  0.00    -0.282 NA
HETATM    4  C9  UNL     1      26.030   7.829  47.556  1.00  0.00     0.228 C 
HETATM    5  N3  UNL     1      27.419   7.685  47.200  1.00  0.00    -0.229 NA
HETATM    6  C10 UNL     1      28.265   6.838  47.685  1.00  0.00     0.106 C 
HETATM    7  C17 UNL     1      28.125   5.777  48.717  1.00  0.00     0.088 C 
ENDROOT
BRANCH   1   8
HETATM    8  C6  UNL     1      26.586   3.954  49.394  1.00  0.00    -0.003 C 
HETATM    9  C5  UNL     1      25.990   3.563  50.510  1.00  0.00     0.087 C 
BRANCH   9  10
HETATM   10  N1  UNL     1      25.939   2.244  51.040  1.00  0.00    -0.337 N 
HETATM   11  C4  UNL     1      26.886   1.674  51.933  1.00  0.00     0.223 C 
HETATM   12  O2  UNL     1      27.853   2.411  52.281  1.00  0.00    -0.273 OA
HETATM   13  H8  UNL     1      25.068   1.833  50.617  1.00  0.00     0.168 HD
BRANCH  11  14
HETATM   14  C3  UNL     1      26.473   0.262  52.253  1.00  0.00     0.129 C 
BRANCH  14  15
HETATM   15  C2  UNL     1      27.569  -0.502  52.899  1.00  0.00     0.176 C 
BRANCH  15  16
HETATM   16  O1  UNL     1      27.472  -0.466  54.269  1.00  0.00    -0.395 OA
HETATM   17  C1  UNL     1      28.627   0.036  54.838  1.00  0.00     0.201 C 
ENDBRANCH  15  16
ENDBRANCH  14  15
ENDBRANCH  11  14
ENDBRANCH   9  10
ENDBRANCH   1   8
BRANCH   6  18
HETATM   18  N4  UNL     1      29.548   7.007  47.078  1.00  0.00    -0.344 N 
HETATM   19  H15 UNL     1      29.613   7.450  46.115  1.00  0.00     0.167 HD
BRANCH  18  20
HETATM   20  C11 UNL     1      30.806   6.635  47.634  1.00  0.00     0.035 A 
HETATM   21  C12 UNL     1      31.505   7.603  48.344  1.00  0.00     0.032 A 
HETATM   22  C13 UNL     1      32.737   7.252  48.892  1.00  0.00     0.046 A 
HETATM   23  C14 UNL     1      33.223   5.957  48.713  1.00  0.00     0.138 A 
HETATM   24  F1  UNL     1      34.404   5.534  49.207  1.00  0.00    -0.204 F 
HETATM   25  C15 UNL     1      32.504   5.021  48.002  1.00  0.00     0.074 A 
HETATM   26 CL1  UNL     1      33.076   3.383  47.751  1.00  0.00    -0.081 Cl
HETATM   27  C16 UNL     1      31.285   5.354  47.455  1.00  0.00     0.056 A 
ENDBRANCH  18  20
ENDBRANCH   6  18
TORSDOF 7
ENDMDL
MODEL 9
REMARK VINA RESULT:      -7.0      5.066      7.404
REMARK  7 active torsions:
REMARK  status: ('A' for Active; 'I' for Inactive)
REMARK    1  A    between atoms: O1_2  and  C2_3 
REMARK    2  A    between atoms: C2_3  and  C3_4 
REMARK    3  A    between atoms: C3_4  and  C4_5 
REMARK       I    between atoms: C4_5  and  N1_7 
REMARK    4  A    between atoms: N1_7  and  C5_8 
REMARK    5  A    between atoms: C6_9  and  C7_10 
REMARK    6  A    between atoms: C10_15  and  N4_16 
REMARK    7  A    between atoms: N4_16  and  C11_17 
ROOT
HETATM    1  C7  UNL     1      24.138   3.391  50.913  1.00  0.00     0.036 C 
HETATM    2  C8  UNL     1      23.268   2.608  49.970  1.00  0.00     0.159 C 
HETATM    3  N2  UNL     1      22.107   2.115  50.724  1.00  0.00    -0.282 NA
HETATM    4  C9  UNL     1      22.139   1.556  51.885  1.00  0.00     0.228 C 
HETATM    5  N3  UNL     1      23.255   1.260  52.749  1.00  0.00    -0.229 NA
HETATM    6  C10 UNL     1      24.481   1.634  52.595  1.00  0.00     0.106 C 
HETATM    7  C17 UNL     1      25.144   2.450  51.543  1.00  0.00     0.088 C 
ENDROOT
BRANCH   1   8
HETATM    8  C6  UNL     1      24.809   4.532  50.237  1.00  0.00    -0.003 C 
HETATM    9  C5  UNL     1      25.891   4.570  49.475  1.00  0.00     0.087 C 
BRANCH   9  10
HETATM   10  N1  UNL     1      26.471   5.715  48.863  1.00  0.00    -0.337 N 
HETATM   11  C4  UNL     1      27.800   5.806  48.368  1.00  0.00     0.223 C 
HETATM   12  O2  UNL     1      28.522   4.774  48.488  1.00  0.00    -0.273 OA
HETATM   13  H8  UNL     1      25.699   6.429  48.875  1.00  0.00     0.168 HD
BRANCH  11  14
HETATM   14  C3  UNL     1      28.020   7.182  47.799  1.00  0.00     0.129 C 
BRANCH  14  15
HETATM   15  C2  UNL     1      28.723   8.071  48.757  1.00  0.00     0.176 C 
BRANCH  15  16
HETATM   16  O1  UNL     1      28.020   9.229  48.982  1.00  0.00    -0.395 OA
HETATM   17  C1  UNL     1      27.316   9.162  50.171  1.00  0.00     0.201 C 
ENDBRANCH  15  16
ENDBRANCH  14  15
ENDBRANCH  11  14
ENDBRANCH   9  10
ENDBRANCH   1   8
BRANCH   6  18
HETATM   18  N4  UNL     1      25.294   1.141  53.661  1.00  0.00    -0.344 N 
HETATM   19  H15 UNL     1      24.849   0.942  54.605  1.00  0.00     0.167 HD
BRANCH  18  20
HETATM   20  C11 UNL     1      26.693   0.871  53.609  1.00  0.00     0.035 A 
HETATM   21  C12 UNL     1      27.558   1.951  53.714  1.00  0.00     0.032 A 
HETATM   22  C13 UNL     1      28.928   1.700  53.664  1.00  0.00     0.046 A 
HETATM   23  C14 UNL     1      29.380   0.389  53.512  1.00  0.00     0.138 A 
HETATM   24  F1  UNL     1      30.685   0.057  53.454  1.00  0.00    -0.204 F 
HETATM   25  C15 UNL     1      28.493  -0.660  53.410  1.00  0.00     0.074 A 
HETATM   26 CL1  UNL     1      29.015  -2.322  53.219  1.00  0.00    -0.081 Cl
HETATM   27  C16 UNL     1      27.136  -0.427  53.459  1.00  0.00     0.056 A 
ENDBRANCH  18  20
ENDBRANCH   6  18
TORSDOF 7
ENDMDL
