MODEL 1
REMARK VINA RESULT:      -7.8      0.000      0.000
REMARK  4 active torsions:
REMARK  status: ('A' for Active; 'I' for Inactive)
REMARK    1  A    between atoms: O1_2  and  C2_3 
REMARK    2  A    between atoms: C2_3  and  C3_4 
REMARK    3  A    between atoms: C17_21  and  C18_22 
REMARK    4  A    between atoms: C18_22  and  O2_23 
ROOT
HETATM    1  C3  UNL     1      25.168   1.878  51.738  1.00  0.00    -0.025 C 
HETATM    2  C4  UNL     1      24.163   1.836  52.681  1.00  0.00     0.026 C 
HETATM    3  C5  UNL     1      22.809   1.567  52.665  1.00  0.00     0.023 A 
HETATM    4  C6  UNL     1      22.251   0.450  53.285  1.00  0.00     0.005 A 
HETATM    5  C7  UNL     1      22.788  -0.610  54.026  1.00  0.00     0.014 A 
HETATM    6  C8  UNL     1      22.003  -1.625  54.552  1.00  0.00     0.001 A 
HETATM    7  C9  UNL     1      20.648  -1.553  54.315  1.00  0.00     0.002 A 
HETATM    8  C10 UNL     1      20.076  -0.514  53.583  1.00  0.00     0.030 A 
HETATM    9  C11 UNL     1      20.890   0.487  53.070  1.00  0.00     0.046 A 
HETATM   10  N1  UNL     1      20.661   1.587  52.349  1.00  0.00    -0.335 N 
HETATM   11  C12 UNL     1      19.325   1.951  51.934  1.00  0.00     0.158 C 
HETATM   12  C13 UNL     1      21.781   2.276  52.077  1.00  0.00     0.142 A 
HETATM   13  N2  UNL     1      22.053   3.409  51.410  1.00  0.00    -0.223 NA
HETATM   14  C14 UNL     1      21.408   3.821  50.328  1.00  0.00     0.234 C 
HETATM   15  N3  UNL     1      22.051   2.997  49.484  1.00  0.00    -0.254 NA
HETATM   16  C15 UNL     1      23.254   3.364  49.014  1.00  0.00     0.118 C 
HETATM   17  C16 UNL     1      24.147   3.430  50.088  1.00  0.00     0.029 C 
HETATM   18  C17 UNL     1      25.215   2.708  50.630  1.00  0.00    -0.025 C 
ENDROOT
BRANCH   1  19
HETATM   19  C2  UNL     1      26.290   0.959  51.932  1.00  0.00     0.206 C 
BRANCH  19  20
HETATM   20  O1  UNL     1      26.213   0.235  53.114  1.00  0.00    -0.391 OA
HETATM   21  C1  UNL     1      26.555  -1.092  52.789  1.00  0.00     0.201 C 
ENDBRANCH  19  20
ENDBRANCH   1  19
BRANCH  18  22
HETATM   22  C18 UNL     1      26.487   2.882  49.917  1.00  0.00     0.203 C 
BRANCH  22  23
HETATM   23  O2  UNL     1      27.216   4.006  50.359  1.00  0.00    -0.396 OA
HETATM   24  H19 UNL     1      26.557   4.707  50.572  1.00  0.00     0.209 HD
ENDBRANCH  22  23
ENDBRANCH  18  22
TORSDOF 4
ENDMDL
MODEL 2
REMARK VINA RESULT:      -7.6      1.827      5.159
REMARK  4 active torsions:
REMARK  status: ('A' for Active; 'I' for Inactive)
REMARK    1  A    between atoms: O1_2  and  C2_3 
REMARK    2  A    between atoms: C2_3  and  C3_4 
REMARK    3  A    between atoms: C17_21  and  C18_22 
REMARK    4  A    between atoms: C18_22  and  O2_23 
ROOT
HETATM    1  C3  UNL     1      24.877  -0.043  53.571  1.00  0.00    -0.025 C 
HETATM    2  C4  UNL     1      24.841   0.317  52.241  1.00  0.00     0.026 C 
HETATM    3  C5  UNL     1      24.147   1.244  51.491  1.00  0.00     0.023 A 
HETATM    4  C6  UNL     1      24.762   2.332  50.873  1.00  0.00     0.005 A 
HETATM    5  C7  UNL     1      26.087   2.781  50.806  1.00  0.00     0.014 A 
HETATM    6  C8  UNL     1      26.454   3.921  50.107  1.00  0.00     0.001 A 
HETATM    7  C9  UNL     1      25.449   4.612  49.467  1.00  0.00     0.002 A 
HETATM    8  C10 UNL     1      24.118   4.197  49.510  1.00  0.00     0.030 A 
HETATM    9  C11 UNL     1      23.784   3.051  50.218  1.00  0.00     0.046 A 
HETATM   10  N1  UNL     1      22.639   2.405  50.446  1.00  0.00    -0.335 N 
HETATM   11  C12 UNL     1      21.385   2.881  49.905  1.00  0.00     0.158 C 
HETATM   12  C13 UNL     1      22.798   1.310  51.207  1.00  0.00     0.142 A 
HETATM   13  N2  UNL     1      21.973   0.366  51.687  1.00  0.00    -0.223 NA
HETATM   14  C14 UNL     1      20.722   0.582  52.071  1.00  0.00     0.234 C 
HETATM   15  N3  UNL     1      21.053   1.108  53.263  1.00  0.00    -0.254 NA
HETATM   16  C15 UNL     1      21.316   0.278  54.285  1.00  0.00     0.118 C 
HETATM   17  C16 UNL     1      22.460  -0.462  53.969  1.00  0.00     0.029 C 
HETATM   18  C17 UNL     1      23.814  -0.527  54.316  1.00  0.00    -0.025 C 
ENDROOT
BRANCH   1  19
HETATM   19  C2  UNL     1      26.162   0.098  54.257  1.00  0.00     0.206 C 
BRANCH  19  20
HETATM   20  O1  UNL     1      27.103  -0.845  53.865  1.00  0.00    -0.391 OA
HETATM   21  C1  UNL     1      28.365  -0.256  54.079  1.00  0.00     0.201 C 
ENDBRANCH  19  20
ENDBRANCH   1  19
BRANCH  18  22
HETATM   22  C18 UNL     1      24.078  -1.183  55.603  1.00  0.00     0.203 C 
BRANCH  22  23
HETATM   23  O2  UNL     1      23.053  -2.072  55.988  1.00  0.00    -0.396 OA
HETATM   24  H19 UNL     1      22.303  -1.929  55.363  1.00  0.00     0.209 HD
ENDBRANCH  22  23
ENDBRANCH  18  22
TORSDOF 4
ENDMDL
MODEL 3
REMARK VINA RESULT:      -7.4      1.604      2.280
REMARK  4 active torsions:
REMARK  status: ('A' for Active; 'I' for Inactive)
REMARK    1  A    between atoms: O1_2  and  C2_3 
REMARK    2  A    between atoms: C2_3  and  C3_4 
REMARK    3  A    between atoms: C17_21  and  C18_22 
REMARK    4  A    between atoms: C18_22  and  O2_23 
ROOT
HETATM    1  C3  UNL     1      26.132   1.244  53.590  1.00  0.00    -0.025 C 
HETATM    2  C4  UNL     1      24.812   1.559  53.828  1.00  0.00     0.026 C 
HETATM    3  C5  UNL     1      23.669   1.654  53.061  1.00  0.00     0.023 A 
HETATM    4  C6  UNL     1      22.586   0.788  53.205  1.00  0.00     0.005 A 
HETATM    5  C7  UNL     1      22.325  -0.298  54.050  1.00  0.00     0.014 A 
HETATM    6  C8  UNL     1      21.139  -1.015  53.998  1.00  0.00     0.001 A 
HETATM    7  C9  UNL     1      20.207  -0.615  53.067  1.00  0.00     0.002 A 
HETATM    8  C10 UNL     1      20.430   0.461  52.208  1.00  0.00     0.030 A 
HETATM    9  C11 UNL     1      21.627   1.158  52.285  1.00  0.00     0.046 A 
HETATM   10  N1  UNL     1      22.133   2.204  51.628  1.00  0.00    -0.335 N 
HETATM   11  C12 UNL     1      21.392   2.862  50.575  1.00  0.00     0.158 C 
HETATM   12  C13 UNL     1      23.360   2.545  52.054  1.00  0.00     0.142 A 
HETATM   13  N2  UNL     1      24.245   3.497  51.716  1.00  0.00    -0.223 NA
HETATM   14  C14 UNL     1      24.426   3.955  50.485  1.00  0.00     0.234 C 
HETATM   15  N3  UNL     1      25.170   2.912  50.078  1.00  0.00    -0.254 NA
HETATM   16  C15 UNL     1      26.482   2.904  50.363  1.00  0.00     0.118 C 
HETATM   17  C16 UNL     1      26.632   2.840  51.752  1.00  0.00     0.029 C 
HETATM   18  C17 UNL     1      26.994   1.920  52.742  1.00  0.00    -0.025 C 
ENDROOT
BRANCH   1  19
HETATM   19  C2  UNL     1      26.672   0.087  54.306  1.00  0.00     0.206 C 
BRANCH  19  20
HETATM   20  O1  UNL     1      26.042  -1.107  53.979  1.00  0.00    -0.391 OA
HETATM   21  C1  UNL     1      26.762  -1.651  52.896  1.00  0.00     0.201 C 
ENDBRANCH  19  20
ENDBRANCH   1  19
BRANCH  18  22
HETATM   22  C18 UNL     1      28.439   1.684  52.849  1.00  0.00     0.203 C 
BRANCH  22  23
HETATM   23  O2  UNL     1      29.168   2.858  53.133  1.00  0.00    -0.396 OA
HETATM   24  H19 UNL     1      28.821   3.560  52.534  1.00  0.00     0.209 HD
ENDBRANCH  22  23
ENDBRANCH  18  22
TORSDOF 4
ENDMDL
MODEL 4
REMARK VINA RESULT:      -7.3      2.547      5.995
REMARK  4 active torsions:
REMARK  status: ('A' for Active; 'I' for Inactive)
REMARK    1  A    between atoms: O1_2  and  C2_3 
REMARK    2  A    between atoms: C2_3  and  C3_4 
REMARK    3  A    between atoms: C17_21  and  C18_22 
REMARK    4  A    between atoms: C18_22  and  O2_23 
ROOT
HETATM    1  C3  UNL     1      22.112   0.377  53.309  1.00  0.00    -0.025 C 
HETATM    2  C4  UNL     1      22.416   1.641  52.851  1.00  0.00     0.026 C 
HETATM    3  C5  UNL     1      23.330   2.173  51.964  1.00  0.00     0.023 A 
HETATM    4  C6  UNL     1      22.959   2.768  50.759  1.00  0.00     0.005 A 
HETATM    5  C7  UNL     1      21.727   3.000  50.137  1.00  0.00     0.014 A 
HETATM    6  C8  UNL     1      21.618   3.630  48.907  1.00  0.00     0.001 A 
HETATM    7  C9  UNL     1      22.790   4.028  48.304  1.00  0.00     0.002 A 
HETATM    8  C10 UNL     1      24.037   3.815  48.891  1.00  0.00     0.030 A 
HETATM    9  C11 UNL     1      24.111   3.182  50.123  1.00  0.00     0.046 A 
HETATM   10  N1  UNL     1      25.119   2.841  50.929  1.00  0.00    -0.335 N 
HETATM   11  C12 UNL     1      26.493   3.124  50.579  1.00  0.00     0.158 C 
HETATM   12  C13 UNL     1      24.706   2.230  52.052  1.00  0.00     0.142 A 
HETATM   13  N2  UNL     1      25.323   1.722  53.131  1.00  0.00    -0.223 NA
HETATM   14  C14 UNL     1      26.506   1.124  53.112  1.00  0.00     0.234 C 
HETATM   15  N3  UNL     1      26.040  -0.047  52.645  1.00  0.00    -0.254 NA
HETATM   16  C15 UNL     1      25.511  -0.924  53.513  1.00  0.00     0.118 C 
HETATM   17  C16 UNL     1      24.361  -0.357  54.070  1.00  0.00     0.029 C 
HETATM   18  C17 UNL     1      22.969  -0.475  53.986  1.00  0.00    -0.025 C 
ENDROOT
BRANCH   1  19
HETATM   19  C2  UNL     1      20.754  -0.106  53.057  1.00  0.00     0.206 C 
BRANCH  19  20
HETATM   20  O1  UNL     1      20.328   0.102  51.752  1.00  0.00    -0.391 OA
HETATM   21  C1  UNL     1      18.920   0.055  51.783  1.00  0.00     0.201 C 
ENDBRANCH  19  20
ENDBRANCH   1  19
BRANCH  18  22
HETATM   22  C18 UNL     1      22.416  -1.630  54.703  1.00  0.00     0.203 C 
BRANCH  22  23
HETATM   23  O2  UNL     1      23.082  -1.894  55.918  1.00  0.00    -0.396 OA
HETATM   24  H19 UNL     1      23.931  -1.392  55.892  1.00  0.00     0.209 HD
ENDBRANCH  22  23
ENDBRANCH  18  22
TORSDOF 4
ENDMDL
MODEL 5
REMARK VINA RESULT:      -7.2      1.848      4.855
REMARK  4 active torsions:
REMARK  status: ('A' for Active; 'I' for Inactive)
REMARK    1  A    between atoms: O1_2  and  C2_3 
REMARK    2  A    between atoms: C2_3  and  C3_4 
REMARK    3  A    between atoms: C17_21  and  C18_22 
REMARK    4  A    between atoms: C18_22  and  O2_23 
ROOT
HETATM    1  C3  UNL     1      24.884   0.784  53.393  1.00  0.00    -0.025 C 
HETATM    2  C4  UNL     1      24.235   1.378  52.332  1.00  0.00     0.026 C 
HETATM    3  C5  UNL     1      23.014   1.992  52.144  1.00  0.00     0.023 A 
HETATM    4  C6  UNL     1      22.885   3.351  51.861  1.00  0.00     0.005 A 
HETATM    5  C7  UNL     1      23.805   4.392  51.689  1.00  0.00     0.014 A 
HETATM    6  C8  UNL     1      23.416   5.692  51.403  1.00  0.00     0.001 A 
HETATM    7  C9  UNL     1      22.065   5.930  51.294  1.00  0.00     0.002 A 
HETATM    8  C10 UNL     1      21.117   4.920  51.458  1.00  0.00     0.030 A 
HETATM    9  C11 UNL     1      21.539   3.629  51.743  1.00  0.00     0.046 A 
HETATM   10  N1  UNL     1      20.905   2.473  51.949  1.00  0.00    -0.335 N 
HETATM   11  C12 UNL     1      19.463   2.385  51.901  1.00  0.00     0.158 C 
HETATM   12  C13 UNL     1      21.744   1.453  52.196  1.00  0.00     0.142 A 
HETATM   13  N2  UNL     1      21.589   0.145  52.453  1.00  0.00    -0.223 NA
HETATM   14  C14 UNL     1      20.583  -0.375  53.143  1.00  0.00     0.234 C 
HETATM   15  N3  UNL     1      21.084  -0.047  54.347  1.00  0.00    -0.254 NA
HETATM   16  C15 UNL     1      22.000  -0.853  54.907  1.00  0.00     0.118 C 
HETATM   17  C16 UNL     1      23.146  -0.843  54.106  1.00  0.00     0.029 C 
HETATM   18  C17 UNL     1      24.442  -0.316  54.110  1.00  0.00    -0.025 C 
ENDROOT
BRANCH   1  19
HETATM   19  C2  UNL     1      26.162   1.372  53.796  1.00  0.00     0.206 C 
BRANCH  19  20
HETATM   20  O1  UNL     1      27.107   1.388  52.777  1.00  0.00    -0.391 OA
HETATM   21  C1  UNL     1      28.151   2.226  53.220  1.00  0.00     0.201 C 
ENDBRANCH  19  20
ENDBRANCH   1  19
BRANCH  18  22
HETATM   22  C18 UNL     1      25.385  -1.037  54.974  1.00  0.00     0.203 C 
BRANCH  22  23
HETATM   23  O2  UNL     1      24.886  -1.249  56.276  1.00  0.00    -0.396 OA
HETATM   24  H19 UNL     1      25.667  -1.401  56.859  1.00  0.00     0.209 HD
ENDBRANCH  22  23
ENDBRANCH  18  22
TORSDOF 4
ENDMDL
MODEL 6
REMARK VINA RESULT:      -7.1      2.218      4.702
REMARK  4 active torsions:
REMARK  status: ('A' for Active; 'I' for Inactive)
REMARK    1  A    between atoms: O1_2  and  C2_3 
REMARK    2  A    between atoms: C2_3  and  C3_4 
REMARK    3  A    between atoms: C17_21  and  C18_22 
REMARK    4  A    between atoms: C18_22  and  O2_23 
ROOT
HETATM    1  C3  UNL     1      22.465   2.690  50.232  1.00  0.00    -0.025 C 
HETATM    2  C4  UNL     1      23.157   2.511  51.411  1.00  0.00     0.026 C 
HETATM    3  C5  UNL     1      23.360   1.460  52.282  1.00  0.00     0.023 A 
HETATM    4  C6  UNL     1      24.605   0.863  52.471  1.00  0.00     0.005 A 
HETATM    5  C7  UNL     1      25.877   1.093  51.932  1.00  0.00     0.014 A 
HETATM    6  C8  UNL     1      26.987   0.344  52.293  1.00  0.00     0.001 A 
HETATM    7  C9  UNL     1      26.791  -0.657  53.219  1.00  0.00     0.002 A 
HETATM    8  C10 UNL     1      25.541  -0.916  53.778  1.00  0.00     0.030 A 
HETATM    9  C11 UNL     1      24.450  -0.148  53.396  1.00  0.00     0.046 A 
HETATM   10  N1  UNL     1      23.159  -0.141  53.735  1.00  0.00    -0.335 N 
HETATM   11  C12 UNL     1      22.628  -1.079  54.698  1.00  0.00     0.158 C 
HETATM   12  C13 UNL     1      22.456   0.807  53.095  1.00  0.00     0.142 A 
HETATM   13  N2  UNL     1      21.171   1.196  53.103  1.00  0.00    -0.223 NA
HETATM   14  C14 UNL     1      20.137   0.380  53.257  1.00  0.00     0.234 C 
HETATM   15  N3  UNL     1      20.147  -0.065  51.988  1.00  0.00    -0.254 NA
HETATM   16  C15 UNL     1      19.541   0.669  51.041  1.00  0.00     0.118 C 
HETATM   17  C16 UNL     1      20.218   1.887  50.924  1.00  0.00     0.029 C 
HETATM   18  C17 UNL     1      21.100   2.535  50.053  1.00  0.00    -0.025 C 
ENDROOT
BRANCH   1  19
HETATM   19  C2  UNL     1      23.250   3.085  49.061  1.00  0.00     0.206 C 
BRANCH  19  20
HETATM   20  O1  UNL     1      24.542   3.488  49.374  1.00  0.00    -0.391 OA
HETATM   21  C1  UNL     1      24.620   4.856  49.045  1.00  0.00     0.201 C 
ENDBRANCH  19  20
ENDBRANCH   1  19
BRANCH  18  22
HETATM   22  C18 UNL     1      20.466   3.084  48.849  1.00  0.00     0.203 C 
BRANCH  22  23
HETATM   23  O2  UNL     1      20.010   2.086  47.963  1.00  0.00    -0.396 OA
HETATM   24  H19 UNL     1      19.145   1.768  48.313  1.00  0.00     0.209 HD
ENDBRANCH  22  23
ENDBRANCH  18  22
TORSDOF 4
ENDMDL
MODEL 7
REMARK VINA RESULT:      -7.0      8.067     10.875
REMARK  4 active torsions:
REMARK  status: ('A' for Active; 'I' for Inactive)
REMARK    1  A    between atoms: O1_2  and  C2_3 
REMARK    2  A    between atoms: C2_3  and  C3_4 
REMARK    3  A    between atoms: C17_21  and  C18_22 
REMARK    4  A    between atoms: C18_22  and  O2_23 
ROOT
HETATM    1  C3  UNL     1      32.447   4.309  46.840  1.00  0.00    -0.025 C 
HETATM    2  C4  UNL     1      31.736   4.917  47.853  1.00  0.00     0.026 C 
HETATM    3  C5  UNL     1      30.975   6.062  47.970  1.00  0.00     0.023 A 
HETATM    4  C6  UNL     1      29.599   6.037  48.196  1.00  0.00     0.005 A 
HETATM    5  C7  UNL     1      28.668   5.005  48.364  1.00  0.00     0.014 A 
HETATM    6  C8  UNL     1      27.320   5.244  48.585  1.00  0.00     0.001 A 
HETATM    7  C9  UNL     1      26.920   6.561  48.634  1.00  0.00     0.002 A 
HETATM    8  C10 UNL     1      27.816   7.616  48.472  1.00  0.00     0.030 A 
HETATM    9  C11 UNL     1      29.159   7.342  48.253  1.00  0.00     0.046 A 
HETATM   10  N1  UNL     1      30.240   8.103  48.066  1.00  0.00    -0.335 N 
HETATM   11  C12 UNL     1      30.154   9.546  48.062  1.00  0.00     0.158 C 
HETATM   12  C13 UNL     1      31.361   7.384  47.890  1.00  0.00     0.142 A 
HETATM   13  N2  UNL     1      32.651   7.687  47.677  1.00  0.00    -0.223 NA
HETATM   14  C14 UNL     1      33.076   8.724  46.969  1.00  0.00     0.234 C 
HETATM   15  N3  UNL     1      32.862   8.148  45.774  1.00  0.00    -0.254 NA
HETATM   16  C15 UNL     1      33.794   7.316  45.280  1.00  0.00     0.118 C 
HETATM   17  C16 UNL     1      33.885   6.205  46.124  1.00  0.00     0.029 C 
HETATM   18  C17 UNL     1      33.516   4.855  46.149  1.00  0.00    -0.025 C 
ENDROOT
BRANCH   1  19
HETATM   19  C2  UNL     1      32.032   2.957  46.465  1.00  0.00     0.206 C 
BRANCH  19  20
HETATM   20  O1  UNL     1      32.672   1.961  47.192  1.00  0.00    -0.391 OA
HETATM   21  C1  UNL     1      32.135   0.738  46.746  1.00  0.00     0.201 C 
ENDBRANCH  19  20
ENDBRANCH   1  19
BRANCH  18  22
HETATM   22  C18 UNL     1      34.379   3.977  45.350  1.00  0.00     0.203 C 
BRANCH  22  23
HETATM   23  O2  UNL     1      35.323   3.275  46.129  1.00  0.00    -0.396 OA
HETATM   24  H19 UNL     1      36.084   3.070  45.536  1.00  0.00     0.209 HD
ENDBRANCH  22  23
ENDBRANCH  18  22
TORSDOF 4
ENDMDL
MODEL 8
REMARK VINA RESULT:      -6.9      2.509      5.001
REMARK  4 active torsions:
REMARK  status: ('A' for Active; 'I' for Inactive)
REMARK    1  A    between atoms: O1_2  and  C2_3 
REMARK    2  A    between atoms: C2_3  and  C3_4 
REMARK    3  A    between atoms: C17_21  and  C18_22 
REMARK    4  A    between atoms: C18_22  and  O2_23 
ROOT
HETATM    1  C3  UNL     1      21.606   1.217  52.366  1.00  0.00    -0.025 C 
HETATM    2  C4  UNL     1      22.872   0.811  52.001  1.00  0.00     0.026 C 
HETATM    3  C5  UNL     1      24.080   1.439  51.781  1.00  0.00     0.023 A 
HETATM    4  C6  UNL     1      25.194   1.245  52.597  1.00  0.00     0.005 A 
HETATM    5  C7  UNL     1      25.433   0.464  53.734  1.00  0.00     0.014 A 
HETATM    6  C8  UNL     1      26.660   0.441  54.380  1.00  0.00     0.001 A 
HETATM    7  C9  UNL     1      27.657   1.230  53.853  1.00  0.00     0.002 A 
HETATM    8  C10 UNL     1      27.460   2.021  52.722  1.00  0.00     0.030 A 
HETATM    9  C11 UNL     1      26.220   2.022  52.099  1.00  0.00     0.046 A 
HETATM   10  N1  UNL     1      25.722   2.647  51.030  1.00  0.00    -0.335 N 
HETATM   11  C12 UNL     1      26.526   3.557  50.247  1.00  0.00     0.158 C 
HETATM   12  C13 UNL     1      24.437   2.333  50.792  1.00  0.00     0.142 A 
HETATM   13  N2  UNL     1      23.535   2.691  49.865  1.00  0.00    -0.223 NA
HETATM   14  C14 UNL     1      23.456   3.894  49.314  1.00  0.00     0.234 C 
HETATM   15  N3  UNL     1      22.826   4.461  50.358  1.00  0.00    -0.254 NA
HETATM   16  C15 UNL     1      21.494   4.323  50.461  1.00  0.00     0.118 C 
HETATM   17  C16 UNL     1      21.203   2.969  50.650  1.00  0.00     0.029 C 
HETATM   18  C17 UNL     1      20.797   2.100  51.668  1.00  0.00    -0.025 C 
ENDROOT
BRANCH   1  19
HETATM   19  C2  UNL     1      21.067   0.658  53.606  1.00  0.00     0.206 C 
BRANCH  19  20
HETATM   20  O1  UNL     1      20.841  -0.711  53.542  1.00  0.00    -0.391 OA
HETATM   21  C1  UNL     1      21.519  -1.275  54.641  1.00  0.00     0.201 C 
ENDBRANCH  19  20
ENDBRANCH   1  19
BRANCH  18  22
HETATM   22  C18 UNL     1      19.366   2.170  51.989  1.00  0.00     0.203 C 
BRANCH  22  23
HETATM   23  O2  UNL     1      18.923   3.486  52.239  1.00  0.00    -0.396 OA
HETATM   24  H19 UNL     1      19.609   3.915  52.804  1.00  0.00     0.209 HD
ENDBRANCH  22  23
ENDBRANCH  18  22
TORSDOF 4
ENDMDL
MODEL 9
REMARK VINA RESULT:      -6.9      1.882      3.511
REMARK  4 active torsions:
REMARK  status: ('A' for Active; 'I' for Inactive)
REMARK    1  A    between atoms: O1_2  and  C2_3 
REMARK    2  A    between atoms: C2_3  and  C3_4 
REMARK    3  A    between atoms: C17_21  and  C18_22 
REMARK    4  A    between atoms: C18_22  and  O2_23 
ROOT
HETATM    1  C3  UNL     1      24.514   0.773  53.263  1.00  0.00    -0.025 C 
HETATM    2  C4  UNL     1      23.343   1.472  53.061  1.00  0.00     0.026 C 
HETATM    3  C5  UNL     1      22.694   2.007  51.968  1.00  0.00     0.023 A 
HETATM    4  C6  UNL     1      21.469   1.528  51.504  1.00  0.00     0.005 A 
HETATM    5  C7  UNL     1      20.612   0.505  51.927  1.00  0.00     0.014 A 
HETATM    6  C8  UNL     1      19.418   0.218  51.282  1.00  0.00     0.001 A 
HETATM    7  C9  UNL     1      19.098   0.989  50.187  1.00  0.00     0.002 A 
HETATM    8  C10 UNL     1      19.926   2.017  49.736  1.00  0.00     0.030 A 
HETATM    9  C11 UNL     1      21.114   2.279  50.403  1.00  0.00     0.046 A 
HETATM   10  N1  UNL     1      22.096   3.166  50.231  1.00  0.00    -0.335 N 
HETATM   11  C12 UNL     1      22.059   4.131  49.155  1.00  0.00     0.158 C 
HETATM   12  C13 UNL     1      23.073   3.048  51.145  1.00  0.00     0.142 A 
HETATM   13  N2  UNL     1      24.228   3.692  51.380  1.00  0.00    -0.223 NA
HETATM   14  C14 UNL     1      25.019   4.190  50.439  1.00  0.00     0.234 C 
HETATM   15  N3  UNL     1      25.573   3.009  50.113  1.00  0.00    -0.254 NA
HETATM   16  C15 UNL     1      26.595   2.548  50.853  1.00  0.00     0.118 C 
HETATM   17  C16 UNL     1      26.126   2.299  52.147  1.00  0.00     0.029 C 
HETATM   18  C17 UNL     1      25.793   1.216  52.968  1.00  0.00    -0.025 C 
ENDROOT
BRANCH   1  19
HETATM   19  C2  UNL     1      24.391  -0.562  53.849  1.00  0.00     0.206 C 
BRANCH  19  20
HETATM   20  O1  UNL     1      23.077  -1.003  53.946  1.00  0.00    -0.391 OA
HETATM   21  C1  UNL     1      22.882  -1.371  55.292  1.00  0.00     0.201 C 
ENDBRANCH  19  20
ENDBRANCH   1  19
BRANCH  18  22
HETATM   22  C18 UNL     1      26.947   0.517  53.545  1.00  0.00     0.203 C 
BRANCH  22  23
HETATM   23  O2  UNL     1      27.360   1.063  54.779  1.00  0.00    -0.396 OA
HETATM   24  H19 UNL     1      27.643   0.306  55.344  1.00  0.00     0.209 HD
ENDBRANCH  22  23
ENDBRANCH  18  22
TORSDOF 4
ENDMDL
