MODEL 1
REMARK VINA RESULT:      -7.9      0.000      0.000
REMARK  6 active torsions:
REMARK  status: ('A' for Active; 'I' for Inactive)
REMARK    1  A    between atoms: C2_2  and  P1_4 
REMARK    2  A    between atoms: C2_2  and  C4_5 
REMARK    3  A    between atoms: C7_8  and  C8_9 
REMARK    4  A    between atoms: C9_12  and  S1_13 
REMARK    5  A    between atoms: S1_13  and  C10_14 
REMARK    6  A    between atoms: C10_14  and  C11_15 
ROOT
HETATM    1  C8  UNL     1      21.137  -0.943  53.792  1.00  0.00     0.203 A 
HETATM    2  N1  UNL     1      21.271  -1.552  54.961  1.00  0.00    -0.120 NA
HETATM    3  N2  UNL     1      22.562  -1.520  55.308  1.00  0.00    -0.114 NA
HETATM    4  C9  UNL     1      23.209  -0.869  54.306  1.00  0.00     0.231 A 
HETATM    5  O1  UNL     1      22.325  -0.516  53.374  1.00  0.00    -0.263 OA
ENDROOT
BRANCH   1   6
HETATM    6  C7  UNL     1      19.879  -0.772  53.081  1.00  0.00     0.019 A 
HETATM    7  C6  UNL     1      18.732  -1.465  53.462  1.00  0.00     0.016 A 
HETATM    8  C5  UNL     1      17.500  -1.367  52.850  1.00  0.00     0.009 A 
HETATM    9  C4  UNL     1      17.398  -0.509  51.767  1.00  0.00    -0.046 A 
HETATM   10  C17 UNL     1      18.506   0.209  51.340  1.00  0.00     0.009 A 
HETATM   11  C16 UNL     1      19.730   0.071  51.999  1.00  0.00     0.016 A 
BRANCH   9  12
HETATM   12  C2  UNL     1      16.056  -0.411  51.111  1.00  0.00    -0.003 C 
HETATM   13  C1  UNL     1      15.227  -1.626  51.544  1.00  0.00     0.025 C 
HETATM   14  C3  UNL     1      16.217  -0.550  49.608  1.00  0.00     0.025 C 
BRANCH  12  15
HETATM   15  P1  UNL     1      15.185   1.166  51.481  1.00  0.00    -0.128 P 
HETATM   16  H7  UNL     1      15.650   2.219  50.591  1.00  0.00     0.055 HD
HETATM   17  H8  UNL     1      13.743   0.978  51.409  1.00  0.00     0.055 HD
ENDBRANCH  12  15
ENDBRANCH   9  12
ENDBRANCH   1   6
BRANCH   4  18
HETATM   18  S1  UNL     1      24.974  -0.673  54.499  1.00  0.00    -0.077 SA
BRANCH  18  19
HETATM   19  C10 UNL     1      25.835  -0.525  52.924  1.00  0.00     0.139 C 
BRANCH  19  20
HETATM   20  C11 UNL     1      27.285  -0.771  53.157  1.00  0.00     0.015 A 
HETATM   21  C12 UNL     1      28.096   0.248  53.415  1.00  0.00     0.025 A 
HETATM   22  C13 UNL     1      29.531   0.174  53.665  1.00  0.00    -0.001 A 
HETATM   23  C14 UNL     1      30.034  -1.040  53.622  1.00  0.00    -0.007 A 
HETATM   24  C15 UNL     1      29.291  -2.283  53.352  1.00  0.00     0.147 A 
HETATM   25  N3  UNL     1      27.878  -2.040  53.123  1.00  0.00    -0.389 N 
HETATM   26  H18 UNL     1      27.297  -2.882  52.927  1.00  0.00     0.159 HD
ENDBRANCH  19  20
ENDBRANCH  18  19
ENDBRANCH   4  18
TORSDOF 6
ENDMDL
MODEL 2
REMARK VINA RESULT:      -7.8      6.214      8.580
REMARK  6 active torsions:
REMARK  status: ('A' for Active; 'I' for Inactive)
REMARK    1  A    between atoms: C2_2  and  P1_4 
REMARK    2  A    between atoms: C2_2  and  C4_5 
REMARK    3  A    between atoms: C7_8  and  C8_9 
REMARK    4  A    between atoms: C9_12  and  S1_13 
REMARK    5  A    between atoms: S1_13  and  C10_14 
REMARK    6  A    between atoms: C10_14  and  C11_15 
ROOT
HETATM    1  C8  UNL     1      25.074   2.875  50.746  1.00  0.00     0.203 A 
HETATM    2  N1  UNL     1      23.799   2.538  50.628  1.00  0.00    -0.120 NA
HETATM    3  N2  UNL     1      23.574   1.465  51.393  1.00  0.00    -0.114 NA
HETATM    4  C9  UNL     1      24.761   1.161  51.981  1.00  0.00     0.231 A 
HETATM    5  O1  UNL     1      25.682   2.034  51.578  1.00  0.00    -0.263 OA
ENDROOT
BRANCH   1   6
HETATM    6  C7  UNL     1      25.706   3.996  50.066  1.00  0.00     0.019 A 
HETATM    7  C6  UNL     1      25.171   5.281  50.137  1.00  0.00     0.016 A 
HETATM    8  C5  UNL     1      25.699   6.400  49.527  1.00  0.00     0.009 A 
HETATM    9  C4  UNL     1      26.855   6.229  48.783  1.00  0.00    -0.046 A 
HETATM   10  C17 UNL     1      27.434   4.973  48.675  1.00  0.00     0.009 A 
HETATM   11  C16 UNL     1      26.856   3.874  49.314  1.00  0.00     0.016 A 
BRANCH   9  12
HETATM   12  C2  UNL     1      27.417   7.451  48.126  1.00  0.00    -0.003 C 
HETATM   13  C1  UNL     1      26.448   7.882  47.019  1.00  0.00     0.025 C 
HETATM   14  C3  UNL     1      28.708   7.093  47.414  1.00  0.00     0.025 C 
BRANCH  12  15
HETATM   15  P1  UNL     1      27.742   8.821  49.309  1.00  0.00    -0.128 P 
HETATM   16  H7  UNL     1      26.495   9.289  49.893  1.00  0.00     0.055 HD
HETATM   17  H8  UNL     1      28.703   8.403  50.320  1.00  0.00     0.055 HD
ENDBRANCH  12  15
ENDBRANCH   9  12
ENDBRANCH   1   6
BRANCH   4  18
HETATM   18  S1  UNL     1      24.764  -0.250  53.077  1.00  0.00    -0.077 SA
BRANCH  18  19
HETATM   19  C10 UNL     1      25.660   0.059  54.608  1.00  0.00     0.139 C 
BRANCH  19  20
HETATM   20  C11 UNL     1      27.062   0.425  54.264  1.00  0.00     0.015 A 
HETATM   21  C12 UNL     1      27.946  -0.526  53.985  1.00  0.00     0.025 A 
HETATM   22  C13 UNL     1      29.347  -0.332  53.632  1.00  0.00    -0.001 A 
HETATM   23  C14 UNL     1      29.737   0.924  53.598  1.00  0.00    -0.007 A 
HETATM   24  C15 UNL     1      28.901   2.104  53.876  1.00  0.00     0.147 A 
HETATM   25  N3  UNL     1      27.535   1.744  54.212  1.00  0.00    -0.389 N 
HETATM   26  H18 UNL     1      26.892   2.537  54.420  1.00  0.00     0.159 HD
ENDBRANCH  19  20
ENDBRANCH  18  19
ENDBRANCH   4  18
TORSDOF 6
ENDMDL
MODEL 3
REMARK VINA RESULT:      -7.6      7.124      9.859
REMARK  6 active torsions:
REMARK  status: ('A' for Active; 'I' for Inactive)
REMARK    1  A    between atoms: C2_2  and  P1_4 
REMARK    2  A    between atoms: C2_2  and  C4_5 
REMARK    3  A    between atoms: C7_8  and  C8_9 
REMARK    4  A    between atoms: C9_12  and  S1_13 
REMARK    5  A    between atoms: S1_13  and  C10_14 
REMARK    6  A    between atoms: C10_14  and  C11_15 
ROOT
HETATM    1  C8  UNL     1      25.512   4.001  49.782  1.00  0.00     0.203 A 
HETATM    2  N1  UNL     1      24.296   3.723  49.336  1.00  0.00    -0.120 NA
HETATM    3  N2  UNL     1      23.788   2.736  50.082  1.00  0.00    -0.114 NA
HETATM    4  C9  UNL     1      24.741   2.425  51.000  1.00  0.00     0.231 A 
HETATM    5  O1  UNL     1      25.801   3.208  50.810  1.00  0.00    -0.263 OA
ENDROOT
BRANCH   1   6
HETATM    6  C7  UNL     1      26.390   5.021  49.229  1.00  0.00     0.019 A 
HETATM    7  C6  UNL     1      27.658   4.702  48.748  1.00  0.00     0.016 A 
HETATM    8  C5  UNL     1      28.556   5.599  48.208  1.00  0.00     0.009 A 
HETATM    9  C4  UNL     1      28.163   6.925  48.140  1.00  0.00    -0.046 A 
HETATM   10  C17 UNL     1      26.911   7.305  48.603  1.00  0.00     0.009 A 
HETATM   11  C16 UNL     1      26.041   6.354  49.141  1.00  0.00     0.016 A 
BRANCH   9  12
HETATM   12  C2  UNL     1      29.146   7.888  47.553  1.00  0.00    -0.003 C 
HETATM   13  C1  UNL     1      28.524   8.488  46.286  1.00  0.00     0.025 C 
HETATM   14  C3  UNL     1      30.374   7.133  47.079  1.00  0.00     0.025 C 
BRANCH  12  15
HETATM   15  P1  UNL     1      29.664   9.200  48.734  1.00  0.00    -0.128 P 
HETATM   16  H7  UNL     1      28.747   9.254  49.862  1.00  0.00     0.055 HD
HETATM   17  H8  UNL     1      31.043   8.990  49.152  1.00  0.00     0.055 HD
ENDBRANCH  12  15
ENDBRANCH   9  12
ENDBRANCH   1   6
BRANCH   4  18
HETATM   18  S1  UNL     1      24.336   1.119  52.151  1.00  0.00    -0.077 SA
BRANCH  18  19
HETATM   19  C10 UNL     1      24.880   1.477  53.829  1.00  0.00     0.139 C 
BRANCH  19  20
HETATM   20  C11 UNL     1      26.365   1.382  53.871  1.00  0.00     0.015 A 
HETATM   21  C12 UNL     1      26.949   0.198  54.018  1.00  0.00     0.025 A 
HETATM   22  C13 UNL     1      28.382  -0.062  54.078  1.00  0.00    -0.001 A 
HETATM   23  C14 UNL     1      29.140   1.008  53.970  1.00  0.00    -0.007 A 
HETATM   24  C15 UNL     1      28.671   2.394  53.801  1.00  0.00     0.147 A 
HETATM   25  N3  UNL     1      27.223   2.485  53.762  1.00  0.00    -0.389 N 
HETATM   26  H18 UNL     1      26.829   3.442  53.644  1.00  0.00     0.159 HD
ENDBRANCH  19  20
ENDBRANCH  18  19
ENDBRANCH   4  18
TORSDOF 6
ENDMDL
MODEL 4
REMARK VINA RESULT:      -7.4      7.364     10.228
REMARK  6 active torsions:
REMARK  status: ('A' for Active; 'I' for Inactive)
REMARK    1  A    between atoms: C2_2  and  P1_4 
REMARK    2  A    between atoms: C2_2  and  C4_5 
REMARK    3  A    between atoms: C7_8  and  C8_9 
REMARK    4  A    between atoms: C9_12  and  S1_13 
REMARK    5  A    between atoms: S1_13  and  C10_14 
REMARK    6  A    between atoms: C10_14  and  C11_15 
ROOT
HETATM    1  C8  UNL     1      25.289   4.499  49.381  1.00  0.00     0.203 A 
HETATM    2  N1  UNL     1      24.025   4.840  49.176  1.00  0.00    -0.120 NA
HETATM    3  N2  UNL     1      23.242   3.943  49.783  1.00  0.00    -0.114 NA
HETATM    4  C9  UNL     1      24.076   3.041  50.365  1.00  0.00     0.231 A 
HETATM    5  O1  UNL     1      25.336   3.390  50.114  1.00  0.00    -0.263 OA
ENDROOT
BRANCH   1   6
HETATM    6  C7  UNL     1      26.442   5.231  48.879  1.00  0.00     0.019 A 
HETATM    7  C6  UNL     1      26.348   6.575  48.526  1.00  0.00     0.016 A 
HETATM    8  C5  UNL     1      27.384   7.347  48.042  1.00  0.00     0.009 A 
HETATM    9  C4  UNL     1      28.617   6.733  47.897  1.00  0.00    -0.046 A 
HETATM   10  C17 UNL     1      28.773   5.395  48.232  1.00  0.00     0.009 A 
HETATM   11  C16 UNL     1      27.688   4.661  48.718  1.00  0.00     0.016 A 
BRANCH   9  12
HETATM   12  C2  UNL     1      29.732   7.581  47.371  1.00  0.00    -0.003 C 
HETATM   13  C1  UNL     1      29.347   8.053  45.964  1.00  0.00     0.025 C 
HETATM   14  C3  UNL     1      30.972   6.726  47.182  1.00  0.00     0.025 C 
BRANCH  12  15
HETATM   15  P1  UNL     1      30.140   8.999  48.469  1.00  0.00    -0.128 P 
HETATM   16  H7  UNL     1      29.172  10.070  48.289  1.00  0.00     0.055 HD
HETATM   17  H8  UNL     1      30.227   8.560  49.854  1.00  0.00     0.055 HD
ENDBRANCH  12  15
ENDBRANCH   9  12
ENDBRANCH   1   6
BRANCH   4  18
HETATM   18  S1  UNL     1      23.298   1.706  51.261  1.00  0.00    -0.077 SA
BRANCH  18  19
HETATM   19  C10 UNL     1      23.832   1.616  52.978  1.00  0.00     0.139 C 
BRANCH  19  20
HETATM   20  C11 UNL     1      25.299   1.361  53.000  1.00  0.00     0.015 A 
HETATM   21  C12 UNL     1      25.756   0.116  52.936  1.00  0.00     0.025 A 
HETATM   22  C13 UNL     1      27.155  -0.297  52.946  1.00  0.00    -0.001 A 
HETATM   23  C14 UNL     1      28.019   0.691  53.028  1.00  0.00    -0.007 A 
HETATM   24  C15 UNL     1      27.697   2.126  53.107  1.00  0.00     0.147 A 
HETATM   25  N3  UNL     1      26.267   2.371  53.087  1.00  0.00    -0.389 N 
HETATM   26  H18 UNL     1      25.975   3.370  53.140  1.00  0.00     0.159 HD
ENDBRANCH  19  20
ENDBRANCH  18  19
ENDBRANCH   4  18
TORSDOF 6
ENDMDL
MODEL 5
REMARK VINA RESULT:      -7.3      7.429     10.584
REMARK  6 active torsions:
REMARK  status: ('A' for Active; 'I' for Inactive)
REMARK    1  A    between atoms: C2_2  and  P1_4 
REMARK    2  A    between atoms: C2_2  and  C4_5 
REMARK    3  A    between atoms: C7_8  and  C8_9 
REMARK    4  A    between atoms: C9_12  and  S1_13 
REMARK    5  A    between atoms: S1_13  and  C10_14 
REMARK    6  A    between atoms: C10_14  and  C11_15 
ROOT
HETATM    1  C8  UNL     1      26.383   4.190  49.644  1.00  0.00     0.203 A 
HETATM    2  N1  UNL     1      25.099   3.877  49.738  1.00  0.00    -0.120 NA
HETATM    3  N2  UNL     1      24.985   2.786  50.502  1.00  0.00    -0.114 NA
HETATM    4  C9  UNL     1      26.249   2.446  50.870  1.00  0.00     0.231 A 
HETATM    5  O1  UNL     1      27.106   3.315  50.338  1.00  0.00    -0.263 OA
ENDROOT
BRANCH   1   6
HETATM    6  C7  UNL     1      26.913   5.319  48.895  1.00  0.00     0.019 A 
HETATM    7  C6  UNL     1      28.242   5.353  48.480  1.00  0.00     0.016 A 
HETATM    8  C5  UNL     1      28.831   6.378  47.769  1.00  0.00     0.009 A 
HETATM    9  C4  UNL     1      28.033   7.462  47.443  1.00  0.00    -0.046 A 
HETATM   10  C17 UNL     1      26.700   7.487  47.829  1.00  0.00     0.009 A 
HETATM   11  C16 UNL     1      26.156   6.420  48.548  1.00  0.00     0.016 A 
BRANCH   9  12
HETATM   12  C2  UNL     1      28.683   8.567  46.673  1.00  0.00    -0.003 C 
HETATM   13  C1  UNL     1      28.432   8.317  45.181  1.00  0.00     0.025 C 
HETATM   14  C3  UNL     1      30.188   8.488  46.846  1.00  0.00     0.025 C 
BRANCH  12  15
HETATM   15  P1  UNL     1      28.105  10.238  47.181  1.00  0.00    -0.128 P 
HETATM   16  H7  UNL     1      29.187  11.203  47.060  1.00  0.00     0.055 HD
HETATM   17  H8  UNL     1      26.930  10.625  46.413  1.00  0.00     0.055 HD
ENDBRANCH  12  15
ENDBRANCH   9  12
ENDBRANCH   1   6
BRANCH   4  18
HETATM   18  S1  UNL     1      26.409   1.003  51.912  1.00  0.00    -0.077 SA
BRANCH  18  19
HETATM   19  C10 UNL     1      25.484   1.148  53.450  1.00  0.00     0.139 C 
BRANCH  19  20
HETATM   20  C11 UNL     1      24.078   0.729  53.192  1.00  0.00     0.015 A 
HETATM   21  C12 UNL     1      23.677  -0.490  53.534  1.00  0.00     0.025 A 
HETATM   22  C13 UNL     1      22.343  -1.049  53.351  1.00  0.00    -0.001 A 
HETATM   23  C14 UNL     1      21.478  -0.233  52.787  1.00  0.00    -0.007 A 
HETATM   24  C15 UNL     1      21.742   1.147  52.344  1.00  0.00     0.147 A 
HETATM   25  N3  UNL     1      23.113   1.552  52.595  1.00  0.00    -0.389 N 
HETATM   26  H18 UNL     1      23.363   2.521  52.304  1.00  0.00     0.159 HD
ENDBRANCH  19  20
ENDBRANCH  18  19
ENDBRANCH   4  18
TORSDOF 6
ENDMDL
MODEL 6
REMARK VINA RESULT:      -7.3      4.393      9.176
REMARK  6 active torsions:
REMARK  status: ('A' for Active; 'I' for Inactive)
REMARK    1  A    between atoms: C2_2  and  P1_4 
REMARK    2  A    between atoms: C2_2  and  C4_5 
REMARK    3  A    between atoms: C7_8  and  C8_9 
REMARK    4  A    between atoms: C9_12  and  S1_13 
REMARK    5  A    between atoms: S1_13  and  C10_14 
REMARK    6  A    between atoms: C10_14  and  C11_15 
ROOT
HETATM    1  C8  UNL     1      20.850   0.721  51.193  1.00  0.00     0.203 A 
HETATM    2  N1  UNL     1      20.576   1.458  50.127  1.00  0.00    -0.120 NA
HETATM    3  N2  UNL     1      19.269   1.351  49.865  1.00  0.00    -0.114 NA
HETATM    4  C9  UNL     1      18.758   0.521  50.812  1.00  0.00     0.231 A 
HETATM    5  O1  UNL     1      19.737   0.136  51.628  1.00  0.00    -0.263 OA
ENDROOT
BRANCH   1   6
HETATM    6  C7  UNL     1      22.168   0.579  51.792  1.00  0.00     0.019 A 
HETATM    7  C6  UNL     1      23.240   1.367  51.378  1.00  0.00     0.016 A 
HETATM    8  C5  UNL     1      24.521   1.302  51.885  1.00  0.00     0.009 A 
HETATM    9  C4  UNL     1      24.759   0.377  52.888  1.00  0.00    -0.046 A 
HETATM   10  C17 UNL     1      23.731  -0.437  53.343  1.00  0.00     0.009 A 
HETATM   11  C16 UNL     1      22.452  -0.328  52.793  1.00  0.00     0.016 A 
BRANCH   9  12
HETATM   12  C2  UNL     1      26.152   0.316  53.430  1.00  0.00    -0.003 C 
HETATM   13  C1  UNL     1      26.857  -0.886  52.792  1.00  0.00     0.025 C 
HETATM   14  C3  UNL     1      26.105   0.013  54.916  1.00  0.00     0.025 C 
BRANCH  12  15
HETATM   15  P1  UNL     1      27.099   1.871  53.163  1.00  0.00    -0.128 P 
HETATM   16  H7  UNL     1      28.473   1.707  53.609  1.00  0.00     0.055 HD
HETATM   17  H8  UNL     1      27.015   2.283  51.769  1.00  0.00     0.055 HD
ENDBRANCH  12  15
ENDBRANCH   9  12
ENDBRANCH   1   6
BRANCH   4  18
HETATM   18  S1  UNL     1      17.005   0.190  50.712  1.00  0.00    -0.077 SA
BRANCH  18  19
HETATM   19  C10 UNL     1      16.243  -0.026  52.329  1.00  0.00     0.139 C 
BRANCH  19  20
HETATM   20  C11 UNL     1      16.382  -1.455  52.725  1.00  0.00     0.015 A 
HETATM   21  C12 UNL     1      17.501  -1.876  53.303  1.00  0.00     0.025 A 
HETATM   22  C13 UNL     1      17.791  -3.235  53.747  1.00  0.00    -0.001 A 
HETATM   23  C14 UNL     1      16.822  -4.100  53.537  1.00  0.00    -0.007 A 
HETATM   24  C15 UNL     1      15.519  -3.814  52.914  1.00  0.00     0.147 A 
HETATM   25  N3  UNL     1      15.387  -2.421  52.528  1.00  0.00    -0.389 N 
HETATM   26  H18 UNL     1      14.484  -2.156  52.080  1.00  0.00     0.159 HD
ENDBRANCH  19  20
ENDBRANCH  18  19
ENDBRANCH   4  18
TORSDOF 6
ENDMDL
MODEL 7
REMARK VINA RESULT:      -7.2      5.189     10.547
REMARK  6 active torsions:
REMARK  status: ('A' for Active; 'I' for Inactive)
REMARK    1  A    between atoms: C2_2  and  P1_4 
REMARK    2  A    between atoms: C2_2  and  C4_5 
REMARK    3  A    between atoms: C7_8  and  C8_9 
REMARK    4  A    between atoms: C9_12  and  S1_13 
REMARK    5  A    between atoms: S1_13  and  C10_14 
REMARK    6  A    between atoms: C10_14  and  C11_15 
ROOT
HETATM    1  C8  UNL     1      20.763   2.228  52.321  1.00  0.00     0.203 A 
HETATM    2  N1  UNL     1      20.368   3.485  52.450  1.00  0.00    -0.120 NA
HETATM    3  N2  UNL     1      19.076   3.559  52.112  1.00  0.00    -0.114 NA
HETATM    4  C9  UNL     1      18.700   2.298  51.772  1.00  0.00     0.231 A 
HETATM    5  O1  UNL     1      19.744   1.482  51.903  1.00  0.00    -0.263 OA
ENDROOT
BRANCH   1   6
HETATM    6  C7  UNL     1      22.107   1.744  52.597  1.00  0.00     0.019 A 
HETATM    7  C6  UNL     1      23.206   2.600  52.563  1.00  0.00     0.016 A 
HETATM    8  C5  UNL     1      24.512   2.232  52.809  1.00  0.00     0.009 A 
HETATM    9  C4  UNL     1      24.748   0.902  53.116  1.00  0.00    -0.046 A 
HETATM   10  C17 UNL     1      23.694   0.001  53.165  1.00  0.00     0.009 A 
HETATM   11  C16 UNL     1      22.390   0.429  52.906  1.00  0.00     0.016 A 
BRANCH   9  12
HETATM   12  C2  UNL     1      26.169   0.515  53.380  1.00  0.00    -0.003 C 
HETATM   13  C1  UNL     1      26.486  -0.729  52.543  1.00  0.00     0.025 C 
HETATM   14  C3  UNL     1      26.313   0.075  54.825  1.00  0.00     0.025 C 
BRANCH  12  15
HETATM   15  P1  UNL     1      27.362   1.875  53.044  1.00  0.00    -0.128 P 
HETATM   16  H7  UNL     1      26.726   2.919  52.255  1.00  0.00     0.055 HD
HETATM   17  H8  UNL     1      27.916   2.384  54.291  1.00  0.00     0.055 HD
ENDBRANCH  12  15
ENDBRANCH   9  12
ENDBRANCH   1   6
BRANCH   4  18
HETATM   18  S1  UNL     1      16.998   2.087  51.269  1.00  0.00    -0.077 SA
BRANCH  18  19
HETATM   19  C10 UNL     1      16.235   3.628  50.733  1.00  0.00     0.139 C 
BRANCH  19  20
HETATM   20  C11 UNL     1      15.111   3.941  51.659  1.00  0.00     0.015 A 
HETATM   21  C12 UNL     1      13.876   4.059  51.185  1.00  0.00     0.025 A 
HETATM   22  C13 UNL     1      12.676   4.360  51.956  1.00  0.00    -0.001 A 
HETATM   23  C14 UNL     1      12.878   4.524  53.246  1.00  0.00    -0.007 A 
HETATM   24  C15 UNL     1      14.171   4.431  53.944  1.00  0.00     0.147 A 
HETATM   25  N3  UNL     1      15.264   4.126  53.039  1.00  0.00    -0.389 N 
HETATM   26  H18 UNL     1      16.208   4.047  53.475  1.00  0.00     0.159 HD
ENDBRANCH  19  20
ENDBRANCH  18  19
ENDBRANCH   4  18
TORSDOF 6
ENDMDL
MODEL 8
REMARK VINA RESULT:      -7.2      6.546      8.084
REMARK  6 active torsions:
REMARK  status: ('A' for Active; 'I' for Inactive)
REMARK    1  A    between atoms: C2_2  and  P1_4 
REMARK    2  A    between atoms: C2_2  and  C4_5 
REMARK    3  A    between atoms: C7_8  and  C8_9 
REMARK    4  A    between atoms: C9_12  and  S1_13 
REMARK    5  A    between atoms: S1_13  and  C10_14 
REMARK    6  A    between atoms: C10_14  and  C11_15 
ROOT
HETATM    1  C8  UNL     1      25.755   3.701  50.355  1.00  0.00     0.203 A 
HETATM    2  N1  UNL     1      26.950   3.135  50.436  1.00  0.00    -0.120 NA
HETATM    3  N2  UNL     1      26.888   2.148  51.337  1.00  0.00    -0.114 NA
HETATM    4  C9  UNL     1      25.610   2.135  51.800  1.00  0.00     0.231 A 
HETATM    5  O1  UNL     1      24.917   3.095  51.191  1.00  0.00    -0.263 OA
ENDROOT
BRANCH   1   6
HETATM    6  C7  UNL     1      25.419   4.815  49.481  1.00  0.00     0.019 A 
HETATM    7  C6  UNL     1      24.123   4.996  49.004  1.00  0.00     0.016 A 
HETATM    8  C5  UNL     1      23.713   6.018  48.174  1.00  0.00     0.009 A 
HETATM    9  C4  UNL     1      24.671   6.939  47.783  1.00  0.00    -0.046 A 
HETATM   10  C17 UNL     1      25.980   6.812  48.225  1.00  0.00     0.009 A 
HETATM   11  C16 UNL     1      26.339   5.756  49.066  1.00  0.00     0.016 A 
BRANCH   9  12
HETATM   12  C2  UNL     1      24.214   8.043  46.882  1.00  0.00    -0.003 C 
HETATM   13  C1  UNL     1      23.319   7.431  45.798  1.00  0.00     0.025 C 
HETATM   14  C3  UNL     1      25.407   8.618  46.141  1.00  0.00     0.025 C 
BRANCH  12  15
HETATM   15  P1  UNL     1      23.353   9.398  47.781  1.00  0.00    -0.128 P 
HETATM   16  H7  UNL     1      23.115   9.014  49.163  1.00  0.00     0.055 HD
HETATM   17  H8  UNL     1      24.109  10.638  47.674  1.00  0.00     0.055 HD
ENDBRANCH  12  15
ENDBRANCH   9  12
ENDBRANCH   1   6
BRANCH   4  18
HETATM   18  S1  UNL     1      25.227   0.901  53.033  1.00  0.00    -0.077 SA
BRANCH  18  19
HETATM   19  C10 UNL     1      26.485   0.786  54.317  1.00  0.00     0.139 C 
BRANCH  19  20
HETATM   20  C11 UNL     1      27.468  -0.259  53.918  1.00  0.00     0.015 A 
HETATM   21  C12 UNL     1      28.767  -0.050  54.100  1.00  0.00     0.025 A 
HETATM   22  C13 UNL     1      29.849  -0.968  53.764  1.00  0.00    -0.001 A 
HETATM   23  C14 UNL     1      29.459  -2.105  53.230  1.00  0.00    -0.007 A 
HETATM   24  C15 UNL     1      28.069  -2.509  52.956  1.00  0.00     0.147 A 
HETATM   25  N3  UNL     1      27.113  -1.488  53.345  1.00  0.00    -0.389 N 
HETATM   26  H18 UNL     1      26.110  -1.715  53.176  1.00  0.00     0.159 HD
ENDBRANCH  19  20
ENDBRANCH  18  19
ENDBRANCH   4  18
TORSDOF 6
ENDMDL
MODEL 9
REMARK VINA RESULT:      -7.2      3.989      9.496
REMARK  6 active torsions:
REMARK  status: ('A' for Active; 'I' for Inactive)
REMARK    1  A    between atoms: C2_2  and  P1_4 
REMARK    2  A    between atoms: C2_2  and  C4_5 
REMARK    3  A    between atoms: C7_8  and  C8_9 
REMARK    4  A    between atoms: C9_12  and  S1_13 
REMARK    5  A    between atoms: S1_13  and  C10_14 
REMARK    6  A    between atoms: C10_14  and  C11_15 
ROOT
HETATM    1  C8  UNL     1      20.524  -0.196  52.668  1.00  0.00     0.203 A 
HETATM    2  N1  UNL     1      19.793  -0.781  53.605  1.00  0.00    -0.120 NA
HETATM    3  N2  UNL     1      18.519  -0.796  53.199  1.00  0.00    -0.114 NA
HETATM    4  C9  UNL     1      18.502  -0.196  51.980  1.00  0.00     0.231 A 
HETATM    5  O1  UNL     1      19.740   0.171  51.658  1.00  0.00    -0.263 OA
ENDROOT
BRANCH   1   6
HETATM    6  C7  UNL     1      21.962   0.010  52.741  1.00  0.00     0.019 A 
HETATM    7  C6  UNL     1      22.752  -0.706  53.638  1.00  0.00     0.016 A 
HETATM    8  C5  UNL     1      24.118  -0.577  53.777  1.00  0.00     0.009 A 
HETATM    9  C4  UNL     1      24.755   0.339  52.956  1.00  0.00    -0.046 A 
HETATM   10  C17 UNL     1      24.022   1.082  52.042  1.00  0.00     0.009 A 
HETATM   11  C16 UNL     1      22.639   0.911  51.944  1.00  0.00     0.016 A 
BRANCH   9  12
HETATM   12  C2  UNL     1      26.237   0.469  53.117  1.00  0.00    -0.003 C 
HETATM   13  C1  UNL     1      26.888  -0.801  52.558  1.00  0.00     0.025 C 
HETATM   14  C3  UNL     1      26.587   0.483  54.594  1.00  0.00     0.025 C 
BRANCH  12  15
HETATM   15  P1  UNL     1      26.919   1.982  52.322  1.00  0.00    -0.128 P 
HETATM   16  H7  UNL     1      26.457   3.170  53.022  1.00  0.00     0.055 HD
HETATM   17  H8  UNL     1      28.372   1.909  52.256  1.00  0.00     0.055 HD
ENDBRANCH  12  15
ENDBRANCH   9  12
ENDBRANCH   1   6
BRANCH   4  18
HETATM   18  S1  UNL     1      16.908  -0.071  51.182  1.00  0.00    -0.077 SA
BRANCH  18  19
HETATM   19  C10 UNL     1      15.551  -0.570  52.254  1.00  0.00     0.139 C 
BRANCH  19  20
HETATM   20  C11 UNL     1      15.456  -2.056  52.228  1.00  0.00     0.015 A 
HETATM   21  C12 UNL     1      14.709  -2.656  51.309  1.00  0.00     0.025 A 
HETATM   22  C13 UNL     1      14.513  -4.093  51.151  1.00  0.00    -0.001 A 
HETATM   23  C14 UNL     1      15.158  -4.834  52.025  1.00  0.00    -0.007 A 
HETATM   24  C15 UNL     1      16.028  -4.347  53.109  1.00  0.00     0.147 A 
HETATM   25  N3  UNL     1      16.118  -2.898  53.132  1.00  0.00    -0.389 N 
HETATM   26  H18 UNL     1      16.721  -2.491  53.879  1.00  0.00     0.159 HD
ENDBRANCH  19  20
ENDBRANCH  18  19
ENDBRANCH   4  18
TORSDOF 6
ENDMDL
