MODEL 1
REMARK VINA RESULT:      -8.8      0.000      0.000
REMARK  1 active torsions:
REMARK  status: ('A' for Active; 'I' for Inactive)
REMARK    1  A    between atoms: C7_11  and  N5_12 
ROOT
HETATM    1  C1  UNL     1      21.886   3.354  52.167  1.00  0.00     0.038 C 
HETATM    2  C2  UNL     1      21.382   2.125  52.148  1.00  0.00     0.005 C 
HETATM    3  N1  UNL     1      19.969   2.064  52.441  1.00  0.00    -0.375 N 
HETATM    4  C3  UNL     1      18.997   1.040  52.118  1.00  0.00     0.269 C 
HETATM    5  N2  UNL     1      19.279  -0.141  52.870  1.00  0.00    -0.280 NA
HETATM    6  C4  UNL     1      20.206  -0.806  53.458  1.00  0.00     0.144 C 
HETATM    7  C5  UNL     1      21.653  -0.538  53.607  1.00  0.00     0.086 A 
HETATM    8  N3  UNL     1      22.039  -1.275  54.645  1.00  0.00    -0.240 NA
HETATM    9  C6  UNL     1      23.301  -1.268  55.065  1.00  0.00     0.236 A 
HETATM   10  N4  UNL     1      24.147  -0.479  54.383  1.00  0.00    -0.224 NA
HETATM   11  C7  UNL     1      23.823   0.290  53.328  1.00  0.00     0.137 A 
HETATM   12  C15 UNL     1      22.558   0.259  52.932  1.00  0.00     0.027 A 
HETATM   13  C16 UNL     1      22.467   1.103  51.816  1.00  0.00     0.069 C 
HETATM   14  C17 UNL     1      23.406   1.738  50.985  1.00  0.00     0.021 C 
HETATM   15  H3  UNL     1      19.657   2.925  52.969  1.00  0.00     0.161 HD
ENDROOT
BRANCH  11  16
HETATM   16  N5  UNL     1      25.037   0.951  53.031  1.00  0.00    -0.357 N 
HETATM   17  C8  UNL     1      25.719   2.101  53.687  1.00  0.00     0.153 C 
HETATM   18  C9  UNL     1      26.944   1.550  54.368  1.00  0.00     0.013 C 
HETATM   19  C10 UNL     1      27.593   0.486  53.835  1.00  0.00     0.015 C 
HETATM   20 CL1  UNL     1      29.043  -0.233  54.566  1.00  0.00    -0.089 Cl
HETATM   21  C11 UNL     1      27.149  -0.175  52.578  1.00  0.00     0.048 C 
HETATM   22  C12 UNL     1      26.793  -1.619  52.718  1.00  0.00     0.018 C 
HETATM   23  C13 UNL     1      25.975   0.557  51.957  1.00  0.00     0.091 C 
HETATM   24  C14 UNL     1      26.564   1.734  51.226  1.00  0.00     0.033 C 
ENDBRANCH  11  16
TORSDOF 1
ENDMDL
MODEL 2
REMARK VINA RESULT:      -8.3      2.815      5.870
REMARK  1 active torsions:
REMARK  status: ('A' for Active; 'I' for Inactive)
REMARK    1  A    between atoms: C7_11  and  N5_12 
ROOT
HETATM    1  C1  UNL     1      26.364   2.729  50.952  1.00  0.00     0.038 C 
HETATM    2  C2  UNL     1      26.584   2.388  52.217  1.00  0.00     0.005 C 
HETATM    3  N1  UNL     1      27.952   2.022  52.499  1.00  0.00    -0.375 N 
HETATM    4  C3  UNL     1      28.668   2.007  53.758  1.00  0.00     0.269 C 
HETATM    5  N2  UNL     1      28.143   0.976  54.595  1.00  0.00    -0.280 NA
HETATM    6  C4  UNL     1      27.099   0.276  54.856  1.00  0.00     0.144 C 
HETATM    7  C5  UNL     1      25.749   0.276  54.250  1.00  0.00     0.086 A 
HETATM    8  N3  UNL     1      25.224  -0.904  54.570  1.00  0.00    -0.240 NA
HETATM    9  C6  UNL     1      24.000  -1.244  54.175  1.00  0.00     0.236 A 
HETATM   10  N4  UNL     1      23.341  -0.333  53.442  1.00  0.00    -0.224 NA
HETATM   11  C7  UNL     1      23.813   0.874  53.083  1.00  0.00     0.137 A 
HETATM   12  C15 UNL     1      25.035   1.185  53.494  1.00  0.00     0.027 A 
HETATM   13  C16 UNL     1      25.295   2.483  53.032  1.00  0.00     0.069 C 
HETATM   14  C17 UNL     1      24.509   3.500  52.463  1.00  0.00     0.021 C 
HETATM   15  H3  UNL     1      28.453   1.734  51.614  1.00  0.00     0.161 HD
ENDROOT
BRANCH  11  16
HETATM   16  N5  UNL     1      22.771   1.399  52.283  1.00  0.00    -0.357 N 
HETATM   17  C8  UNL     1      22.471   1.247  50.832  1.00  0.00     0.153 C 
HETATM   18  C9  UNL     1      21.237   0.392  50.729  1.00  0.00     0.013 C 
HETATM   19  C10 UNL     1      20.290   0.452  51.698  1.00  0.00     0.015 C 
HETATM   20 CL1  UNL     1      18.803  -0.517  51.664  1.00  0.00    -0.089 Cl
HETATM   21  C11 UNL     1      20.410   1.347  52.881  1.00  0.00     0.048 C 
HETATM   22  C12 UNL     1      20.416   0.648  54.201  1.00  0.00     0.018 C 
HETATM   23  C13 UNL     1      21.648   2.218  52.786  1.00  0.00     0.091 C 
HETATM   24  C14 UNL     1      21.285   3.352  51.864  1.00  0.00     0.033 C 
ENDBRANCH  11  16
TORSDOF 1
ENDMDL
MODEL 3
REMARK VINA RESULT:      -8.3      2.078      3.987
REMARK  1 active torsions:
REMARK  status: ('A' for Active; 'I' for Inactive)
REMARK    1  A    between atoms: C7_11  and  N5_12 
ROOT
HETATM    1  C1  UNL     1      21.990  -0.127  51.581  1.00  0.00     0.038 C 
HETATM    2  C2  UNL     1      22.141   1.173  51.352  1.00  0.00     0.005 C 
HETATM    3  N1  UNL     1      21.303   1.685  50.293  1.00  0.00    -0.375 N 
HETATM    4  C3  UNL     1      20.863   3.040  50.031  1.00  0.00     0.269 C 
HETATM    5  N2  UNL     1      21.980   3.836  49.632  1.00  0.00    -0.280 NA
HETATM    6  C4  UNL     1      23.254   3.965  49.724  1.00  0.00     0.144 C 
HETATM    7  C5  UNL     1      24.267   3.156  50.435  1.00  0.00     0.086 A 
HETATM    8  N3  UNL     1      25.424   3.450  49.847  1.00  0.00    -0.240 NA
HETATM    9  C6  UNL     1      26.561   2.885  50.243  1.00  0.00     0.236 A 
HETATM   10  N4  UNL     1      26.467   2.011  51.257  1.00  0.00    -0.224 NA
HETATM   11  C7  UNL     1      25.332   1.668  51.893  1.00  0.00     0.137 A 
HETATM   12  C15 UNL     1      24.215   2.250  51.478  1.00  0.00     0.027 A 
HETATM   13  C16 UNL     1      23.184   1.768  52.296  1.00  0.00     0.069 C 
HETATM   14  C17 UNL     1      23.142   1.030  53.492  1.00  0.00     0.021 C 
HETATM   15  H3  UNL     1      20.995   0.906  49.648  1.00  0.00     0.161 HD
ENDROOT
BRANCH  11  16
HETATM   16  N5  UNL     1      25.767   0.688  52.815  1.00  0.00    -0.357 N 
HETATM   17  C8  UNL     1      25.864  -0.793  52.705  1.00  0.00     0.153 C 
HETATM   18  C9  UNL     1      27.330  -1.131  52.653  1.00  0.00     0.013 C 
HETATM   19  C10 UNL     1      28.227  -0.358  53.315  1.00  0.00     0.015 C 
HETATM   20 CL1  UNL     1      29.973  -0.676  53.312  1.00  0.00    -0.089 Cl
HETATM   21  C11 UNL     1      27.822   0.830  54.115  1.00  0.00     0.048 C 
HETATM   22  C12 UNL     1      28.413   2.125  53.663  1.00  0.00     0.018 C 
HETATM   23  C13 UNL     1      26.313   0.974  54.159  1.00  0.00     0.091 C 
HETATM   24  C14 UNL     1      25.837   0.004  55.208  1.00  0.00     0.033 C 
ENDBRANCH  11  16
TORSDOF 1
ENDMDL
MODEL 4
REMARK VINA RESULT:      -8.2      2.750      4.419
REMARK  1 active torsions:
REMARK  status: ('A' for Active; 'I' for Inactive)
REMARK    1  A    between atoms: C7_11  and  N5_12 
ROOT
HETATM    1  C1  UNL     1      20.439   1.819  52.885  1.00  0.00     0.038 C 
HETATM    2  C2  UNL     1      21.340   0.855  53.034  1.00  0.00     0.005 C 
HETATM    3  N1  UNL     1      21.155   0.054  54.221  1.00  0.00    -0.375 N 
HETATM    4  C3  UNL     1      21.620  -1.285  54.520  1.00  0.00     0.269 C 
HETATM    5  N2  UNL     1      23.042  -1.278  54.657  1.00  0.00    -0.280 NA
HETATM    6  C4  UNL     1      24.120  -0.675  54.306  1.00  0.00     0.144 C 
HETATM    7  C5  UNL     1      24.341   0.498  53.433  1.00  0.00     0.086 A 
HETATM    8  N3  UNL     1      25.545   0.958  53.765  1.00  0.00    -0.240 NA
HETATM    9  C6  UNL     1      26.063   2.027  53.168  1.00  0.00     0.236 A 
HETATM   10  N4  UNL     1      25.303   2.605  52.225  1.00  0.00    -0.224 NA
HETATM   11  C7  UNL     1      24.080   2.194  51.843  1.00  0.00     0.137 A 
HETATM   12  C15 UNL     1      23.592   1.123  52.455  1.00  0.00     0.027 A 
HETATM   13  C16 UNL     1      22.339   0.869  51.879  1.00  0.00     0.069 C 
HETATM   14  C17 UNL     1      21.665   1.348  50.742  1.00  0.00     0.021 C 
HETATM   15  H3  UNL     1      20.585   0.577  54.942  1.00  0.00     0.161 HD
ENDROOT
BRANCH  11  16
HETATM   16  N5  UNL     1      23.701   3.164  50.887  1.00  0.00    -0.357 N 
HETATM   17  C8  UNL     1      22.916   4.422  51.018  1.00  0.00     0.153 C 
HETATM   18  C9  UNL     1      23.882   5.561  50.829  1.00  0.00     0.013 C 
HETATM   19  C10 UNL     1      24.948   5.414  50.003  1.00  0.00     0.015 C 
HETATM   20 CL1  UNL     1      26.140   6.698  49.718  1.00  0.00    -0.089 Cl
HETATM   21  C11 UNL     1      25.211   4.156  49.252  1.00  0.00     0.048 C 
HETATM   22  C12 UNL     1      26.516   3.499  49.562  1.00  0.00     0.018 C 
HETATM   23  C13 UNL     1      24.097   3.148  49.462  1.00  0.00     0.091 C 
HETATM   24  C14 UNL     1      22.986   3.564  48.535  1.00  0.00     0.033 C 
ENDBRANCH  11  16
TORSDOF 1
ENDMDL
MODEL 5
REMARK VINA RESULT:      -7.8      2.970      5.939
REMARK  1 active torsions:
REMARK  status: ('A' for Active; 'I' for Inactive)
REMARK    1  A    between atoms: C7_11  and  N5_12 
ROOT
HETATM    1  C1  UNL     1      26.454   2.527  50.693  1.00  0.00     0.038 C 
HETATM    2  C2  UNL     1      26.392   2.177  51.973  1.00  0.00     0.005 C 
HETATM    3  N1  UNL     1      27.611   1.596  52.484  1.00  0.00    -0.375 N 
HETATM    4  C3  UNL     1      28.086   1.486  53.848  1.00  0.00     0.269 C 
HETATM    5  N2  UNL     1      27.261   0.571  54.570  1.00  0.00    -0.280 NA
HETATM    6  C4  UNL     1      26.086   0.058  54.638  1.00  0.00     0.144 C 
HETATM    7  C5  UNL     1      24.881   0.269  53.807  1.00  0.00     0.086 A 
HETATM    8  N3  UNL     1      24.120  -0.802  54.018  1.00  0.00    -0.240 NA
HETATM    9  C6  UNL     1      22.944  -0.943  53.413  1.00  0.00     0.236 A 
HETATM   10  N4  UNL     1      22.581   0.050  52.586  1.00  0.00    -0.224 NA
HETATM   11  C7  UNL     1      23.301   1.157  52.327  1.00  0.00     0.137 A 
HETATM   12  C15 UNL     1      24.468   1.270  52.948  1.00  0.00     0.027 A 
HETATM   13  C16 UNL     1      25.016   2.498  52.552  1.00  0.00     0.069 C 
HETATM   14  C17 UNL     1      24.519   3.620  51.866  1.00  0.00     0.021 C 
HETATM   15  H3  UNL     1      28.204   1.213  51.697  1.00  0.00     0.161 HD
ENDROOT
BRANCH  11  16
HETATM   16  N5  UNL     1      22.516   1.831  51.364  1.00  0.00    -0.357 N 
HETATM   17  C8  UNL     1      22.435   1.689  49.884  1.00  0.00     0.153 C 
HETATM   18  C9  UNL     1      21.101   1.062  49.578  1.00  0.00     0.013 C 
HETATM   19  C10 UNL     1      20.034   1.317  50.376  1.00  0.00     0.015 C 
HETATM   20 CL1  UNL     1      18.424   0.624  50.097  1.00  0.00    -0.089 Cl
HETATM   21  C11 UNL     1      20.118   2.214  51.561  1.00  0.00     0.048 C 
HETATM   22  C12 UNL     1      19.783   1.567  52.865  1.00  0.00     0.018 C 
HETATM   23  C13 UNL     1      21.490   2.851  51.672  1.00  0.00     0.091 C 
HETATM   24  C14 UNL     1      21.491   4.001  50.701  1.00  0.00     0.033 C 
ENDBRANCH  11  16
TORSDOF 1
ENDMDL
MODEL 6
REMARK VINA RESULT:      -7.4      3.021      5.562
REMARK  1 active torsions:
REMARK  status: ('A' for Active; 'I' for Inactive)
REMARK    1  A    between atoms: C7_11  and  N5_12 
ROOT
HETATM    1  C1  UNL     1      25.688   0.460  52.552  1.00  0.00     0.038 C 
HETATM    2  C2  UNL     1      24.735   0.299  53.464  1.00  0.00     0.005 C 
HETATM    3  N1  UNL     1      24.852  -0.921  54.228  1.00  0.00    -0.375 N 
HETATM    4  C3  UNL     1      24.312  -1.256  55.530  1.00  0.00     0.269 C 
HETATM    5  N2  UNL     1      22.889  -1.357  55.447  1.00  0.00    -0.280 NA
HETATM    6  C4  UNL     1      21.852  -0.958  54.805  1.00  0.00     0.144 C 
HETATM    7  C5  UNL     1      21.711  -0.039  53.655  1.00  0.00     0.086 A 
HETATM    8  N3  UNL     1      20.525  -0.323  53.124  1.00  0.00    -0.240 NA
HETATM    9  C6  UNL     1      20.076   0.324  52.052  1.00  0.00     0.236 A 
HETATM   10  N4  UNL     1      20.886   1.268  51.548  1.00  0.00    -0.224 NA
HETATM   11  C7  UNL     1      22.095   1.605  52.034  1.00  0.00     0.137 A 
HETATM   12  C15 UNL     1      22.514   0.943  53.105  1.00  0.00     0.027 A 
HETATM   13  C16 UNL     1      23.765   1.478  53.442  1.00  0.00     0.069 C 
HETATM   14  C17 UNL     1      24.489   2.614  53.040  1.00  0.00     0.021 C 
HETATM   15  H3  UNL     1      25.430  -1.636  53.708  1.00  0.00     0.161 HD
ENDROOT
BRANCH  11  16
HETATM   16  N5  UNL     1      22.545   2.585  51.120  1.00  0.00    -0.357 N 
HETATM   17  C8  UNL     1      23.322   2.470  49.856  1.00  0.00     0.153 C 
HETATM   18  C9  UNL     1      22.375   2.794  48.731  1.00  0.00     0.013 C 
HETATM   19  C10 UNL     1      21.371   3.685  48.927  1.00  0.00     0.015 C 
HETATM   20 CL1  UNL     1      20.207   4.130  47.663  1.00  0.00    -0.089 Cl
HETATM   21  C11 UNL     1      21.160   4.379  50.227  1.00  0.00     0.048 C 
HETATM   22  C12 UNL     1      19.834   4.127  50.866  1.00  0.00     0.018 C 
HETATM   23  C13 UNL     1      22.253   4.031  51.219  1.00  0.00     0.091 C 
HETATM   24  C14 UNL     1      23.430   4.898  50.856  1.00  0.00     0.033 C 
ENDBRANCH  11  16
TORSDOF 1
ENDMDL
MODEL 7
REMARK VINA RESULT:      -7.1      8.636     10.808
REMARK  1 active torsions:
REMARK  status: ('A' for Active; 'I' for Inactive)
REMARK    1  A    between atoms: C7_11  and  N5_12 
ROOT
HETATM    1  C1  UNL     1      26.553   8.900  50.239  1.00  0.00     0.038 C 
HETATM    2  C2  UNL     1      26.501   7.731  49.611  1.00  0.00     0.005 C 
HETATM    3  N1  UNL     1      25.952   6.659  50.407  1.00  0.00    -0.375 N 
HETATM    4  C3  UNL     1      25.352   5.408  49.992  1.00  0.00     0.269 C 
HETATM    5  N2  UNL     1      26.351   4.566  49.414  1.00  0.00    -0.280 NA
HETATM    6  C4  UNL     1      27.477   4.557  48.799  1.00  0.00     0.144 C 
HETATM    7  C5  UNL     1      28.358   5.662  48.361  1.00  0.00     0.086 A 
HETATM    8  N3  UNL     1      29.556   5.107  48.193  1.00  0.00    -0.240 NA
HETATM    9  C6  UNL     1      30.601   5.829  47.801  1.00  0.00     0.236 A 
HETATM   10  N4  UNL     1      30.373   7.136  47.591  1.00  0.00    -0.224 NA
HETATM   11  C7  UNL     1      29.190   7.758  47.742  1.00  0.00     0.137 A 
HETATM   12  C15 UNL     1      28.166   7.011  48.132  1.00  0.00     0.027 A 
HETATM   13  C16 UNL     1      27.051   7.858  48.191  1.00  0.00     0.069 C 
HETATM   14  C17 UNL     1      26.786   9.167  47.751  1.00  0.00     0.021 C 
HETATM   15  H3  UNL     1      26.027   6.880  51.438  1.00  0.00     0.161 HD
ENDROOT
BRANCH  11  16
HETATM   16  N5  UNL     1      29.503   9.109  47.463  1.00  0.00    -0.357 N 
HETATM   17  C8  UNL     1      29.866  10.242  48.358  1.00  0.00     0.153 C 
HETATM   18  C9  UNL     1      31.323  10.536  48.120  1.00  0.00     0.013 C 
HETATM   19  C10 UNL     1      31.861  10.337  46.891  1.00  0.00     0.015 C 
HETATM   20 CL1  UNL     1      33.566  10.655  46.515  1.00  0.00    -0.089 Cl
HETATM   21  C11 UNL     1      31.062   9.837  45.739  1.00  0.00     0.048 C 
HETATM   22  C12 UNL     1      31.539   8.548  45.155  1.00  0.00     0.018 C 
HETATM   23  C13 UNL     1      29.598   9.692  46.108  1.00  0.00     0.091 C 
HETATM   24  C14 UNL     1      29.012  11.076  46.018  1.00  0.00     0.033 C 
ENDBRANCH  11  16
TORSDOF 1
ENDMDL
MODEL 8
REMARK VINA RESULT:      -7.0      4.274      6.192
REMARK  1 active torsions:
REMARK  status: ('A' for Active; 'I' for Inactive)
REMARK    1  A    between atoms: C7_11  and  N5_12 
ROOT
HETATM    1  C1  UNL     1      24.944   2.494  53.106  1.00  0.00     0.038 C 
HETATM    2  C2  UNL     1      23.746   2.088  52.699  1.00  0.00     0.005 C 
HETATM    3  N1  UNL     1      23.477   0.693  52.959  1.00  0.00    -0.375 N 
HETATM    4  C3  UNL     1      22.212  -0.004  53.065  1.00  0.00     0.269 C 
HETATM    5  N2  UNL     1      21.579  -0.045  51.785  1.00  0.00    -0.280 NA
HETATM    6  C4  UNL     1      21.480   0.551  50.653  1.00  0.00     0.144 C 
HETATM    7  C5  UNL     1      22.128   1.775  50.135  1.00  0.00     0.086 A 
HETATM    8  N3  UNL     1      22.029   1.688  48.810  1.00  0.00    -0.240 NA
HETATM    9  C6  UNL     1      22.523   2.637  48.018  1.00  0.00     0.236 A 
HETATM   10  N4  UNL     1      23.119   3.670  48.634  1.00  0.00    -0.224 NA
HETATM   11  C7  UNL     1      23.253   3.819  49.964  1.00  0.00     0.137 A 
HETATM   12  C15 UNL     1      22.749   2.859  50.727  1.00  0.00     0.027 A 
HETATM   13  C16 UNL     1      22.978   3.241  52.056  1.00  0.00     0.069 C 
HETATM   14  C17 UNL     1      23.399   4.429  52.678  1.00  0.00     0.021 C 
HETATM   15  H3  UNL     1      24.378   0.154  53.083  1.00  0.00     0.161 HD
ENDROOT
BRANCH  11  16
HETATM   16  N5  UNL     1      23.993   5.018  50.078  1.00  0.00    -0.357 N 
HETATM   17  C8  UNL     1      25.459   5.277  50.052  1.00  0.00     0.153 C 
HETATM   18  C9  UNL     1      25.755   5.984  48.757  1.00  0.00     0.013 C 
HETATM   19  C10 UNL     1      24.829   6.810  48.210  1.00  0.00     0.015 C 
HETATM   20 CL1  UNL     1      25.086   7.686  46.688  1.00  0.00    -0.089 Cl
HETATM   21  C11 UNL     1      23.508   7.064  48.847  1.00  0.00     0.048 C 
HETATM   22  C12 UNL     1      22.326   6.681  48.018  1.00  0.00     0.018 C 
HETATM   23  C13 UNL     1      23.404   6.370  50.191  1.00  0.00     0.091 C 
HETATM   24  C14 UNL     1      24.134   7.253  51.168  1.00  0.00     0.033 C 
ENDBRANCH  11  16
TORSDOF 1
ENDMDL
MODEL 9
REMARK VINA RESULT:      -6.8      5.506      8.207
REMARK  1 active torsions:
REMARK  status: ('A' for Active; 'I' for Inactive)
REMARK    1  A    between atoms: C7_11  and  N5_12 
ROOT
HETATM    1  C1  UNL     1      24.097   7.769  46.946  1.00  0.00     0.038 C 
HETATM    2  C2  UNL     1      25.300   7.670  47.503  1.00  0.00     0.005 C 
HETATM    3  N1  UNL     1      26.388   8.014  46.617  1.00  0.00    -0.375 N 
HETATM    4  C3  UNL     1      27.739   8.435  46.927  1.00  0.00     0.269 C 
HETATM    5  N2  UNL     1      28.458   7.346  47.509  1.00  0.00    -0.280 NA
HETATM    6  C4  UNL     1      28.339   6.260  48.182  1.00  0.00     0.144 C 
HETATM    7  C5  UNL     1      27.146   5.578  48.730  1.00  0.00     0.086 A 
HETATM    8  N3  UNL     1      27.525   4.319  48.930  1.00  0.00    -0.240 NA
HETATM    9  C6  UNL     1      26.682   3.414  49.419  1.00  0.00     0.236 A 
HETATM   10  N4  UNL     1      25.441   3.848  49.691  1.00  0.00    -0.224 NA
HETATM   11  C7  UNL     1      24.993   5.103  49.512  1.00  0.00     0.137 A 
HETATM   12  C15 UNL     1      25.858   5.983  49.025  1.00  0.00     0.027 A 
HETATM   13  C16 UNL     1      25.185   7.210  48.955  1.00  0.00     0.069 C 
HETATM   14  C17 UNL     1      23.961   7.691  49.455  1.00  0.00     0.021 C 
HETATM   15  H3  UNL     1      26.091   7.927  45.607  1.00  0.00     0.161 HD
ENDROOT
BRANCH  11  16
HETATM   16  N5  UNL     1      23.632   5.013  49.885  1.00  0.00    -0.357 N 
HETATM   17  C8  UNL     1      22.416   4.664  49.100  1.00  0.00     0.153 C 
HETATM   18  C9  UNL     1      21.961   3.311  49.578  1.00  0.00     0.013 C 
HETATM   19  C10 UNL     1      22.162   2.947  50.869  1.00  0.00     0.015 C 
HETATM   20 CL1  UNL     1      21.661   1.375  51.524  1.00  0.00    -0.089 Cl
HETATM   21  C11 UNL     1      22.816   3.844  51.860  1.00  0.00     0.048 C 
HETATM   22  C12 UNL     1      24.068   3.302  52.468  1.00  0.00     0.018 C 
HETATM   23  C13 UNL     1      23.116   5.203  51.258  1.00  0.00     0.091 C 
HETATM   24  C14 UNL     1      21.820   5.968  51.301  1.00  0.00     0.033 C 
ENDBRANCH  11  16
TORSDOF 1
ENDMDL
