MODEL 1
REMARK VINA RESULT:      -8.4      0.000      0.000
REMARK  7 active torsions:
REMARK  status: ('A' for Active; 'I' for Inactive)
REMARK    1  A    between atoms: C3_3  and  C4_4 
REMARK    2  A    between atoms: C5_5  and  C6_6 
REMARK    3  A    between atoms: C6_6  and  C7_7 
REMARK    4  A    between atoms: C7_7  and  C8_8 
REMARK    5  A    between atoms: C7_7  and  C9_10 
REMARK    6  A    between atoms: C8_8  and  O1_9 
REMARK    7  A    between atoms: C13_16  and  C14_17 
ROOT
HETATM    1  C9  UNL     1      23.951   3.139  49.806  1.00  0.00     0.168 C 
HETATM    2  O2  UNL     1      25.305   3.007  49.477  1.00  0.00    -0.351 OA
HETATM    3  C10 UNL     1      26.533   3.195  50.152  1.00  0.00     0.160 C 
HETATM    4  C11 UNL     1      26.805   2.813  51.397  1.00  0.00     0.166 C 
HETATM    5  O3  UNL     1      26.174   2.156  52.497  1.00  0.00    -0.320 OA
HETATM    6  C12 UNL     1      25.145   1.217  52.393  1.00  0.00     0.086 C 
HETATM    7  C13 UNL     1      25.319  -0.018  52.912  1.00  0.00     0.050 C 
HETATM    8  C19 UNL     1      23.842   1.394  51.770  1.00  0.00     0.007 A 
HETATM    9  C20 UNL     1      23.000   0.551  52.452  1.00  0.00     0.015 A 
HETATM   10  C21 UNL     1      21.663   0.402  52.136  1.00  0.00     0.001 A 
HETATM   11  C22 UNL     1      21.177   1.159  51.068  1.00  0.00     0.001 A 
HETATM   12  C23 UNL     1      22.034   2.020  50.373  1.00  0.00     0.011 A 
HETATM   13  C24 UNL     1      23.371   2.164  50.697  1.00  0.00    -0.015 A 
ENDROOT
BRANCH   1  14
HETATM   14  C7  UNL     1      23.739   4.593  50.149  1.00  0.00     0.047 C 
BRANCH  14  15
HETATM   15  C6  UNL     1      22.880   5.244  49.043  1.00  0.00     0.036 C 
BRANCH  15  16
HETATM   16  C5  UNL     1      23.691   6.165  48.206  1.00  0.00    -0.026 C 
HETATM   17  C4  UNL     1      24.932   6.521  48.541  1.00  0.00    -0.004 C 
BRANCH  17  18
HETATM   18  C3  UNL     1      25.842   7.403  47.834  1.00  0.00    -0.005 C 
HETATM   19  C2  UNL     1      27.149   7.228  47.733  1.00  0.00    -0.031 C 
HETATM   20  C1  UNL     1      27.784   6.063  48.367  1.00  0.00     0.036 C 
ENDBRANCH  17  18
ENDBRANCH  15  16
ENDBRANCH  14  15
BRANCH  14  21
HETATM   21  C8  UNL     1      23.052   4.889  51.424  1.00  0.00     0.172 C 
BRANCH  21  22
HETATM   22  O1  UNL     1      23.868   5.526  52.351  1.00  0.00    -0.400 OA
HETATM   23  H13 UNL     1      23.872   6.498  52.134  1.00  0.00     0.209 HD
ENDBRANCH  21  22
ENDBRANCH  14  21
ENDBRANCH   1  14
BRANCH   7  24
HETATM   24  C14 UNL     1      26.621  -0.241  53.556  1.00  0.00    -0.022 C 
HETATM   25  C15 UNL     1      27.619  -0.970  53.058  1.00  0.00    -0.015 C 
HETATM   26  C16 UNL     1      28.812  -0.561  53.381  1.00  0.00     0.013 C 
HETATM   27  C17 UNL     1      28.612  -0.024  54.721  1.00  0.00     0.002 C 
HETATM   28  C18 UNL     1      27.287   0.165  54.813  1.00  0.00     0.012 C 
ENDBRANCH   7  24
TORSDOF 7
ENDMDL
MODEL 2
REMARK VINA RESULT:      -8.1      2.084      3.626
REMARK  7 active torsions:
REMARK  status: ('A' for Active; 'I' for Inactive)
REMARK    1  A    between atoms: C3_3  and  C4_4 
REMARK    2  A    between atoms: C5_5  and  C6_6 
REMARK    3  A    between atoms: C6_6  and  C7_7 
REMARK    4  A    between atoms: C7_7  and  C8_8 
REMARK    5  A    between atoms: C7_7  and  C9_10 
REMARK    6  A    between atoms: C8_8  and  O1_9 
REMARK    7  A    between atoms: C13_16  and  C14_17 
ROOT
HETATM    1  C9  UNL     1      25.136   3.366  49.947  1.00  0.00     0.168 C 
HETATM    2  O2  UNL     1      25.948   2.672  50.852  1.00  0.00    -0.351 OA
HETATM    3  C10 UNL     1      25.948   2.453  52.249  1.00  0.00     0.160 C 
HETATM    4  C11 UNL     1      24.884   2.164  52.993  1.00  0.00     0.166 C 
HETATM    5  O3  UNL     1      23.478   1.960  52.849  1.00  0.00    -0.320 OA
HETATM    6  C12 UNL     1      22.844   1.494  51.695  1.00  0.00     0.086 C 
HETATM    7  C13 UNL     1      22.097   0.370  51.757  1.00  0.00     0.050 C 
HETATM    8  C19 UNL     1      22.880   2.082  50.365  1.00  0.00     0.007 A 
HETATM    9  C20 UNL     1      21.685   1.735  49.786  1.00  0.00     0.015 A 
HETATM   10  C21 UNL     1      21.343   2.080  48.492  1.00  0.00     0.001 A 
HETATM   11  C22 UNL     1      22.282   2.817  47.767  1.00  0.00     0.001 A 
HETATM   12  C23 UNL     1      23.500   3.173  48.356  1.00  0.00     0.011 A 
HETATM   13  C24 UNL     1      23.833   2.824  49.653  1.00  0.00    -0.015 A 
ENDROOT
BRANCH   1  14
HETATM   14  C7  UNL     1      25.200   4.819  50.351  1.00  0.00     0.047 C 
BRANCH  14  15
HETATM   15  C6  UNL     1      25.645   5.654  49.131  1.00  0.00     0.036 C 
BRANCH  15  16
HETATM   16  C5  UNL     1      27.017   5.285  48.699  1.00  0.00    -0.026 C 
HETATM   17  C4  UNL     1      27.919   6.202  48.342  1.00  0.00    -0.004 C 
BRANCH  17  18
HETATM   18  C3  UNL     1      29.286   6.001  47.902  1.00  0.00    -0.005 C 
HETATM   19  C2  UNL     1      30.275   6.864  48.067  1.00  0.00    -0.031 C 
HETATM   20  C1  UNL     1      30.025   8.145  48.747  1.00  0.00     0.036 C 
ENDBRANCH  17  18
ENDBRANCH  15  16
ENDBRANCH  14  15
BRANCH  14  21
HETATM   21  C8  UNL     1      23.946   5.437  50.832  1.00  0.00     0.172 C 
BRANCH  21  22
HETATM   22  O1  UNL     1      24.102   6.134  52.023  1.00  0.00    -0.400 OA
HETATM   23  H13 UNL     1      23.978   5.489  52.771  1.00  0.00     0.209 HD
ENDBRANCH  21  22
ENDBRANCH  14  21
ENDBRANCH   1  14
BRANCH   7  24
HETATM   24  C14 UNL     1      22.029  -0.256  53.084  1.00  0.00    -0.022 C 
HETATM   25  C15 UNL     1      20.918  -0.454  53.794  1.00  0.00    -0.015 C 
HETATM   26  C16 UNL     1      20.933  -1.511  54.552  1.00  0.00     0.013 C 
HETATM   27  C17 UNL     1      22.333  -1.601  54.947  1.00  0.00     0.002 C 
HETATM   28  C18 UNL     1      22.982  -0.840  54.052  1.00  0.00     0.012 C 
ENDBRANCH   7  24
TORSDOF 7
ENDMDL
MODEL 3
REMARK VINA RESULT:      -8.1      2.584      4.499
REMARK  7 active torsions:
REMARK  status: ('A' for Active; 'I' for Inactive)
REMARK    1  A    between atoms: C3_3  and  C4_4 
REMARK    2  A    between atoms: C5_5  and  C6_6 
REMARK    3  A    between atoms: C6_6  and  C7_7 
REMARK    4  A    between atoms: C7_7  and  C8_8 
REMARK    5  A    between atoms: C7_7  and  C9_10 
REMARK    6  A    between atoms: C8_8  and  O1_9 
REMARK    7  A    between atoms: C13_16  and  C14_17 
ROOT
HETATM    1  C9  UNL     1      20.867   1.529  52.876  1.00  0.00     0.168 C 
HETATM    2  O2  UNL     1      21.199   0.548  53.818  1.00  0.00    -0.351 OA
HETATM    3  C10 UNL     1      22.068  -0.567  53.854  1.00  0.00     0.160 C 
HETATM    4  C11 UNL     1      23.314  -0.600  53.390  1.00  0.00     0.166 C 
HETATM    5  O3  UNL     1      24.260   0.257  52.749  1.00  0.00    -0.320 OA
HETATM    6  C12 UNL     1      24.301   1.648  52.871  1.00  0.00     0.086 C 
HETATM    7  C13 UNL     1      25.424   2.240  53.334  1.00  0.00     0.050 C 
HETATM    8  C19 UNL     1      23.246   2.598  52.552  1.00  0.00     0.007 A 
HETATM    9  C20 UNL     1      23.898   3.752  52.193  1.00  0.00     0.015 A 
HETATM   10  C21 UNL     1      23.238   4.915  51.846  1.00  0.00     0.001 A 
HETATM   11  C22 UNL     1      21.842   4.882  51.872  1.00  0.00     0.001 A 
HETATM   12  C23 UNL     1      21.177   3.706  52.237  1.00  0.00     0.011 A 
HETATM   13  C24 UNL     1      21.846   2.545  52.581  1.00  0.00    -0.015 A 
ENDROOT
BRANCH   1  14
HETATM   14  C7  UNL     1      20.261   0.798  51.702  1.00  0.00     0.047 C 
BRANCH  14  15
HETATM   15  C6  UNL     1      21.383   0.462  50.695  1.00  0.00     0.036 C 
BRANCH  15  16
HETATM   16  C5  UNL     1      21.130   1.100  49.378  1.00  0.00    -0.026 C 
HETATM   17  C4  UNL     1      21.976   1.981  48.841  1.00  0.00    -0.004 C 
BRANCH  17  18
HETATM   18  C3  UNL     1      21.870   2.682  47.576  1.00  0.00    -0.005 C 
HETATM   19  C2  UNL     1      22.378   3.876  47.321  1.00  0.00    -0.031 C 
HETATM   20  C1  UNL     1      23.119   4.597  48.367  1.00  0.00     0.036 C 
ENDBRANCH  17  18
ENDBRANCH  15  16
ENDBRANCH  14  15
BRANCH  14  21
HETATM   21  C8  UNL     1      19.577  -0.481  51.988  1.00  0.00     0.172 C 
BRANCH  21  22
HETATM   22  O1  UNL     1      18.568  -0.361  52.936  1.00  0.00    -0.400 OA
HETATM   23  H13 UNL     1      17.863   0.231  52.557  1.00  0.00     0.209 HD
ENDBRANCH  21  22
ENDBRANCH  14  21
ENDBRANCH   1  14
BRANCH   7  24
HETATM   24  C14 UNL     1      26.519   1.318  53.666  1.00  0.00    -0.022 C 
HETATM   25  C15 UNL     1      27.593   1.085  52.912  1.00  0.00    -0.015 C 
HETATM   26  C16 UNL     1      28.676   0.800  53.574  1.00  0.00     0.013 C 
HETATM   27  C17 UNL     1      28.162   0.080  54.733  1.00  0.00     0.002 C 
HETATM   28  C18 UNL     1      26.860   0.402  54.776  1.00  0.00     0.012 C 
ENDBRANCH   7  24
TORSDOF 7
ENDMDL
MODEL 4
REMARK VINA RESULT:      -8.0      1.678      2.665
REMARK  7 active torsions:
REMARK  status: ('A' for Active; 'I' for Inactive)
REMARK    1  A    between atoms: C3_3  and  C4_4 
REMARK    2  A    between atoms: C5_5  and  C6_6 
REMARK    3  A    between atoms: C6_6  and  C7_7 
REMARK    4  A    between atoms: C7_7  and  C8_8 
REMARK    5  A    between atoms: C7_7  and  C9_10 
REMARK    6  A    between atoms: C8_8  and  O1_9 
REMARK    7  A    between atoms: C13_16  and  C14_17 
ROOT
HETATM    1  C9  UNL     1      23.802   2.973  49.857  1.00  0.00     0.168 C 
HETATM    2  O2  UNL     1      25.159   2.902  49.520  1.00  0.00    -0.351 OA
HETATM    3  C10 UNL     1      26.381   3.155  50.185  1.00  0.00     0.160 C 
HETATM    4  C11 UNL     1      26.678   2.800  51.433  1.00  0.00     0.166 C 
HETATM    5  O3  UNL     1      26.085   2.126  52.544  1.00  0.00    -0.320 OA
HETATM    6  C12 UNL     1      25.101   1.140  52.457  1.00  0.00     0.086 C 
HETATM    7  C13 UNL     1      25.336  -0.080  52.988  1.00  0.00     0.050 C 
HETATM    8  C19 UNL     1      23.788   1.248  51.841  1.00  0.00     0.007 A 
HETATM    9  C20 UNL     1      22.990   0.374  52.537  1.00  0.00     0.015 A 
HETATM   10  C21 UNL     1      21.660   0.159  52.233  1.00  0.00     0.001 A 
HETATM   11  C22 UNL     1      21.132   0.881  51.159  1.00  0.00     0.001 A 
HETATM   12  C23 UNL     1      21.943   1.773  50.449  1.00  0.00     0.011 A 
HETATM   13  C24 UNL     1      23.274   1.983  50.763  1.00  0.00    -0.015 A 
ENDROOT
BRANCH   1  14
HETATM   14  C7  UNL     1      23.525   4.420  50.185  1.00  0.00     0.047 C 
BRANCH  14  15
HETATM   15  C6  UNL     1      22.387   4.927  49.272  1.00  0.00     0.036 C 
BRANCH  15  16
HETATM   16  C5  UNL     1      22.724   4.735  47.839  1.00  0.00    -0.026 C 
HETATM   17  C4  UNL     1      21.788   4.525  46.912  1.00  0.00    -0.004 C 
BRANCH  17  18
HETATM   18  C3  UNL     1      21.956   4.322  45.485  1.00  0.00    -0.005 C 
HETATM   19  C2  UNL     1      20.993   3.988  44.643  1.00  0.00    -0.031 C 
HETATM   20  C1  UNL     1      19.621   3.796  45.137  1.00  0.00     0.036 C 
ENDBRANCH  17  18
ENDBRANCH  15  16
ENDBRANCH  14  15
BRANCH  14  21
HETATM   21  C8  UNL     1      23.101   4.725  51.569  1.00  0.00     0.172 C 
BRANCH  21  22
HETATM   22  O1  UNL     1      24.159   4.767  52.468  1.00  0.00    -0.400 OA
HETATM   23  H13 UNL     1      24.872   5.337  52.072  1.00  0.00     0.209 HD
ENDBRANCH  21  22
ENDBRANCH  14  21
ENDBRANCH   1  14
BRANCH   7  24
HETATM   24  C14 UNL     1      26.651  -0.234  53.627  1.00  0.00    -0.022 C 
HETATM   25  C15 UNL     1      27.698  -0.871  53.103  1.00  0.00    -0.015 C 
HETATM   26  C16 UNL     1      28.859  -0.391  53.444  1.00  0.00     0.013 C 
HETATM   27  C17 UNL     1      28.623   0.079  54.804  1.00  0.00     0.002 C 
HETATM   28  C18 UNL     1      27.287   0.169  54.899  1.00  0.00     0.012 C 
ENDBRANCH   7  24
TORSDOF 7
ENDMDL
MODEL 5
REMARK VINA RESULT:      -7.9      1.962      3.888
REMARK  7 active torsions:
REMARK  status: ('A' for Active; 'I' for Inactive)
REMARK    1  A    between atoms: C3_3  and  C4_4 
REMARK    2  A    between atoms: C5_5  and  C6_6 
REMARK    3  A    between atoms: C6_6  and  C7_7 
REMARK    4  A    between atoms: C7_7  and  C8_8 
REMARK    5  A    between atoms: C7_7  and  C9_10 
REMARK    6  A    between atoms: C8_8  and  O1_9 
REMARK    7  A    between atoms: C13_16  and  C14_17 
ROOT
HETATM    1  C9  UNL     1      23.420   2.750  50.428  1.00  0.00     0.168 C 
HETATM    2  O2  UNL     1      24.736   2.824  49.955  1.00  0.00    -0.351 OA
HETATM    3  C10 UNL     1      25.994   3.150  50.512  1.00  0.00     0.160 C 
HETATM    4  C11 UNL     1      26.449   2.754  51.697  1.00  0.00     0.166 C 
HETATM    5  O3  UNL     1      26.035   1.966  52.814  1.00  0.00    -0.320 OA
HETATM    6  C12 UNL     1      25.137   0.899  52.760  1.00  0.00     0.086 C 
HETATM    7  C13 UNL     1      25.530  -0.322  53.183  1.00  0.00     0.050 C 
HETATM    8  C19 UNL     1      23.762   0.921  52.285  1.00  0.00     0.007 A 
HETATM    9  C20 UNL     1      23.119  -0.062  52.997  1.00  0.00     0.015 A 
HETATM   10  C21 UNL     1      21.788  -0.382  52.811  1.00  0.00     0.001 A 
HETATM   11  C22 UNL     1      21.092   0.348  51.845  1.00  0.00     0.001 A 
HETATM   12  C23 UNL     1      21.744   1.350  51.119  1.00  0.00     0.011 A 
HETATM   13  C24 UNL     1      23.078   1.665  51.314  1.00  0.00    -0.015 A 
ENDROOT
BRANCH   1  14
HETATM   14  C7  UNL     1      23.055   4.144  50.877  1.00  0.00     0.047 C 
BRANCH  14  15
HETATM   15  C6  UNL     1      21.775   4.585  50.134  1.00  0.00     0.036 C 
BRANCH  15  16
HETATM   16  C5  UNL     1      20.587   4.513  51.023  1.00  0.00    -0.026 C 
HETATM   17  C4  UNL     1      19.390   4.127  50.577  1.00  0.00    -0.004 C 
BRANCH  17  18
HETATM   18  C3  UNL     1      18.146   4.006  51.314  1.00  0.00    -0.005 C 
HETATM   19  C2  UNL     1      17.426   2.902  51.418  1.00  0.00    -0.031 C 
HETATM   20  C1  UNL     1      17.875   1.668  50.755  1.00  0.00     0.036 C 
ENDBRANCH  17  18
ENDBRANCH  15  16
ENDBRANCH  14  15
BRANCH  14  21
HETATM   21  C8  UNL     1      22.775   4.333  52.316  1.00  0.00     0.172 C 
BRANCH  21  22
HETATM   22  O1  UNL     1      23.713   5.134  52.956  1.00  0.00    -0.400 OA
HETATM   23  H13 UNL     1      23.323   5.424  53.825  1.00  0.00     0.209 HD
ENDBRANCH  21  22
ENDBRANCH  14  21
ENDBRANCH   1  14
BRANCH   7  24
HETATM   24  C14 UNL     1      26.913  -0.390  53.677  1.00  0.00    -0.022 C 
HETATM   25  C15 UNL     1      27.913  -1.053  53.097  1.00  0.00    -0.015 C 
HETATM   26  C16 UNL     1      29.089  -0.520  53.256  1.00  0.00     0.013 C 
HETATM   27  C17 UNL     1      28.994   0.071  54.586  1.00  0.00     0.002 C 
HETATM   28  C18 UNL     1      27.676   0.144  54.826  1.00  0.00     0.012 C 
ENDBRANCH   7  24
TORSDOF 7
ENDMDL
MODEL 6
REMARK VINA RESULT:      -7.9      3.062      6.459
REMARK  7 active torsions:
REMARK  status: ('A' for Active; 'I' for Inactive)
REMARK    1  A    between atoms: C3_3  and  C4_4 
REMARK    2  A    between atoms: C5_5  and  C6_6 
REMARK    3  A    between atoms: C6_6  and  C7_7 
REMARK    4  A    between atoms: C7_7  and  C8_8 
REMARK    5  A    between atoms: C7_7  and  C9_10 
REMARK    6  A    between atoms: C8_8  and  O1_9 
REMARK    7  A    between atoms: C13_16  and  C14_17 
ROOT
HETATM    1  C9  UNL     1      21.003   1.326  52.625  1.00  0.00     0.168 C 
HETATM    2  O2  UNL     1      21.339   0.309  53.527  1.00  0.00    -0.351 OA
HETATM    3  C10 UNL     1      22.273  -0.751  53.554  1.00  0.00     0.160 C 
HETATM    4  C11 UNL     1      23.545  -0.681  53.171  1.00  0.00     0.166 C 
HETATM    5  O3  UNL     1      24.472   0.270  52.644  1.00  0.00    -0.320 OA
HETATM    6  C12 UNL     1      24.417   1.650  52.849  1.00  0.00     0.086 C 
HETATM    7  C13 UNL     1      25.469   2.278  53.418  1.00  0.00     0.050 C 
HETATM    8  C19 UNL     1      23.325   2.553  52.519  1.00  0.00     0.007 A 
HETATM    9  C20 UNL     1      23.923   3.764  52.270  1.00  0.00     0.015 A 
HETATM   10  C21 UNL     1      23.213   4.905  51.950  1.00  0.00     0.001 A 
HETATM   11  C22 UNL     1      21.823   4.787  51.884  1.00  0.00     0.001 A 
HETATM   12  C23 UNL     1      21.212   3.554  52.136  1.00  0.00     0.011 A 
HETATM   13  C24 UNL     1      21.932   2.415  52.454  1.00  0.00    -0.015 A 
ENDROOT
BRANCH   1  14
HETATM   14  C7  UNL     1      20.518   0.635  51.373  1.00  0.00     0.047 C 
BRANCH  14  15
HETATM   15  C6  UNL     1      19.206   1.306  50.913  1.00  0.00     0.036 C 
BRANCH  15  16
HETATM   16  C5  UNL     1      18.072   0.347  50.947  1.00  0.00    -0.026 C 
HETATM   17  C4  UNL     1      17.773  -0.359  52.039  1.00  0.00    -0.004 C 
BRANCH  17  18
HETATM   18  C3  UNL     1      16.707  -1.326  52.227  1.00  0.00    -0.005 C 
HETATM   19  C2  UNL     1      16.765  -2.379  53.024  1.00  0.00    -0.031 C 
HETATM   20  C1  UNL     1      17.983  -2.641  53.807  1.00  0.00     0.036 C 
ENDBRANCH  17  18
ENDBRANCH  15  16
ENDBRANCH  14  15
BRANCH  14  21
HETATM   21  C8  UNL     1      21.419   0.660  50.202  1.00  0.00     0.172 C 
BRANCH  21  22
HETATM   22  O1  UNL     1      20.926   1.420  49.148  1.00  0.00    -0.400 OA
HETATM   23  H13 UNL     1      21.452   2.264  49.111  1.00  0.00     0.209 HD
ENDBRANCH  21  22
ENDBRANCH  14  21
ENDBRANCH   1  14
BRANCH   7  24
HETATM   24  C14 UNL     1      26.599   1.404  53.765  1.00  0.00    -0.022 C 
HETATM   25  C15 UNL     1      27.732   1.289  53.074  1.00  0.00    -0.015 C 
HETATM   26  C16 UNL     1      28.787   1.026  53.790  1.00  0.00     0.013 C 
HETATM   27  C17 UNL     1      28.246   0.199  54.862  1.00  0.00     0.002 C 
HETATM   28  C18 UNL     1      26.926   0.438  54.836  1.00  0.00     0.012 C 
ENDBRANCH   7  24
TORSDOF 7
ENDMDL
MODEL 7
REMARK VINA RESULT:      -7.8      1.790      2.512
REMARK  7 active torsions:
REMARK  status: ('A' for Active; 'I' for Inactive)
REMARK    1  A    between atoms: C3_3  and  C4_4 
REMARK    2  A    between atoms: C5_5  and  C6_6 
REMARK    3  A    between atoms: C6_6  and  C7_7 
REMARK    4  A    between atoms: C7_7  and  C8_8 
REMARK    5  A    between atoms: C7_7  and  C9_10 
REMARK    6  A    between atoms: C8_8  and  O1_9 
REMARK    7  A    between atoms: C13_16  and  C14_17 
ROOT
HETATM    1  C9  UNL     1      22.062   1.868  51.201  1.00  0.00     0.168 C 
HETATM    2  O2  UNL     1      23.241   2.025  50.463  1.00  0.00    -0.351 OA
HETATM    3  C10 UNL     1      24.526   2.559  50.712  1.00  0.00     0.160 C 
HETATM    4  C11 UNL     1      25.248   2.373  51.813  1.00  0.00     0.166 C 
HETATM    5  O3  UNL     1      25.165   1.696  53.068  1.00  0.00    -0.320 OA
HETATM    6  C12 UNL     1      24.424   0.538  53.312  1.00  0.00     0.086 C 
HETATM    7  C13 UNL     1      25.052  -0.566  53.772  1.00  0.00     0.050 C 
HETATM    8  C19 UNL     1      22.993   0.345  53.130  1.00  0.00     0.007 A 
HETATM    9  C20 UNL     1      22.637  -0.602  54.058  1.00  0.00     0.015 A 
HETATM   10  C21 UNL     1      21.350  -1.089  54.184  1.00  0.00     0.001 A 
HETATM   11  C22 UNL     1      20.390  -0.572  53.310  1.00  0.00     0.001 A 
HETATM   12  C23 UNL     1      20.752   0.393  52.365  1.00  0.00     0.011 A 
HETATM   13  C24 UNL     1      22.043   0.877  52.247  1.00  0.00    -0.015 A 
ENDROOT
BRANCH   1  14
HETATM   14  C7  UNL     1      21.604   3.260  51.566  1.00  0.00     0.047 C 
BRANCH  14  15
HETATM   15  C6  UNL     1      21.091   3.964  50.291  1.00  0.00     0.036 C 
BRANCH  15  16
HETATM   16  C5  UNL     1      21.725   5.297  50.122  1.00  0.00    -0.026 C 
HETATM   17  C4  UNL     1      22.673   5.741  50.948  1.00  0.00    -0.004 C 
BRANCH  17  18
HETATM   18  C3  UNL     1      23.381   7.007  50.915  1.00  0.00    -0.005 C 
HETATM   19  C2  UNL     1      24.628   7.173  50.507  1.00  0.00    -0.031 C 
HETATM   20  C1  UNL     1      25.407   6.016  50.039  1.00  0.00     0.036 C 
ENDBRANCH  17  18
ENDBRANCH  15  16
ENDBRANCH  14  15
BRANCH  14  21
HETATM   21  C8  UNL     1      20.513   3.369  52.557  1.00  0.00     0.172 C 
BRANCH  21  22
HETATM   22  O1  UNL     1      19.288   3.694  51.988  1.00  0.00    -0.400 OA
HETATM   23  H13 UNL     1      19.116   3.050  51.249  1.00  0.00     0.209 HD
ENDBRANCH  21  22
ENDBRANCH  14  21
ENDBRANCH   1  14
BRANCH   7  24
HETATM   24  C14 UNL     1      26.500  -0.416  53.976  1.00  0.00    -0.022 C 
HETATM   25  C15 UNL     1      27.449  -0.844  53.145  1.00  0.00    -0.015 C 
HETATM   26  C16 UNL     1      28.529  -0.119  53.126  1.00  0.00     0.013 C 
HETATM   27  C17 UNL     1      28.621   0.351  54.503  1.00  0.00     0.002 C 
HETATM   28  C18 UNL     1      27.390   0.166  55.003  1.00  0.00     0.012 C 
ENDBRANCH   7  24
TORSDOF 7
ENDMDL
MODEL 8
REMARK VINA RESULT:      -7.8      3.926      7.851
REMARK  7 active torsions:
REMARK  status: ('A' for Active; 'I' for Inactive)
REMARK    1  A    between atoms: C3_3  and  C4_4 
REMARK    2  A    between atoms: C5_5  and  C6_6 
REMARK    3  A    between atoms: C6_6  and  C7_7 
REMARK    4  A    between atoms: C7_7  and  C8_8 
REMARK    5  A    between atoms: C7_7  and  C9_10 
REMARK    6  A    between atoms: C8_8  and  O1_9 
REMARK    7  A    between atoms: C13_16  and  C14_17 
ROOT
HETATM    1  C9  UNL     1      20.962   2.144  52.631  1.00  0.00     0.168 C 
HETATM    2  O2  UNL     1      19.821   2.937  52.460  1.00  0.00    -0.351 OA
HETATM    3  C10 UNL     1      18.730   2.961  51.561  1.00  0.00     0.160 C 
HETATM    4  C11 UNL     1      18.048   1.901  51.134  1.00  0.00     0.166 C 
HETATM    5  O3  UNL     1      18.028   0.482  51.296  1.00  0.00    -0.320 OA
HETATM    6  C12 UNL     1      18.463  -0.207  52.430  1.00  0.00     0.086 C 
HETATM    7  C13 UNL     1      17.602  -1.017  53.084  1.00  0.00     0.050 C 
HETATM    8  C19 UNL     1      19.784  -0.171  53.037  1.00  0.00     0.007 A 
HETATM    9  C20 UNL     1      19.941  -1.400  53.630  1.00  0.00     0.015 A 
HETATM   10  C21 UNL     1      21.066  -1.753  54.349  1.00  0.00     0.001 A 
HETATM   11  C22 UNL     1      22.075  -0.793  54.458  1.00  0.00     0.001 A 
HETATM   12  C23 UNL     1      21.917   0.459  53.853  1.00  0.00     0.011 A 
HETATM   13  C24 UNL     1      20.787   0.804  53.133  1.00  0.00    -0.015 A 
ENDROOT
BRANCH   1  14
HETATM   14  C7  UNL     1      21.778   2.303  51.371  1.00  0.00     0.047 C 
BRANCH  14  15
HETATM   15  C6  UNL     1      23.181   2.821  51.751  1.00  0.00     0.036 C 
BRANCH  15  16
HETATM   16  C5  UNL     1      24.238   1.865  51.333  1.00  0.00    -0.026 C 
HETATM   17  C4  UNL     1      25.360   1.695  52.035  1.00  0.00    -0.004 C 
BRANCH  17  18
HETATM   18  C3  UNL     1      26.474   0.808  51.760  1.00  0.00    -0.005 C 
HETATM   19  C2  UNL     1      26.696  -0.348  52.362  1.00  0.00    -0.031 C 
HETATM   20  C1  UNL     1      25.770  -0.823  53.402  1.00  0.00     0.036 C 
ENDBRANCH  17  18
ENDBRANCH  15  16
ENDBRANCH  14  15
BRANCH  14  21
HETATM   21  C8  UNL     1      22.000   1.088  50.558  1.00  0.00     0.172 C 
BRANCH  21  22
HETATM   22  O1  UNL     1      21.068   0.933  49.539  1.00  0.00    -0.400 OA
HETATM   23  H13 UNL     1      21.338   1.528  48.788  1.00  0.00     0.209 HD
ENDBRANCH  21  22
ENDBRANCH  14  21
ENDBRANCH   1  14
BRANCH   7  24
HETATM   24  C14 UNL     1      16.254  -1.087  52.503  1.00  0.00    -0.022 C 
HETATM   25  C15 UNL     1      15.241  -0.272  52.791  1.00  0.00    -0.015 C 
HETATM   26  C16 UNL     1      14.415  -0.055  51.809  1.00  0.00     0.013 C 
HETATM   27  C17 UNL     1      14.430  -1.325  51.093  1.00  0.00     0.002 C 
HETATM   28  C18 UNL     1      15.545  -1.937  51.521  1.00  0.00     0.012 C 
ENDBRANCH   7  24
TORSDOF 7
ENDMDL
MODEL 9
REMARK VINA RESULT:      -7.5      2.066      7.456
REMARK  7 active torsions:
REMARK  status: ('A' for Active; 'I' for Inactive)
REMARK    1  A    between atoms: C3_3  and  C4_4 
REMARK    2  A    between atoms: C5_5  and  C6_6 
REMARK    3  A    between atoms: C6_6  and  C7_7 
REMARK    4  A    between atoms: C7_7  and  C8_8 
REMARK    5  A    between atoms: C7_7  and  C9_10 
REMARK    6  A    between atoms: C8_8  and  O1_9 
REMARK    7  A    between atoms: C13_16  and  C14_17 
ROOT
HETATM    1  C9  UNL     1      23.876   2.008  51.166  1.00  0.00     0.168 C 
HETATM    2  O2  UNL     1      22.484   1.901  51.059  1.00  0.00    -0.351 OA
HETATM    3  C10 UNL     1      21.372   2.598  51.585  1.00  0.00     0.160 C 
HETATM    4  C11 UNL     1      21.255   3.920  51.683  1.00  0.00     0.166 C 
HETATM    5  O3  UNL     1      21.999   5.103  51.388  1.00  0.00    -0.320 OA
HETATM    6  C12 UNL     1      22.955   5.224  50.377  1.00  0.00     0.086 C 
HETATM    7  C13 UNL     1      22.792   6.163  49.419  1.00  0.00     0.050 C 
HETATM    8  C19 UNL     1      24.166   4.437  50.203  1.00  0.00     0.007 A 
HETATM    9  C20 UNL     1      25.051   5.275  49.570  1.00  0.00     0.015 A 
HETATM   10  C21 UNL     1      26.322   4.886  49.194  1.00  0.00     0.001 A 
HETATM   11  C22 UNL     1      26.694   3.571  49.487  1.00  0.00     0.001 A 
HETATM   12  C23 UNL     1      25.793   2.717  50.133  1.00  0.00     0.011 A 
HETATM   13  C24 UNL     1      24.523   3.116  50.508  1.00  0.00    -0.015 A 
ENDROOT
BRANCH   1  14
HETATM   14  C7  UNL     1      24.205   1.788  52.622  1.00  0.00     0.047 C 
BRANCH  14  15
HETATM   15  C6  UNL     1      25.068   0.514  52.749  1.00  0.00     0.036 C 
BRANCH  15  16
HETATM   16  C5  UNL     1      26.356   0.803  53.430  1.00  0.00    -0.026 C 
HETATM   17  C4  UNL     1      27.534   0.539  52.862  1.00  0.00    -0.004 C 
BRANCH  17  18
HETATM   18  C3  UNL     1      28.865   0.762  53.394  1.00  0.00    -0.005 C 
HETATM   19  C2  UNL     1      29.751  -0.185  53.654  1.00  0.00    -0.031 C 
HETATM   20  C1  UNL     1      29.413  -1.595  53.403  1.00  0.00     0.036 C 
ENDBRANCH  17  18
ENDBRANCH  15  16
ENDBRANCH  14  15
BRANCH  14  21
HETATM   21  C8  UNL     1      24.959   2.859  53.309  1.00  0.00     0.172 C 
BRANCH  21  22
HETATM   22  O1  UNL     1      24.190   3.985  53.576  1.00  0.00    -0.400 OA
HETATM   23  H13 UNL     1      23.540   3.746  54.291  1.00  0.00     0.209 HD
ENDBRANCH  21  22
ENDBRANCH  14  21
ENDBRANCH   1  14
BRANCH   7  24
HETATM   24  C14 UNL     1      21.582   6.985  49.557  1.00  0.00    -0.022 C 
HETATM   25  C15 UNL     1      21.540   8.231  50.027  1.00  0.00    -0.015 C 
HETATM   26  C16 UNL     1      20.611   8.982  49.508  1.00  0.00     0.013 C 
HETATM   27  C17 UNL     1      19.535   8.030  49.258  1.00  0.00     0.002 C 
HETATM   28  C18 UNL     1      20.136   6.830  49.290  1.00  0.00     0.012 C 
ENDBRANCH   7  24
TORSDOF 7
ENDMDL
