MODEL 1
REMARK VINA RESULT:      -9.0      0.000      0.000
REMARK  2 active torsions:
REMARK  status: ('A' for Active; 'I' for Inactive)
REMARK    1  A    between atoms: C5_6  and  N1_7 
REMARK    2  A    between atoms: N1_7  and  C6_8 
ROOT
HETATM    1  C6  UNL     1      22.973   3.065  50.504  1.00  0.00     0.117 C 
HETATM    2  C7  UNL     1      24.335   3.323  50.422  1.00  0.00     0.045 A 
HETATM    3  C8  UNL     1      25.524   2.834  51.063  1.00  0.00     0.076 A 
HETATM    4  N2  UNL     1      26.809   3.090  50.730  1.00  0.00    -0.262 NA
HETATM    5  C9  UNL     1      27.057   3.918  49.666  1.00  0.00     0.118 A 
HETATM    6  C10 UNL     1      26.055   4.530  48.894  1.00  0.00     0.031 A 
HETATM    7  C11 UNL     1      24.770   4.176  49.353  1.00  0.00    -0.021 A 
HETATM    8  C12 UNL     1      23.705   4.971  48.917  1.00  0.00     0.005 C 
HETATM    9  C13 UNL     1      22.816   5.414  50.136  1.00  0.00     0.152 C 
HETATM   10  N3  UNL     1      22.980   4.370  51.142  1.00  0.00    -0.361 N 
HETATM   11  C14 UNL     1      23.207   4.647  52.581  1.00  0.00     0.144 C 
HETATM   12  C15 UNL     1      23.700   3.488  53.371  1.00  0.00     0.135 C 
HETATM   13  N4  UNL     1      25.029   3.102  53.412  1.00  0.00    -0.406 N 
HETATM   14  C16 UNL     1      25.567   2.165  52.441  1.00  0.00     0.071 C 
HETATM   15  C17 UNL     1      27.024   1.987  52.780  1.00  0.00     0.037 C 
HETATM   16  C18 UNL     1      27.540   0.636  52.308  1.00  0.00     0.003 C 
HETATM   17  C19 UNL     1      26.941  -0.381  53.263  1.00  0.00     0.000 C 
HETATM   18  C20 UNL     1      25.468  -0.177  53.346  1.00  0.00     0.003 C 
HETATM   19  C21 UNL     1      24.920   0.844  52.370  1.00  0.00     0.037 C 
HETATM   20  H14 UNL     1      25.557   3.165  54.288  1.00  0.00     0.154 HD
ENDROOT
BRANCH   1  21
HETATM   21  N1  UNL     1      22.148   1.877  50.035  1.00  0.00    -0.342 N 
HETATM   22  H4  UNL     1      22.374   1.496  49.091  1.00  0.00     0.167 HD
BRANCH  21  23
HETATM   23  C5  UNL     1      21.107   1.212  50.720  1.00  0.00     0.034 A 
HETATM   24  C4  UNL     1      19.817   0.974  50.345  1.00  0.00     0.029 A 
HETATM   25  C3  UNL     1      18.957   0.290  51.186  1.00  0.00     0.004 A 
HETATM   26  C2  UNL     1      19.421  -0.152  52.423  1.00  0.00     0.019 A 
HETATM   27  C1  UNL     1      20.727   0.072  52.838  1.00  0.00     0.013 A 
HETATM   28 BR1  UNL     1      21.322  -0.558  54.546  1.00  0.00    -0.051 Br
HETATM   29  C22 UNL     1      21.566   0.763  51.966  1.00  0.00     0.048 A 
ENDBRANCH  21  23
ENDBRANCH   1  21
TORSDOF 2
ENDMDL
MODEL 2
REMARK VINA RESULT:      -8.5      6.105      8.860
REMARK  2 active torsions:
REMARK  status: ('A' for Active; 'I' for Inactive)
REMARK    1  A    between atoms: C5_6  and  N1_7 
REMARK    2  A    between atoms: N1_7  and  C6_8 
ROOT
HETATM    1  C6  UNL     1      29.868   6.276  48.120  1.00  0.00     0.117 C 
HETATM    2  C7  UNL     1      30.727   6.706  47.117  1.00  0.00     0.045 A 
HETATM    3  C8  UNL     1      31.981   6.272  46.568  1.00  0.00     0.076 A 
HETATM    4  N2  UNL     1      32.602   6.730  45.459  1.00  0.00    -0.262 NA
HETATM    5  C9  UNL     1      32.007   7.737  44.745  1.00  0.00     0.118 A 
HETATM    6  C10 UNL     1      30.785   8.337  45.095  1.00  0.00     0.031 A 
HETATM    7  C11 UNL     1      30.254   7.762  46.269  1.00  0.00    -0.021 A 
HETATM    8  C12 UNL     1      29.247   8.480  46.920  1.00  0.00     0.005 C 
HETATM    9  C13 UNL     1      29.573   8.617  48.452  1.00  0.00     0.152 C 
HETATM   10  N3  UNL     1      30.393   7.456  48.784  1.00  0.00    -0.361 N 
HETATM   11  C14 UNL     1      31.623   7.531  49.609  1.00  0.00     0.144 C 
HETATM   12  C15 UNL     1      32.498   6.332  49.536  1.00  0.00     0.135 C 
HETATM   13  N4  UNL     1      33.404   6.108  48.513  1.00  0.00    -0.406 N 
HETATM   14  C16 UNL     1      33.010   5.406  47.304  1.00  0.00     0.071 C 
HETATM   15  C17 UNL     1      34.229   5.355  46.422  1.00  0.00     0.037 C 
HETATM   16  C18 UNL     1      34.176   4.167  45.473  1.00  0.00     0.003 C 
HETATM   17  C19 UNL     1      34.449   2.948  46.336  1.00  0.00     0.000 C 
HETATM   18  C20 UNL     1      33.533   2.957  47.511  1.00  0.00     0.003 C 
HETATM   19  C21 UNL     1      32.477   4.043  47.476  1.00  0.00     0.037 C 
HETATM   20  H14 UNL     1      34.410   6.098  48.708  1.00  0.00     0.154 HD
ENDROOT
BRANCH   1  21
HETATM   21  N1  UNL     1      28.926   5.084  48.190  1.00  0.00    -0.342 N 
HETATM   22  H4  UNL     1      29.305   4.171  47.859  1.00  0.00     0.167 HD
BRANCH  21  23
HETATM   23  C5  UNL     1      27.592   5.051  48.652  1.00  0.00     0.034 A 
HETATM   24  C4  UNL     1      26.915   4.072  49.319  1.00  0.00     0.029 A 
HETATM   25  C3  UNL     1      25.592   4.257  49.682  1.00  0.00     0.004 A 
HETATM   26  C2  UNL     1      24.957   5.453  49.359  1.00  0.00     0.019 A 
HETATM   27  C1  UNL     1      25.614   6.472  48.680  1.00  0.00     0.013 A 
HETATM   28 BR1  UNL     1      24.702   8.102  48.259  1.00  0.00    -0.051 Br
HETATM   29  C22 UNL     1      26.946   6.252  48.330  1.00  0.00     0.048 A 
ENDBRANCH  21  23
ENDBRANCH   1  21
TORSDOF 2
ENDMDL
MODEL 3
REMARK VINA RESULT:      -8.0      1.885      5.338
REMARK  2 active torsions:
REMARK  status: ('A' for Active; 'I' for Inactive)
REMARK    1  A    between atoms: C5_6  and  N1_7 
REMARK    2  A    between atoms: N1_7  and  C6_8 
ROOT
HETATM    1  C6  UNL     1      24.084   4.385  51.526  1.00  0.00     0.117 C 
HETATM    2  C7  UNL     1      23.059   5.183  51.035  1.00  0.00     0.045 A 
HETATM    3  C8  UNL     1      21.663   5.015  50.742  1.00  0.00     0.076 A 
HETATM    4  N2  UNL     1      20.765   5.972  50.418  1.00  0.00    -0.262 NA
HETATM    5  C9  UNL     1      21.193   7.271  50.336  1.00  0.00     0.118 A 
HETATM    6  C10 UNL     1      22.518   7.680  50.562  1.00  0.00     0.031 A 
HETATM    7  C11 UNL     1      23.341   6.583  50.889  1.00  0.00    -0.021 A 
HETATM    8  C12 UNL     1      24.722   6.782  50.794  1.00  0.00     0.005 C 
HETATM    9  C13 UNL     1      25.388   5.625  49.963  1.00  0.00     0.152 C 
HETATM   10  N3  UNL     1      24.522   4.464  50.143  1.00  0.00    -0.361 N 
HETATM   11  C14 UNL     1      24.105   3.573  49.033  1.00  0.00     0.144 C 
HETATM   12  C15 UNL     1      22.959   2.680  49.346  1.00  0.00     0.135 C 
HETATM   13  N4  UNL     1      21.637   3.086  49.289  1.00  0.00    -0.406 N 
HETATM   14  C16 UNL     1      20.983   3.674  50.445  1.00  0.00     0.071 C 
HETATM   15  C17 UNL     1      19.574   3.998  50.022  1.00  0.00     0.037 C 
HETATM   16  C18 UNL     1      18.628   4.010  51.212  1.00  0.00     0.003 C 
HETATM   17  C19 UNL     1      18.439   2.552  51.592  1.00  0.00     0.000 C 
HETATM   18  C20 UNL     1      19.770   1.904  51.753  1.00  0.00     0.003 C 
HETATM   19  C21 UNL     1      20.946   2.857  51.670  1.00  0.00     0.037 C 
HETATM   20  H14 UNL     1      21.001   2.676  48.597  1.00  0.00     0.154 HD
ENDROOT
BRANCH   1  21
HETATM   21  N1  UNL     1      24.358   3.852  52.924  1.00  0.00    -0.342 N 
HETATM   22  H4  UNL     1      24.221   4.521  53.712  1.00  0.00     0.167 HD
BRANCH  21  23
HETATM   23  C5  UNL     1      24.772   2.555  53.299  1.00  0.00     0.034 A 
HETATM   24  C4  UNL     1      25.970   2.119  53.783  1.00  0.00     0.029 A 
HETATM   25  C3  UNL     1      26.159   0.783  54.090  1.00  0.00     0.004 A 
HETATM   26  C2  UNL     1      25.111  -0.115  53.899  1.00  0.00     0.019 A 
HETATM   27  C1  UNL     1      23.878   0.293  53.407  1.00  0.00     0.013 A 
HETATM   28 BR1  UNL     1      22.464  -0.976  53.162  1.00  0.00    -0.051 Br
HETATM   29  C22 UNL     1      23.723   1.646  53.108  1.00  0.00     0.048 A 
ENDBRANCH  21  23
ENDBRANCH   1  21
TORSDOF 2
ENDMDL
MODEL 4
REMARK VINA RESULT:      -8.0      2.782      5.220
REMARK  2 active torsions:
REMARK  status: ('A' for Active; 'I' for Inactive)
REMARK    1  A    between atoms: C5_6  and  N1_7 
REMARK    2  A    between atoms: N1_7  and  C6_8 
ROOT
HETATM    1  C6  UNL     1      22.814   2.471  50.178  1.00  0.00     0.117 C 
HETATM    2  C7  UNL     1      23.057   1.785  51.361  1.00  0.00     0.045 A 
HETATM    3  C8  UNL     1      22.269   1.074  52.329  1.00  0.00     0.076 A 
HETATM    4  N2  UNL     1      22.708   0.312  53.354  1.00  0.00    -0.262 NA
HETATM    5  C9  UNL     1      24.059   0.180  53.540  1.00  0.00     0.118 A 
HETATM    6  C10 UNL     1      25.029   0.795  52.732  1.00  0.00     0.031 A 
HETATM    7  C11 UNL     1      24.431   1.556  51.707  1.00  0.00    -0.021 A 
HETATM    8  C12 UNL     1      25.245   2.489  51.058  1.00  0.00     0.005 C 
HETATM    9  C13 UNL     1      24.539   3.892  51.004  1.00  0.00     0.152 C 
HETATM   10  N3  UNL     1      23.107   3.612  51.028  1.00  0.00    -0.361 N 
HETATM   11  C14 UNL     1      22.141   4.352  51.876  1.00  0.00     0.144 C 
HETATM   12  C15 UNL     1      20.815   3.697  52.030  1.00  0.00     0.135 C 
HETATM   13  N4  UNL     1      20.567   2.678  52.933  1.00  0.00    -0.406 N 
HETATM   14  C16 UNL     1      20.769   1.287  52.568  1.00  0.00     0.071 C 
HETATM   15  C17 UNL     1      20.414   0.469  53.782  1.00  0.00     0.037 C 
HETATM   16  C18 UNL     1      19.969  -0.932  53.393  1.00  0.00     0.003 C 
HETATM   17  C19 UNL     1      18.583  -0.766  52.797  1.00  0.00     0.000 C 
HETATM   18  C20 UNL     1      18.620   0.283  51.740  1.00  0.00     0.003 C 
HETATM   19  C21 UNL     1      20.008   0.791  51.408  1.00  0.00     0.037 C 
HETATM   20  H14 UNL     1      19.920   2.828  53.714  1.00  0.00     0.154 HD
ENDROOT
BRANCH   1  21
HETATM   21  N1  UNL     1      22.446   1.974  48.789  1.00  0.00    -0.342 N 
HETATM   22  H4  UNL     1      22.789   1.025  48.528  1.00  0.00     0.167 HD
BRANCH  21  23
HETATM   23  C5  UNL     1      21.689   2.636  47.796  1.00  0.00     0.034 A 
HETATM   24  C4  UNL     1      22.090   3.255  46.649  1.00  0.00     0.029 A 
HETATM   25  C3  UNL     1      21.163   3.846  45.809  1.00  0.00     0.004 A 
HETATM   26  C2  UNL     1      19.813   3.804  46.148  1.00  0.00     0.019 A 
HETATM   27  C1  UNL     1      19.367   3.183  47.308  1.00  0.00     0.013 A 
HETATM   28 BR1  UNL     1      17.500   3.147  47.732  1.00  0.00    -0.051 Br
HETATM   29  C22 UNL     1      20.329   2.598  48.131  1.00  0.00     0.048 A 
ENDBRANCH  21  23
ENDBRANCH   1  21
TORSDOF 2
ENDMDL
MODEL 5
REMARK VINA RESULT:      -7.7      7.488     11.313
REMARK  2 active torsions:
REMARK  status: ('A' for Active; 'I' for Inactive)
REMARK    1  A    between atoms: C5_6  and  N1_7 
REMARK    2  A    between atoms: N1_7  and  C6_8 
ROOT
HETATM    1  C6  UNL     1      31.205   7.454  47.333  1.00  0.00     0.117 C 
HETATM    2  C7  UNL     1      29.947   7.234  47.878  1.00  0.00     0.045 A 
HETATM    3  C8  UNL     1      28.831   8.047  48.274  1.00  0.00     0.076 A 
HETATM    4  N2  UNL     1      27.597   7.636  48.640  1.00  0.00    -0.262 NA
HETATM    5  C9  UNL     1      27.334   6.292  48.661  1.00  0.00     0.118 A 
HETATM    6  C10 UNL     1      28.273   5.300  48.331  1.00  0.00     0.031 A 
HETATM    7  C11 UNL     1      29.511   5.870  47.970  1.00  0.00    -0.021 A 
HETATM    8  C12 UNL     1      30.618   5.016  47.961  1.00  0.00     0.005 C 
HETATM    9  C13 UNL     1      31.808   5.651  48.768  1.00  0.00     0.152 C 
HETATM   10  N3  UNL     1      31.618   7.095  48.678  1.00  0.00    -0.361 N 
HETATM   11  C14 UNL     1      31.751   8.013  49.835  1.00  0.00     0.144 C 
HETATM   12  C15 UNL     1      31.178   9.369  49.626  1.00  0.00     0.135 C 
HETATM   13  N4  UNL     1      29.832   9.659  49.769  1.00  0.00    -0.406 N 
HETATM   14  C16 UNL     1      28.915   9.531  48.649  1.00  0.00     0.071 C 
HETATM   15  C17 UNL     1      27.553   9.915  49.166  1.00  0.00     0.037 C 
HETATM   16  C18 UNL     1      26.664  10.434  48.046  1.00  0.00     0.003 C 
HETATM   17  C19 UNL     1      27.197  11.816  47.714  1.00  0.00     0.000 C 
HETATM   18  C20 UNL     1      28.664  11.737  47.473  1.00  0.00     0.003 C 
HETATM   19  C21 UNL     1      29.222  10.328  47.450  1.00  0.00     0.037 C 
HETATM   20  H14 UNL     1      29.516  10.289  50.514  1.00  0.00     0.154 HD
ENDROOT
BRANCH   1  21
HETATM   21  N1  UNL     1      31.633   7.862  45.931  1.00  0.00    -0.342 N 
HETATM   22  H4  UNL     1      31.477   8.858  45.668  1.00  0.00     0.167 HD
BRANCH  21  23
HETATM   23  C5  UNL     1      32.224   7.059  44.930  1.00  0.00     0.034 A 
HETATM   24  C4  UNL     1      32.082   7.095  43.574  1.00  0.00     0.029 A 
HETATM   25  C3  UNL     1      32.769   6.200  42.773  1.00  0.00     0.004 A 
HETATM   26  C2  UNL     1      33.608   5.260  43.365  1.00  0.00     0.019 A 
HETATM   27  C1  UNL     1      33.778   5.194  44.742  1.00  0.00     0.013 A 
HETATM   28 BR1  UNL     1      34.945   3.886  45.512  1.00  0.00    -0.051 Br
HETATM   29  C22 UNL     1      33.071   6.110  45.519  1.00  0.00     0.048 A 
ENDBRANCH  21  23
ENDBRANCH   1  21
TORSDOF 2
ENDMDL
MODEL 6
REMARK VINA RESULT:      -7.7      7.155     10.324
REMARK  2 active torsions:
REMARK  status: ('A' for Active; 'I' for Inactive)
REMARK    1  A    between atoms: C5_6  and  N1_7 
REMARK    2  A    between atoms: N1_7  and  C6_8 
ROOT
HETATM    1  C6  UNL     1      30.919   7.335  47.658  1.00  0.00     0.117 C 
HETATM    2  C7  UNL     1      31.417   8.064  46.587  1.00  0.00     0.045 A 
HETATM    3  C8  UNL     1      32.320   7.821  45.497  1.00  0.00     0.076 A 
HETATM    4  N2  UNL     1      32.564   8.617  44.432  1.00  0.00    -0.262 NA
HETATM    5  C9  UNL     1      31.903   9.814  44.344  1.00  0.00     0.118 A 
HETATM    6  C10 UNL     1      30.983  10.278  45.299  1.00  0.00     0.031 A 
HETATM    7  C11 UNL     1      30.828   9.351  46.350  1.00  0.00    -0.021 A 
HETATM    8  C12 UNL     1      30.230   9.823  47.522  1.00  0.00     0.005 C 
HETATM    9  C13 UNL     1      31.094   9.432  48.776  1.00  0.00     0.152 C 
HETATM   10  N3  UNL     1      31.807   8.215  48.398  1.00  0.00    -0.361 N 
HETATM   11  C14 UNL     1      33.246   7.990  48.671  1.00  0.00     0.144 C 
HETATM   12  C15 UNL     1      33.860   6.873  47.907  1.00  0.00     0.135 C 
HETATM   13  N4  UNL     1      34.302   6.993  46.600  1.00  0.00    -0.406 N 
HETATM   14  C16 UNL     1      33.410   6.743  45.482  1.00  0.00     0.071 C 
HETATM   15  C17 UNL     1      34.216   6.974  44.231  1.00  0.00     0.037 C 
HETATM   16  C18 UNL     1      33.663   6.175  43.061  1.00  0.00     0.003 C 
HETATM   17  C19 UNL     1      34.049   4.733  43.338  1.00  0.00     0.000 C 
HETATM   18  C20 UNL     1      33.621   4.360  44.714  1.00  0.00     0.003 C 
HETATM   19  C21 UNL     1      32.786   5.410  45.418  1.00  0.00     0.037 C 
HETATM   20  H14 UNL     1      35.300   6.902  46.383  1.00  0.00     0.154 HD
ENDROOT
BRANCH   1  21
HETATM   21  N1  UNL     1      29.905   6.202  47.715  1.00  0.00    -0.342 N 
HETATM   22  H4  UNL     1      30.262   5.247  47.500  1.00  0.00     0.167 HD
BRANCH  21  23
HETATM   23  C5  UNL     1      28.529   6.276  48.028  1.00  0.00     0.034 A 
HETATM   24  C4  UNL     1      27.644   7.302  47.870  1.00  0.00     0.029 A 
HETATM   25  C3  UNL     1      26.322   7.152  48.251  1.00  0.00     0.004 A 
HETATM   26  C2  UNL     1      25.903   5.942  48.800  1.00  0.00     0.019 A 
HETATM   27  C1  UNL     1      26.776   4.877  48.976  1.00  0.00     0.013 A 
HETATM   28 BR1  UNL     1      26.156   3.230  49.733  1.00  0.00    -0.051 Br
HETATM   29  C22 UNL     1      28.101   5.062  48.582  1.00  0.00     0.048 A 
ENDBRANCH  21  23
ENDBRANCH   1  21
TORSDOF 2
ENDMDL
MODEL 7
REMARK VINA RESULT:      -7.6      2.956      6.452
REMARK  2 active torsions:
REMARK  status: ('A' for Active; 'I' for Inactive)
REMARK    1  A    between atoms: C5_6  and  N1_7 
REMARK    2  A    between atoms: N1_7  and  C6_8 
ROOT
HETATM    1  C6  UNL     1      22.525   2.165  50.773  1.00  0.00     0.117 C 
HETATM    2  C7  UNL     1      21.953   1.297  51.694  1.00  0.00     0.045 A 
HETATM    3  C8  UNL     1      20.642   0.766  51.944  1.00  0.00     0.076 A 
HETATM    4  N2  UNL     1      20.299  -0.218  52.804  1.00  0.00    -0.262 NA
HETATM    5  C9  UNL     1      21.283  -0.802  53.558  1.00  0.00     0.118 A 
HETATM    6  C10 UNL     1      22.639  -0.440  53.500  1.00  0.00     0.031 A 
HETATM    7  C11 UNL     1      22.851   0.595  52.565  1.00  0.00    -0.021 A 
HETATM    8  C12 UNL     1      24.063   1.286  52.656  1.00  0.00     0.005 C 
HETATM    9  C13 UNL     1      23.811   2.837  52.662  1.00  0.00     0.152 C 
HETATM   10  N3  UNL     1      22.562   3.036  51.935  1.00  0.00    -0.361 N 
HETATM   11  C14 UNL     1      21.479   3.938  52.397  1.00  0.00     0.144 C 
HETATM   12  C15 UNL     1      20.168   3.735  51.727  1.00  0.00     0.135 C 
HETATM   13  N4  UNL     1      19.268   2.748  52.092  1.00  0.00    -0.406 N 
HETATM   14  C16 UNL     1      19.329   1.422  51.501  1.00  0.00     0.071 C 
HETATM   15  C17 UNL     1      18.221   0.620  52.132  1.00  0.00     0.037 C 
HETATM   16  C18 UNL     1      17.760  -0.502  51.215  1.00  0.00     0.003 C 
HETATM   17  C19 UNL     1      16.971   0.176  50.110  1.00  0.00     0.000 C 
HETATM   18  C20 UNL     1      17.784   1.278  49.525  1.00  0.00     0.003 C 
HETATM   19  C21 UNL     1      19.209   1.346  50.035  1.00  0.00     0.037 C 
HETATM   20  H14 UNL     1      18.357   3.001  52.486  1.00  0.00     0.154 HD
ENDROOT
BRANCH   1  21
HETATM   21  N1  UNL     1      22.849   1.990  49.297  1.00  0.00    -0.342 N 
HETATM   22  H4  UNL     1      23.335   1.107  49.029  1.00  0.00     0.167 HD
BRANCH  21  23
HETATM   23  C5  UNL     1      22.571   2.874  48.231  1.00  0.00     0.034 A 
HETATM   24  C4  UNL     1      22.058   2.625  46.992  1.00  0.00     0.029 A 
HETATM   25  C3  UNL     1      21.865   3.659  46.092  1.00  0.00     0.004 A 
HETATM   26  C2  UNL     1      22.202   4.958  46.464  1.00  0.00     0.019 A 
HETATM   27  C1  UNL     1      22.727   5.249  47.717  1.00  0.00     0.013 A 
HETATM   28 BR1  UNL     1      23.173   7.051  48.186  1.00  0.00    -0.051 Br
HETATM   29  C22 UNL     1      22.908   4.184  48.598  1.00  0.00     0.048 A 
ENDBRANCH  21  23
ENDBRANCH   1  21
TORSDOF 2
ENDMDL
MODEL 8
REMARK VINA RESULT:      -7.4      2.938      5.976
REMARK  2 active torsions:
REMARK  status: ('A' for Active; 'I' for Inactive)
REMARK    1  A    between atoms: C5_6  and  N1_7 
REMARK    2  A    between atoms: N1_7  and  C6_8 
ROOT
HETATM    1  C6  UNL     1      24.630   5.038  49.660  1.00  0.00     0.117 C 
HETATM    2  C7  UNL     1      24.193   5.863  48.631  1.00  0.00     0.045 A 
HETATM    3  C8  UNL     1      24.775   6.877  47.797  1.00  0.00     0.076 A 
HETATM    4  N2  UNL     1      24.229   7.469  46.712  1.00  0.00    -0.262 NA
HETATM    5  C9  UNL     1      22.966   7.099  46.330  1.00  0.00     0.118 A 
HETATM    6  C10 UNL     1      22.190   6.139  47.001  1.00  0.00     0.031 A 
HETATM    7  C11 UNL     1      22.882   5.607  48.108  1.00  0.00    -0.021 A 
HETATM    8  C12 UNL     1      22.119   4.918  49.056  1.00  0.00     0.005 C 
HETATM    9  C13 UNL     1      22.438   5.441  50.503  1.00  0.00     0.152 C 
HETATM   10  N3  UNL     1      23.808   5.941  50.447  1.00  0.00    -0.361 N 
HETATM   11  C14 UNL     1      24.235   7.229  51.044  1.00  0.00     0.144 C 
HETATM   12  C15 UNL     1      25.558   7.725  50.581  1.00  0.00     0.135 C 
HETATM   13  N4  UNL     1      25.742   8.411  49.392  1.00  0.00    -0.406 N 
HETATM   14  C16 UNL     1      26.016   7.703  48.154  1.00  0.00     0.071 C 
HETATM   15  C17 UNL     1      26.149   8.752  47.081  1.00  0.00     0.037 C 
HETATM   16  C18 UNL     1      27.024   8.266  45.937  1.00  0.00     0.003 C 
HETATM   17  C19 UNL     1      28.443   8.287  46.476  1.00  0.00     0.000 C 
HETATM   18  C20 UNL     1      28.494   7.549  47.768  1.00  0.00     0.003 C 
HETATM   19  C21 UNL     1      27.208   6.838  48.136  1.00  0.00     0.037 C 
HETATM   20  H14 UNL     1      26.045   9.390  49.404  1.00  0.00     0.154 HD
ENDROOT
BRANCH   1  21
HETATM   21  N1  UNL     1      25.537   3.817  49.650  1.00  0.00    -0.342 N 
HETATM   22  H4  UNL     1      26.212   3.746  48.858  1.00  0.00     0.167 HD
BRANCH  21  23
HETATM   23  C5  UNL     1      25.588   2.759  50.584  1.00  0.00     0.034 A 
HETATM   24  C4  UNL     1      26.661   2.124  51.137  1.00  0.00     0.029 A 
HETATM   25  C3  UNL     1      26.476   1.098  52.047  1.00  0.00     0.004 A 
HETATM   26  C2  UNL     1      25.181   0.718  52.393  1.00  0.00     0.019 A 
HETATM   27  C1  UNL     1      24.065   1.342  51.850  1.00  0.00     0.013 A 
HETATM   28 BR1  UNL     1      22.303   0.788  52.356  1.00  0.00    -0.051 Br
HETATM   29  C22 UNL     1      24.288   2.371  50.936  1.00  0.00     0.048 A 
ENDBRANCH  21  23
ENDBRANCH   1  21
TORSDOF 2
ENDMDL
MODEL 9
REMARK VINA RESULT:      -7.2      6.783     10.070
REMARK  2 active torsions:
REMARK  status: ('A' for Active; 'I' for Inactive)
REMARK    1  A    between atoms: C5_6  and  N1_7 
REMARK    2  A    between atoms: N1_7  and  C6_8 
ROOT
HETATM    1  C6  UNL     1      27.853   8.989  47.747  1.00  0.00     0.117 C 
HETATM    2  C7  UNL     1      28.021   7.623  47.937  1.00  0.00     0.045 A 
HETATM    3  C8  UNL     1      29.132   6.723  48.067  1.00  0.00     0.076 A 
HETATM    4  N2  UNL     1      29.104   5.419  48.421  1.00  0.00    -0.262 NA
HETATM    5  C9  UNL     1      27.891   4.839  48.685  1.00  0.00     0.118 A 
HETATM    6  C10 UNL     1      26.661   5.514  48.608  1.00  0.00     0.031 A 
HETATM    7  C11 UNL     1      26.841   6.860  48.230  1.00  0.00    -0.021 A 
HETATM    8  C12 UNL     1      25.709   7.544  47.777  1.00  0.00     0.005 C 
HETATM    9  C13 UNL     1      26.013   8.269  46.416  1.00  0.00     0.152 C 
HETATM   10  N3  UNL     1      27.447   8.540  46.427  1.00  0.00    -0.361 N 
HETATM   11  C14 UNL     1      28.336   8.297  45.265  1.00  0.00     0.144 C 
HETATM   12  C15 UNL     1      29.789   8.293  45.580  1.00  0.00     0.135 C 
HETATM   13  N4  UNL     1      30.454   7.197  46.102  1.00  0.00    -0.406 N 
HETATM   14  C16 UNL     1      30.546   6.990  47.537  1.00  0.00     0.071 C 
HETATM   15  C17 UNL     1      31.320   5.713  47.737  1.00  0.00     0.037 C 
HETATM   16  C18 UNL     1      32.024   5.699  49.085  1.00  0.00     0.003 C 
HETATM   17  C19 UNL     1      33.183   6.669  48.946  1.00  0.00     0.000 C 
HETATM   18  C20 UNL     1      32.682   7.970  48.424  1.00  0.00     0.003 C 
HETATM   19  C21 UNL     1      31.173   8.066  48.322  1.00  0.00     0.037 C 
HETATM   20  H14 UNL     1      31.178   6.723  45.552  1.00  0.00     0.154 HD
ENDROOT
BRANCH   1  21
HETATM   21  N1  UNL     1      28.064  10.165  48.688  1.00  0.00    -0.342 N 
HETATM   22  H4  UNL     1      28.589   9.969  49.567  1.00  0.00     0.167 HD
BRANCH  21  23
HETATM   23  C5  UNL     1      27.642  11.503  48.522  1.00  0.00     0.034 A 
HETATM   24  C4  UNL     1      28.335  12.669  48.664  1.00  0.00     0.029 A 
HETATM   25  C3  UNL     1      27.712  13.886  48.448  1.00  0.00     0.004 A 
HETATM   26  C2  UNL     1      26.368  13.908  48.083  1.00  0.00     0.019 A 
HETATM   27  C1  UNL     1      25.631  12.741  47.930  1.00  0.00     0.013 A 
HETATM   28 BR1  UNL     1      23.785  12.820  47.425  1.00  0.00    -0.051 Br
HETATM   29  C22 UNL     1      26.289  11.534  48.156  1.00  0.00     0.048 A 
ENDBRANCH  21  23
ENDBRANCH   1  21
TORSDOF 2
ENDMDL
