MODEL 1
REMARK VINA RESULT:      -6.9      0.000      0.000
REMARK  10 active torsions:
REMARK  status: ('A' for Active; 'I' for Inactive)
REMARK    1  A    between atoms: C2_2  and  C3_3 
REMARK    2  A    between atoms: C4_4  and  C5_5 
REMARK    3  A    between atoms: C5_5  and  C6_6 
REMARK    4  A    between atoms: C6_6  and  C7_7 
REMARK    5  A    between atoms: C7_7  and  N1_8 
REMARK    6  A    between atoms: N1_8  and  C8_9 
REMARK    7  A    between atoms: C10_12  and  C19_23 
REMARK    8  A    between atoms: N4_17  and  C14_18 
REMARK    9  A    between atoms: C14_18  and  C15_19 
REMARK   10  A    between atoms: C18_22  and  C19_23 
ROOT
HETATM    1  C8  UNL     1      23.992   3.158  51.053  1.00  0.00     0.133 A 
HETATM    2  C9  UNL     1      23.390   4.110  51.918  1.00  0.00     0.092 C 
HETATM    3  N2  UNL     1      22.881   4.882  52.623  1.00  0.00    -0.195 NA
HETATM    4  C10 UNL     1      24.389   3.625  49.702  1.00  0.00     0.043 A 
HETATM    5  N3  UNL     1      25.124   3.128  50.683  1.00  0.00     0.000 N 
HETATM    6  C11 UNL     1      26.483   2.629  50.920  1.00  0.00     0.012 A 
HETATM    7  C12 UNL     1      27.189   2.115  52.003  1.00  0.00     0.014 A 
HETATM    8  C13 UNL     1      26.554   1.990  53.219  1.00  0.00     0.022 A 
HETATM    9  N4  UNL     1      27.087   1.534  54.377  1.00  0.00    -0.387 N 
HETATM   10  C17 UNL     1      25.332   2.490  52.779  1.00  0.00     0.017 A 
HETATM   11  C18 UNL     1      25.458   2.804  51.466  1.00  0.00     0.036 A 
HETATM   12  C19 UNL     1      25.828   3.081  50.009  1.00  0.00     0.025 A 
HETATM   13  H13 UNL     1      26.266   1.584  54.997  1.00  0.00     0.160 HD
ENDROOT
BRANCH   1  14
HETATM   14  N1  UNL     1      23.184   1.993  50.975  1.00  0.00    -0.397 N 
HETATM   15  H10 UNL     1      23.404   1.319  50.229  1.00  0.00     0.155 HD
BRANCH  14  16
HETATM   16  C7  UNL     1      21.882   1.981  51.489  1.00  0.00     0.143 C 
BRANCH  16  17
HETATM   17  C6  UNL     1      21.716   0.961  52.542  1.00  0.00    -0.008 C 
BRANCH  17  18
HETATM   18  C5  UNL     1      21.585   0.165  53.556  1.00  0.00    -0.002 C 
BRANCH  18  19
HETATM   19  C4  UNL     1      21.340  -0.687  54.681  1.00  0.00    -0.001 C 
HETATM   20  C3  UNL     1      22.498  -1.172  55.063  1.00  0.00    -0.004 C 
BRANCH  20  21
HETATM   21  C2  UNL     1      23.792  -0.895  54.461  1.00  0.00    -0.026 C 
HETATM   22  C1  UNL     1      24.954  -0.977  55.105  1.00  0.00     0.031 C 
ENDBRANCH  20  21
ENDBRANCH  18  19
ENDBRANCH  17  18
ENDBRANCH  16  17
ENDBRANCH  14  16
ENDBRANCH   1  14
BRANCH   9  23
HETATM   23  C14 UNL     1      28.464   1.235  54.139  1.00  0.00     0.146 C 
BRANCH  23  24
HETATM   24  C15 UNL     1      28.760  -0.197  54.344  1.00  0.00    -0.018 C 
HETATM   25  C16 UNL     1      29.747  -0.797  53.699  1.00  0.00     0.008 C 
ENDBRANCH  23  24
ENDBRANCH   9  23
TORSDOF 10
ENDMDL
MODEL 2
REMARK VINA RESULT:      -6.6      2.846      6.126
REMARK  10 active torsions:
REMARK  status: ('A' for Active; 'I' for Inactive)
REMARK    1  A    between atoms: C2_2  and  C3_3 
REMARK    2  A    between atoms: C4_4  and  C5_5 
REMARK    3  A    between atoms: C5_5  and  C6_6 
REMARK    4  A    between atoms: C6_6  and  C7_7 
REMARK    5  A    between atoms: C7_7  and  N1_8 
REMARK    6  A    between atoms: N1_8  and  C8_9 
REMARK    7  A    between atoms: C10_12  and  C19_23 
REMARK    8  A    between atoms: N4_17  and  C14_18 
REMARK    9  A    between atoms: C14_18  and  C15_19 
REMARK   10  A    between atoms: C18_22  and  C19_23 
ROOT
HETATM    1  C8  UNL     1      24.259   3.789  51.169  1.00  0.00     0.133 A 
HETATM    2  C9  UNL     1      23.561   3.232  50.064  1.00  0.00     0.092 C 
HETATM    3  N2  UNL     1      22.995   2.790  49.150  1.00  0.00    -0.195 NA
HETATM    4  C10 UNL     1      23.450   4.464  52.212  1.00  0.00     0.043 A 
HETATM    5  N3  UNL     1      24.247   3.412  52.299  1.00  0.00     0.000 N 
HETATM    6  C11 UNL     1      24.869   2.562  53.320  1.00  0.00     0.012 A 
HETATM    7  C12 UNL     1      25.710   1.454  53.326  1.00  0.00     0.014 A 
HETATM    8  C13 UNL     1      26.141   0.932  52.126  1.00  0.00     0.022 A 
HETATM    9  N4  UNL     1      26.938  -0.147  51.943  1.00  0.00    -0.387 N 
HETATM   10  C17 UNL     1      25.467   1.856  51.333  1.00  0.00     0.017 A 
HETATM   11  C18 UNL     1      24.799   2.702  52.156  1.00  0.00     0.036 A 
HETATM   12  C19 UNL     1      24.139   3.525  53.262  1.00  0.00     0.025 A 
HETATM   13  H13 UNL     1      27.020  -0.151  50.917  1.00  0.00     0.160 HD
ENDROOT
BRANCH   1  14
HETATM   14  N1  UNL     1      25.305   4.631  50.708  1.00  0.00    -0.397 N 
HETATM   15  H10 UNL     1      25.749   5.249  51.400  1.00  0.00     0.155 HD
BRANCH  14  16
HETATM   16  C7  UNL     1      25.390   5.007  49.362  1.00  0.00     0.143 C 
BRANCH  16  17
HETATM   17  C6  UNL     1      26.790   5.090  48.902  1.00  0.00    -0.008 C 
BRANCH  17  18
HETATM   18  C5  UNL     1      28.007   5.297  48.510  1.00  0.00    -0.002 C 
BRANCH  18  19
HETATM   19  C4  UNL     1      29.374   5.428  48.100  1.00  0.00    -0.001 C 
HETATM   20  C3  UNL     1      29.635   6.711  48.015  1.00  0.00    -0.004 C 
BRANCH  20  21
HETATM   21  C2  UNL     1      28.712   7.801  48.287  1.00  0.00    -0.026 C 
HETATM   22  C1  UNL     1      28.980   8.831  49.086  1.00  0.00     0.031 C 
ENDBRANCH  20  21
ENDBRANCH  18  19
ENDBRANCH  17  18
ENDBRANCH  16  17
ENDBRANCH  14  16
ENDBRANCH   1  14
BRANCH   9  23
HETATM   23  C14 UNL     1      27.234  -0.698  53.228  1.00  0.00     0.146 C 
BRANCH  23  24
HETATM   24  C15 UNL     1      28.677  -0.963  53.394  1.00  0.00    -0.018 C 
HETATM   25  C16 UNL     1      29.524   0.002  53.712  1.00  0.00     0.008 C 
ENDBRANCH  23  24
ENDBRANCH   9  23
TORSDOF 10
ENDMDL
MODEL 3
REMARK VINA RESULT:      -6.4      2.460      6.902
REMARK  10 active torsions:
REMARK  status: ('A' for Active; 'I' for Inactive)
REMARK    1  A    between atoms: C2_2  and  C3_3 
REMARK    2  A    between atoms: C4_4  and  C5_5 
REMARK    3  A    between atoms: C5_5  and  C6_6 
REMARK    4  A    between atoms: C6_6  and  C7_7 
REMARK    5  A    between atoms: C7_7  and  N1_8 
REMARK    6  A    between atoms: N1_8  and  C8_9 
REMARK    7  A    between atoms: C10_12  and  C19_23 
REMARK    8  A    between atoms: N4_17  and  C14_18 
REMARK    9  A    between atoms: C14_18  and  C15_19 
REMARK   10  A    between atoms: C18_22  and  C19_23 
ROOT
HETATM    1  C8  UNL     1      24.210   2.415  52.253  1.00  0.00     0.133 A 
HETATM    2  C9  UNL     1      23.795   3.717  52.639  1.00  0.00     0.092 C 
HETATM    3  N2  UNL     1      23.461   4.790  52.940  1.00  0.00    -0.195 NA
HETATM    4  C10 UNL     1      25.459   1.894  52.857  1.00  0.00     0.043 A 
HETATM    5  N3  UNL     1      24.223   1.430  52.921  1.00  0.00     0.000 N 
HETATM    6  C11 UNL     1      23.499   0.232  53.363  1.00  0.00     0.012 A 
HETATM    7  C12 UNL     1      22.172  -0.184  53.397  1.00  0.00     0.014 A 
HETATM    8  C13 UNL     1      21.194   0.658  52.914  1.00  0.00     0.022 A 
HETATM    9  N4  UNL     1      19.859   0.430  52.889  1.00  0.00    -0.387 N 
HETATM   10  C17 UNL     1      22.067   1.681  52.557  1.00  0.00     0.017 A 
HETATM   11  C18 UNL     1      23.324   1.286  52.875  1.00  0.00     0.036 A 
HETATM   12  C19 UNL     1      24.638   0.638  53.313  1.00  0.00     0.025 A 
HETATM   13  H13 UNL     1      19.529   1.290  52.427  1.00  0.00     0.160 HD
ENDROOT
BRANCH   1  14
HETATM   14  N1  UNL     1      24.247   2.318  50.837  1.00  0.00    -0.397 N 
HETATM   15  H10 UNL     1      24.687   1.479  50.436  1.00  0.00     0.155 HD
BRANCH  14  16
HETATM   16  C7  UNL     1      24.191   3.463  50.032  1.00  0.00     0.143 C 
BRANCH  16  17
HETATM   17  C6  UNL     1      25.523   3.839  49.521  1.00  0.00    -0.008 C 
BRANCH  17  18
HETATM   18  C5  UNL     1      26.663   4.298  49.107  1.00  0.00    -0.002 C 
BRANCH  18  19
HETATM   19  C4  UNL     1      27.870   4.854  48.574  1.00  0.00    -0.001 C 
HETATM   20  C3  UNL     1      27.702   6.154  48.500  1.00  0.00    -0.004 C 
BRANCH  20  21
HETATM   21  C2  UNL     1      26.513   6.894  48.888  1.00  0.00    -0.026 C 
HETATM   22  C1  UNL     1      26.520   7.978  49.660  1.00  0.00     0.031 C 
ENDBRANCH  20  21
ENDBRANCH  18  19
ENDBRANCH  17  18
ENDBRANCH  16  17
ENDBRANCH  14  16
ENDBRANCH   1  14
BRANCH   9  23
HETATM   23  C14 UNL     1      19.619  -0.840  53.496  1.00  0.00     0.146 C 
BRANCH  23  24
HETATM   24  C15 UNL     1      18.241  -1.315  53.254  1.00  0.00    -0.018 C 
HETATM   25  C16 UNL     1      17.858  -2.531  53.605  1.00  0.00     0.008 C 
ENDBRANCH  23  24
ENDBRANCH   9  23
TORSDOF 10
ENDMDL
MODEL 4
REMARK VINA RESULT:      -6.2      2.053      4.374
REMARK  10 active torsions:
REMARK  status: ('A' for Active; 'I' for Inactive)
REMARK    1  A    between atoms: C2_2  and  C3_3 
REMARK    2  A    between atoms: C4_4  and  C5_5 
REMARK    3  A    between atoms: C5_5  and  C6_6 
REMARK    4  A    between atoms: C6_6  and  C7_7 
REMARK    5  A    between atoms: C7_7  and  N1_8 
REMARK    6  A    between atoms: N1_8  and  C8_9 
REMARK    7  A    between atoms: C10_12  and  C19_23 
REMARK    8  A    between atoms: N4_17  and  C14_18 
REMARK    9  A    between atoms: C14_18  and  C15_19 
REMARK   10  A    between atoms: C18_22  and  C19_23 
ROOT
HETATM    1  C8  UNL     1      22.188   0.983  52.782  1.00  0.00     0.133 A 
HETATM    2  C9  UNL     1      21.473   0.392  53.858  1.00  0.00     0.092 C 
HETATM    3  N2  UNL     1      20.876  -0.098  54.728  1.00  0.00    -0.195 NA
HETATM    4  C10 UNL     1      21.956   2.424  52.524  1.00  0.00     0.043 A 
HETATM    5  N3  UNL     1      23.067   1.783  52.848  1.00  0.00     0.000 N 
HETATM    6  C11 UNL     1      24.512   2.021  52.927  1.00  0.00     0.012 A 
HETATM    7  C12 UNL     1      25.633   1.279  53.285  1.00  0.00     0.014 A 
HETATM    8  C13 UNL     1      25.471  -0.031  53.683  1.00  0.00     0.022 A 
HETATM    9  N4  UNL     1      26.439  -0.889  54.084  1.00  0.00    -0.387 N 
HETATM   10  C17 UNL     1      24.088  -0.043  53.530  1.00  0.00     0.017 A 
HETATM   11  C18 UNL     1      23.706   1.185  53.100  1.00  0.00     0.036 A 
HETATM   12  C19 UNL     1      23.508   2.624  52.625  1.00  0.00     0.025 A 
HETATM   13  H13 UNL     1      25.882  -1.739  54.250  1.00  0.00     0.160 HD
ENDROOT
BRANCH   1  14
HETATM   14  N1  UNL     1      22.007   0.216  51.602  1.00  0.00    -0.397 N 
HETATM   15  H10 UNL     1      22.854  -0.149  51.146  1.00  0.00     0.155 HD
BRANCH  14  16
HETATM   16  C7  UNL     1      20.865   0.370  50.806  1.00  0.00     0.143 C 
BRANCH  16  17
HETATM   17  C6  UNL     1      21.164   1.077  49.547  1.00  0.00    -0.008 C 
BRANCH  17  18
HETATM   18  C5  UNL     1      21.489   1.792  48.515  1.00  0.00    -0.002 C 
BRANCH  18  19
HETATM   19  C4  UNL     1      21.766   2.642  47.396  1.00  0.00    -0.001 C 
HETATM   20  C3  UNL     1      22.662   3.519  47.785  1.00  0.00    -0.004 C 
BRANCH  20  21
HETATM   21  C2  UNL     1      23.266   3.611  49.103  1.00  0.00    -0.026 C 
HETATM   22  C1  UNL     1      24.577   3.653  49.329  1.00  0.00     0.031 C 
ENDBRANCH  20  21
ENDBRANCH  18  19
ENDBRANCH  17  18
ENDBRANCH  16  17
ENDBRANCH  14  16
ENDBRANCH   1  14
BRANCH   9  23
HETATM   23  C14 UNL     1      27.683  -0.186  54.070  1.00  0.00     0.146 C 
BRANCH  23  24
HETATM   24  C15 UNL     1      28.725  -0.927  53.331  1.00  0.00    -0.018 C 
HETATM   25  C16 UNL     1      29.998  -0.864  53.684  1.00  0.00     0.008 C 
ENDBRANCH  23  24
ENDBRANCH   9  23
TORSDOF 10
ENDMDL
MODEL 5
REMARK VINA RESULT:      -6.1      1.690      4.706
REMARK  10 active torsions:
REMARK  status: ('A' for Active; 'I' for Inactive)
REMARK    1  A    between atoms: C2_2  and  C3_3 
REMARK    2  A    between atoms: C4_4  and  C5_5 
REMARK    3  A    between atoms: C5_5  and  C6_6 
REMARK    4  A    between atoms: C6_6  and  C7_7 
REMARK    5  A    between atoms: C7_7  and  N1_8 
REMARK    6  A    between atoms: N1_8  and  C8_9 
REMARK    7  A    between atoms: C10_12  and  C19_23 
REMARK    8  A    between atoms: N4_17  and  C14_18 
REMARK    9  A    between atoms: C14_18  and  C15_19 
REMARK   10  A    between atoms: C18_22  and  C19_23 
ROOT
HETATM    1  C8  UNL     1      22.122   1.458  51.942  1.00  0.00     0.133 A 
HETATM    2  C9  UNL     1      22.189   1.489  50.523  1.00  0.00     0.092 C 
HETATM    3  N2  UNL     1      22.236   1.531  49.362  1.00  0.00    -0.195 NA
HETATM    4  C10 UNL     1      21.082   0.596  52.552  1.00  0.00     0.043 A 
HETATM    5  N3  UNL     1      22.400   0.551  52.661  1.00  0.00     0.000 N 
HETATM    6  C11 UNL     1      23.434  -0.113  53.463  1.00  0.00     0.012 A 
HETATM    7  C12 UNL     1      24.824  -0.105  53.512  1.00  0.00     0.014 A 
HETATM    8  C13 UNL     1      25.522   0.696  52.635  1.00  0.00     0.022 A 
HETATM    9  N4  UNL     1      26.867   0.812  52.527  1.00  0.00    -0.387 N 
HETATM   10  C17 UNL     1      24.393   1.215  52.007  1.00  0.00     0.017 A 
HETATM   11  C18 UNL     1      23.301   0.659  52.587  1.00  0.00     0.036 A 
HETATM   12  C19 UNL     1      22.227  -0.086  53.380  1.00  0.00     0.025 A 
HETATM   13  H13 UNL     1      26.937   1.524  51.786  1.00  0.00     0.160 HD
ENDROOT
BRANCH   1  14
HETATM   14  N1  UNL     1      22.056   2.781  52.453  1.00  0.00    -0.397 N 
HETATM   15  H10 UNL     1      21.968   2.885  53.473  1.00  0.00     0.155 HD
BRANCH  14  16
HETATM   16  C7  UNL     1      21.609   3.842  51.657  1.00  0.00     0.143 C 
BRANCH  16  17
HETATM   17  C6  UNL     1      22.727   4.674  51.172  1.00  0.00    -0.008 C 
BRANCH  17  18
HETATM   18  C5  UNL     1      23.679   5.491  50.847  1.00  0.00    -0.002 C 
BRANCH  18  19
HETATM   19  C4  UNL     1      24.785   6.311  50.453  1.00  0.00    -0.001 C 
HETATM   20  C3  UNL     1      25.630   5.543  49.806  1.00  0.00    -0.004 C 
BRANCH  20  21
HETATM   21  C2  UNL     1      25.473   4.123  49.534  1.00  0.00    -0.026 C 
HETATM   22  C1  UNL     1      26.460   3.232  49.600  1.00  0.00     0.031 C 
ENDBRANCH  20  21
ENDBRANCH  18  19
ENDBRANCH  17  18
ENDBRANCH  16  17
ENDBRANCH  14  16
ENDBRANCH   1  14
BRANCH   9  23
HETATM   23  C14 UNL     1      27.462  -0.086  53.466  1.00  0.00     0.146 C 
BRANCH  23  24
HETATM   24  C15 UNL     1      28.931   0.060  53.511  1.00  0.00    -0.018 C 
HETATM   25  C16 UNL     1      29.724  -0.987  53.665  1.00  0.00     0.008 C 
ENDBRANCH  23  24
ENDBRANCH   9  23
TORSDOF 10
ENDMDL
MODEL 6
REMARK VINA RESULT:      -6.0      1.903      5.497
REMARK  10 active torsions:
REMARK  status: ('A' for Active; 'I' for Inactive)
REMARK    1  A    between atoms: C2_2  and  C3_3 
REMARK    2  A    between atoms: C4_4  and  C5_5 
REMARK    3  A    between atoms: C5_5  and  C6_6 
REMARK    4  A    between atoms: C6_6  and  C7_7 
REMARK    5  A    between atoms: C7_7  and  N1_8 
REMARK    6  A    between atoms: N1_8  and  C8_9 
REMARK    7  A    between atoms: C10_12  and  C19_23 
REMARK    8  A    between atoms: N4_17  and  C14_18 
REMARK    9  A    between atoms: C14_18  and  C15_19 
REMARK   10  A    between atoms: C18_22  and  C19_23 
ROOT
HETATM    1  C8  UNL     1      23.695   4.168  51.018  1.00  0.00     0.133 A 
HETATM    2  C9  UNL     1      23.780   4.035  49.606  1.00  0.00     0.092 C 
HETATM    3  N2  UNL     1      23.867   3.926  48.451  1.00  0.00    -0.195 NA
HETATM    4  C10 UNL     1      23.339   5.505  51.552  1.00  0.00     0.043 A 
HETATM    5  N3  UNL     1      22.715   4.344  51.672  1.00  0.00     0.000 N 
HETATM    6  C11 UNL     1      21.619   3.737  52.434  1.00  0.00     0.012 A 
HETATM    7  C12 UNL     1      21.014   2.486  52.500  1.00  0.00     0.014 A 
HETATM    8  C13 UNL     1      21.481   1.472  51.692  1.00  0.00     0.022 A 
HETATM    9  N4  UNL     1      21.004   0.208  51.607  1.00  0.00    -0.387 N 
HETATM   10  C17 UNL     1      22.479   2.235  51.090  1.00  0.00     0.017 A 
HETATM   11  C18 UNL     1      22.423   3.483  51.617  1.00  0.00     0.036 A 
HETATM   12  C19 UNL     1      22.176   4.807  52.341  1.00  0.00     0.025 A 
HETATM   13  H13 UNL     1      21.657  -0.196  50.921  1.00  0.00     0.160 HD
ENDROOT
BRANCH   1  14
HETATM   14  N1  UNL     1      24.879   3.673  51.624  1.00  0.00    -0.397 N 
HETATM   15  H10 UNL     1      25.125   4.050  52.549  1.00  0.00     0.155 HD
BRANCH  14  16
HETATM   16  C7  UNL     1      25.917   3.137  50.852  1.00  0.00     0.143 C 
BRANCH  16  17
HETATM   17  C6  UNL     1      26.327   1.804  51.333  1.00  0.00    -0.008 C 
BRANCH  17  18
HETATM   18  C5  UNL     1      26.660   0.677  51.881  1.00  0.00    -0.002 C 
BRANCH  18  19
HETATM   19  C4  UNL     1      27.003  -0.525  52.579  1.00  0.00    -0.001 C 
HETATM   20  C3  UNL     1      25.915  -0.957  53.173  1.00  0.00    -0.004 C 
BRANCH  20  21
HETATM   21  C2  UNL     1      24.602  -0.334  53.129  1.00  0.00    -0.026 C 
HETATM   22  C1  UNL     1      23.628  -0.570  54.005  1.00  0.00     0.031 C 
ENDBRANCH  20  21
ENDBRANCH  18  19
ENDBRANCH  17  18
ENDBRANCH  16  17
ENDBRANCH  14  16
ENDBRANCH   1  14
BRANCH   9  23
HETATM   23  C14 UNL     1      19.881   0.103  52.484  1.00  0.00     0.146 C 
BRANCH  23  24
HETATM   24  C15 UNL     1      18.623  -0.120  51.744  1.00  0.00    -0.018 C 
HETATM   25  C16 UNL     1      17.651  -0.866  52.242  1.00  0.00     0.008 C 
ENDBRANCH  23  24
ENDBRANCH   9  23
TORSDOF 10
ENDMDL
MODEL 7
REMARK VINA RESULT:      -6.0      1.728      2.623
REMARK  10 active torsions:
REMARK  status: ('A' for Active; 'I' for Inactive)
REMARK    1  A    between atoms: C2_2  and  C3_3 
REMARK    2  A    between atoms: C4_4  and  C5_5 
REMARK    3  A    between atoms: C5_5  and  C6_6 
REMARK    4  A    between atoms: C6_6  and  C7_7 
REMARK    5  A    between atoms: C7_7  and  N1_8 
REMARK    6  A    between atoms: N1_8  and  C8_9 
REMARK    7  A    between atoms: C10_12  and  C19_23 
REMARK    8  A    between atoms: N4_17  and  C14_18 
REMARK    9  A    between atoms: C14_18  and  C15_19 
REMARK   10  A    between atoms: C18_22  and  C19_23 
ROOT
HETATM    1  C8  UNL     1      23.867   2.913  51.380  1.00  0.00     0.133 A 
HETATM    2  C9  UNL     1      23.308   3.876  52.262  1.00  0.00     0.092 C 
HETATM    3  N2  UNL     1      22.834   4.657  52.983  1.00  0.00    -0.195 NA
HETATM    4  C10 UNL     1      24.128   3.343  49.985  1.00  0.00     0.043 A 
HETATM    5  N3  UNL     1      24.962   2.906  50.914  1.00  0.00     0.000 N 
HETATM    6  C11 UNL     1      26.354   2.462  51.047  1.00  0.00     0.012 A 
HETATM    7  C12 UNL     1      27.170   2.012  52.080  1.00  0.00     0.014 A 
HETATM    8  C13 UNL     1      26.647   1.911  53.351  1.00  0.00     0.022 A 
HETATM    9  N4  UNL     1      27.296   1.516  54.472  1.00  0.00    -0.387 N 
HETATM   10  C17 UNL     1      25.374   2.354  53.004  1.00  0.00     0.017 A 
HETATM   11  C18 UNL     1      25.375   2.623  51.675  1.00  0.00     0.036 A 
HETATM   12  C19 UNL     1      25.606   2.858  50.182  1.00  0.00     0.025 A 
HETATM   13  H13 UNL     1      26.530   1.562  55.160  1.00  0.00     0.160 HD
ENDROOT
BRANCH   1  14
HETATM   14  N1  UNL     1      23.097   1.721  51.413  1.00  0.00    -0.397 N 
HETATM   15  H10 UNL     1      23.129   1.119  50.580  1.00  0.00     0.155 HD
BRANCH  14  16
HETATM   16  C7  UNL     1      21.978   1.605  52.247  1.00  0.00     0.143 C 
BRANCH  16  17
HETATM   17  C6  UNL     1      20.806   1.076  51.524  1.00  0.00    -0.008 C 
BRANCH  17  18
HETATM   18  C5  UNL     1      19.701   0.665  50.987  1.00  0.00    -0.002 C 
BRANCH  18  19
HETATM   19  C4  UNL     1      18.430   0.236  50.483  1.00  0.00    -0.001 C 
HETATM   20  C3  UNL     1      17.799  -0.358  51.470  1.00  0.00    -0.004 C 
BRANCH  20  21
HETATM   21  C2  UNL     1      18.293  -0.544  52.824  1.00  0.00    -0.026 C 
HETATM   22  C1  UNL     1      18.326  -1.713  53.458  1.00  0.00     0.031 C 
ENDBRANCH  20  21
ENDBRANCH  18  19
ENDBRANCH  17  18
ENDBRANCH  16  17
ENDBRANCH  14  16
ENDBRANCH   1  14
BRANCH   9  23
HETATM   23  C14 UNL     1      28.656   1.255  54.124  1.00  0.00     0.146 C 
BRANCH  23  24
HETATM   24  C15 UNL     1      29.038  -0.144  54.407  1.00  0.00    -0.018 C 
HETATM   25  C16 UNL     1      29.036  -1.065  53.458  1.00  0.00     0.008 C 
ENDBRANCH  23  24
ENDBRANCH   9  23
TORSDOF 10
ENDMDL
MODEL 8
REMARK VINA RESULT:      -5.9      1.600      2.240
REMARK  10 active torsions:
REMARK  status: ('A' for Active; 'I' for Inactive)
REMARK    1  A    between atoms: C2_2  and  C3_3 
REMARK    2  A    between atoms: C4_4  and  C5_5 
REMARK    3  A    between atoms: C5_5  and  C6_6 
REMARK    4  A    between atoms: C6_6  and  C7_7 
REMARK    5  A    between atoms: C7_7  and  N1_8 
REMARK    6  A    between atoms: N1_8  and  C8_9 
REMARK    7  A    between atoms: C10_12  and  C19_23 
REMARK    8  A    between atoms: N4_17  and  C14_18 
REMARK    9  A    between atoms: C14_18  and  C15_19 
REMARK   10  A    between atoms: C18_22  and  C19_23 
ROOT
HETATM    1  C8  UNL     1      24.363   3.854  50.405  1.00  0.00     0.133 A 
HETATM    2  C9  UNL     1      23.635   4.539  51.415  1.00  0.00     0.092 C 
HETATM    3  N2  UNL     1      23.025   5.101  52.231  1.00  0.00    -0.195 NA
HETATM    4  C10 UNL     1      25.332   4.647  49.611  1.00  0.00     0.043 A 
HETATM    5  N3  UNL     1      25.526   3.600  50.396  1.00  0.00     0.000 N 
HETATM    6  C11 UNL     1      26.578   2.634  50.731  1.00  0.00     0.012 A 
HETATM    7  C12 UNL     1      26.703   1.542  51.585  1.00  0.00     0.014 A 
HETATM    8  C13 UNL     1      25.628   1.173  52.364  1.00  0.00     0.022 A 
HETATM    9  N4  UNL     1      25.577   0.160  53.260  1.00  0.00    -0.387 N 
HETATM   10  C17 UNL     1      24.780   2.175  51.898  1.00  0.00     0.017 A 
HETATM   11  C18 UNL     1      25.465   2.910  50.987  1.00  0.00     0.036 A 
HETATM   12  C19 UNL     1      26.420   3.589  50.006  1.00  0.00     0.025 A 
HETATM   13  H13 UNL     1      24.599   0.233  53.574  1.00  0.00     0.160 HD
ENDROOT
BRANCH   1  14
HETATM   14  N1  UNL     1      23.469   3.143  49.561  1.00  0.00    -0.397 N 
HETATM   15  H10 UNL     1      23.852   2.767  48.684  1.00  0.00     0.155 HD
BRANCH  14  16
HETATM   16  C7  UNL     1      22.088   3.371  49.614  1.00  0.00     0.143 C 
BRANCH  16  17
HETATM   17  C6  UNL     1      21.371   2.252  50.253  1.00  0.00    -0.008 C 
BRANCH  17  18
HETATM   18  C5  UNL     1      20.628   1.314  50.752  1.00  0.00    -0.002 C 
BRANCH  18  19
HETATM   19  C4  UNL     1      19.733   0.306  51.235  1.00  0.00    -0.001 C 
HETATM   20  C3  UNL     1      20.046   0.075  52.489  1.00  0.00    -0.004 C 
BRANCH  20  21
HETATM   21  C2  UNL     1      21.102   0.723  53.249  1.00  0.00    -0.026 C 
HETATM   22  C1  UNL     1      22.013   0.076  53.973  1.00  0.00     0.031 C 
ENDBRANCH  20  21
ENDBRANCH  18  19
ENDBRANCH  17  18
ENDBRANCH  16  17
ENDBRANCH  14  16
ENDBRANCH   1  14
BRANCH   9  23
HETATM   23  C14 UNL     1      26.866  -0.456  53.299  1.00  0.00     0.146 C 
BRANCH  23  24
HETATM   24  C15 UNL     1      26.858  -1.789  52.663  1.00  0.00    -0.018 C 
HETATM   25  C16 UNL     1      27.890  -2.610  52.767  1.00  0.00     0.008 C 
ENDBRANCH  23  24
ENDBRANCH   9  23
TORSDOF 10
ENDMDL
MODEL 9
REMARK VINA RESULT:      -5.9      2.739      4.413
REMARK  10 active torsions:
REMARK  status: ('A' for Active; 'I' for Inactive)
REMARK    1  A    between atoms: C2_2  and  C3_3 
REMARK    2  A    between atoms: C4_4  and  C5_5 
REMARK    3  A    between atoms: C5_5  and  C6_6 
REMARK    4  A    between atoms: C6_6  and  C7_7 
REMARK    5  A    between atoms: C7_7  and  N1_8 
REMARK    6  A    between atoms: N1_8  and  C8_9 
REMARK    7  A    between atoms: C10_12  and  C19_23 
REMARK    8  A    between atoms: N4_17  and  C14_18 
REMARK    9  A    between atoms: C14_18  and  C15_19 
REMARK   10  A    between atoms: C18_22  and  C19_23 
ROOT
HETATM    1  C8  UNL     1      23.586   3.715  51.594  1.00  0.00     0.133 A 
HETATM    2  C9  UNL     1      24.276   2.904  52.534  1.00  0.00     0.092 C 
HETATM    3  N2  UNL     1      24.829   2.226  53.301  1.00  0.00    -0.195 NA
HETATM    4  C10 UNL     1      22.702   4.776  52.134  1.00  0.00     0.043 A 
HETATM    5  N3  UNL     1      23.770   4.868  51.359  1.00  0.00     0.000 N 
HETATM    6  C11 UNL     1      24.475   5.860  50.540  1.00  0.00     0.012 A 
HETATM    7  C12 UNL     1      25.614   5.876  49.741  1.00  0.00     0.014 A 
HETATM    8  C13 UNL     1      26.351   4.720  49.602  1.00  0.00     0.022 A 
HETATM    9  N4  UNL     1      27.490   4.558  48.889  1.00  0.00    -0.387 N 
HETATM   10  C17 UNL     1      25.532   3.945  50.419  1.00  0.00     0.017 A 
HETATM   11  C18 UNL     1      24.525   4.733  50.867  1.00  0.00     0.036 A 
HETATM   12  C19 UNL     1      23.493   5.797  51.244  1.00  0.00     0.025 A 
HETATM   13  H13 UNL     1      27.668   3.555  49.040  1.00  0.00     0.160 HD
ENDROOT
BRANCH   1  14
HETATM   14  N1  UNL     1      22.895   2.897  50.662  1.00  0.00    -0.397 N 
HETATM   15  H10 UNL     1      22.124   3.332  50.138  1.00  0.00     0.155 HD
BRANCH  14  16
HETATM   16  C7  UNL     1      22.872   1.504  50.801  1.00  0.00     0.143 C 
BRANCH  16  17
HETATM   17  C6  UNL     1      21.521   1.006  51.123  1.00  0.00    -0.008 C 
BRANCH  17  18
HETATM   18  C5  UNL     1      20.394   0.479  51.489  1.00  0.00    -0.002 C 
BRANCH  18  19
HETATM   19  C4  UNL     1      19.143  -0.030  51.965  1.00  0.00    -0.001 C 
HETATM   20  C3  UNL     1      19.350  -0.514  53.167  1.00  0.00    -0.004 C 
BRANCH  20  21
HETATM   21  C2  UNL     1      20.613  -0.530  53.886  1.00  0.00    -0.026 C 
HETATM   22  C1  UNL     1      21.174  -1.623  54.398  1.00  0.00     0.031 C 
ENDBRANCH  20  21
ENDBRANCH  18  19
ENDBRANCH  17  18
ENDBRANCH  16  17
ENDBRANCH  14  16
ENDBRANCH   1  14
BRANCH   9  23
HETATM   23  C14 UNL     1      27.837   5.822  48.322  1.00  0.00     0.146 C 
BRANCH  23  24
HETATM   24  C15 UNL     1      29.295   5.957  48.129  1.00  0.00    -0.018 C 
HETATM   25  C16 UNL     1      29.804   6.894  47.345  1.00  0.00     0.008 C 
ENDBRANCH  23  24
ENDBRANCH   9  23
TORSDOF 10
ENDMDL
