MODEL 1
REMARK VINA RESULT:      -5.5      0.000      0.000
REMARK  10 active torsions:
REMARK  status: ('A' for Active; 'I' for Inactive)
REMARK    1  A    between atoms: N1_2  and  C3_4 
REMARK    2  A    between atoms: C3_4  and  C4_5 
REMARK    3  A    between atoms: C5_6  and  C6_7 
REMARK    4  A    between atoms: C6_7  and  S1_8 
REMARK    5  A    between atoms: S1_8  and  C7_9 
REMARK    6  A    between atoms: C7_9  and  C8_10 
REMARK    7  A    between atoms: C8_10  and  N2_11 
REMARK    8  A    between atoms: N2_11  and  S2_12 
REMARK    9  A    between atoms: S2_12  and  C9_14 
REMARK   10  A    between atoms: C10_15  and  N3_16 
ROOT
HETATM    1  N2  UNL     1      25.890   4.031  50.794  1.00  0.00    -0.228 NA
HETATM    2  H15 UNL     1      25.272   4.829  50.547  1.00  0.00     0.138 HD
ENDROOT
BRANCH   1   3
HETATM    3  C8  UNL     1      26.533   3.509  49.595  1.00  0.00     0.194 C 
BRANCH   3   4
HETATM    4  C7  UNL     1      27.301   4.557  48.995  1.00  0.00    -0.097 C 
BRANCH   4   5
HETATM    5  S1  UNL     1      27.976   5.494  48.441  1.00  0.00    -0.087 SA
BRANCH   5   6
HETATM    6  C6  UNL     1      28.770   6.641  47.768  1.00  0.00     0.114 C 
BRANCH   6   7
HETATM    7  C5  UNL     1      30.218   6.332  47.517  1.00  0.00    -0.018 C 
HETATM    8  C4  UNL     1      30.820   5.249  48.017  1.00  0.00    -0.011 C 
BRANCH   8   9
HETATM    9  C3  UNL     1      32.237   4.826  47.848  1.00  0.00     0.143 C 
BRANCH   9  10
HETATM   10  N1  UNL     1      32.423   3.707  46.987  1.00  0.00    -0.418 N 
HETATM   11  C1  UNL     1      33.126   2.594  47.542  1.00  0.00     0.142 C 
HETATM   12  C2  UNL     1      32.783   4.043  45.644  1.00  0.00     0.142 C 
ENDBRANCH   9  10
ENDBRANCH   8   9
ENDBRANCH   6   7
ENDBRANCH   5   6
ENDBRANCH   4   5
ENDBRANCH   3   4
ENDBRANCH   1   3
BRANCH   1  13
HETATM   13  S2  UNL     1      25.116   2.770  51.702  1.00  0.00     0.116 S 
HETATM   14  O1  UNL     1      24.271   3.376  52.795  1.00  0.00    -0.237 OA
BRANCH  13  15
HETATM   15  C9  UNL     1      26.358   1.676  52.318  1.00  0.00     0.113 C 
HETATM   16  C10 UNL     1      27.240   1.741  53.289  1.00  0.00     0.107 C 
BRANCH  16  17
HETATM   17  N3  UNL     1      28.068   0.599  53.439  1.00  0.00    -0.325 N 
HETATM   18  C11 UNL     1      29.372   0.591  53.720  1.00  0.00     0.116 A 
HETATM   19  C12 UNL     1      29.757  -0.741  53.765  1.00  0.00     0.135 A 
HETATM   20  N4  UNL     1      28.646  -1.462  53.504  1.00  0.00    -0.254 NA
HETATM   21  C13 UNL     1      27.600  -0.642  53.303  1.00  0.00     0.213 A 
ENDBRANCH  16  17
ENDBRANCH  13  15
ENDBRANCH   1  13
TORSDOF 10
ENDMDL
MODEL 2
REMARK VINA RESULT:      -5.4      3.634      5.697
REMARK  10 active torsions:
REMARK  status: ('A' for Active; 'I' for Inactive)
REMARK    1  A    between atoms: N1_2  and  C3_4 
REMARK    2  A    between atoms: C3_4  and  C4_5 
REMARK    3  A    between atoms: C5_6  and  C6_7 
REMARK    4  A    between atoms: C6_7  and  S1_8 
REMARK    5  A    between atoms: S1_8  and  C7_9 
REMARK    6  A    between atoms: C7_9  and  C8_10 
REMARK    7  A    between atoms: C8_10  and  N2_11 
REMARK    8  A    between atoms: N2_11  and  S2_12 
REMARK    9  A    between atoms: S2_12  and  C9_14 
REMARK   10  A    between atoms: C10_15  and  N3_16 
ROOT
HETATM    1  N2  UNL     1      27.390   1.854  54.214  1.00  0.00    -0.228 NA
HETATM    2  H15 UNL     1      26.495   2.359  54.363  1.00  0.00     0.138 HD
ENDROOT
BRANCH   1   3
HETATM    3  C8  UNL     1      27.889   2.109  52.869  1.00  0.00     0.194 C 
BRANCH   3   4
HETATM    4  C7  UNL     1      26.778   2.415  52.020  1.00  0.00    -0.097 C 
BRANCH   4   5
HETATM    5  S1  UNL     1      25.771   2.677  51.273  1.00  0.00    -0.087 SA
BRANCH   5   6
HETATM    6  C6  UNL     1      24.560   3.018  50.369  1.00  0.00     0.114 C 
BRANCH   6   7
HETATM    7  C5  UNL     1      24.834   4.067  49.330  1.00  0.00    -0.018 C 
HETATM    8  C4  UNL     1      25.621   5.121  49.564  1.00  0.00    -0.011 C 
BRANCH   8   9
HETATM    9  C3  UNL     1      25.974   6.227  48.632  1.00  0.00     0.143 C 
BRANCH   9  10
HETATM   10  N1  UNL     1      27.200   6.887  48.933  1.00  0.00    -0.418 N 
HETATM   11  C1  UNL     1      27.100   8.261  49.311  1.00  0.00     0.142 C 
HETATM   12  C2  UNL     1      28.275   6.580  48.040  1.00  0.00     0.142 C 
ENDBRANCH   9  10
ENDBRANCH   8   9
ENDBRANCH   6   7
ENDBRANCH   5   6
ENDBRANCH   4   5
ENDBRANCH   3   4
ENDBRANCH   1   3
BRANCH   1  13
HETATM   13  S2  UNL     1      27.329   0.154  54.559  1.00  0.00     0.116 S 
HETATM   14  O1  UNL     1      28.203  -0.595  53.585  1.00  0.00    -0.237 OA
BRANCH  13  15
HETATM   15  C9  UNL     1      25.642  -0.370  54.515  1.00  0.00     0.113 C 
HETATM   16  C10 UNL     1      24.598  -0.044  53.788  1.00  0.00     0.107 C 
BRANCH  16  17
HETATM   17  N3  UNL     1      23.398  -0.734  54.099  1.00  0.00    -0.325 N 
HETATM   18  C11 UNL     1      22.356  -0.925  53.289  1.00  0.00     0.116 A 
HETATM   19  C12 UNL     1      21.418  -1.643  54.017  1.00  0.00     0.135 A 
HETATM   20  N4  UNL     1      21.961  -1.841  55.238  1.00  0.00    -0.254 NA
HETATM   21  C13 UNL     1      23.182  -1.283  55.295  1.00  0.00     0.213 A 
ENDBRANCH  16  17
ENDBRANCH  13  15
ENDBRANCH   1  13
TORSDOF 10
ENDMDL
MODEL 3
REMARK VINA RESULT:      -5.2      2.411      7.507
REMARK  10 active torsions:
REMARK  status: ('A' for Active; 'I' for Inactive)
REMARK    1  A    between atoms: N1_2  and  C3_4 
REMARK    2  A    between atoms: C3_4  and  C4_5 
REMARK    3  A    between atoms: C5_6  and  C6_7 
REMARK    4  A    between atoms: C6_7  and  S1_8 
REMARK    5  A    between atoms: S1_8  and  C7_9 
REMARK    6  A    between atoms: C7_9  and  C8_10 
REMARK    7  A    between atoms: C8_10  and  N2_11 
REMARK    8  A    between atoms: N2_11  and  S2_12 
REMARK    9  A    between atoms: S2_12  and  C9_14 
REMARK   10  A    between atoms: C10_15  and  N3_16 
ROOT
HETATM    1  N2  UNL     1      28.374   5.025  48.979  1.00  0.00    -0.228 NA
HETATM    2  H15 UNL     1      28.524   4.045  48.669  1.00  0.00     0.138 HD
ENDROOT
BRANCH   1   3
HETATM    3  C8  UNL     1      26.997   5.426  48.718  1.00  0.00     0.194 C 
BRANCH   3   4
HETATM    4  C7  UNL     1      26.128   4.624  49.523  1.00  0.00    -0.097 C 
BRANCH   4   5
HETATM    5  S1  UNL     1      25.367   3.895  50.252  1.00  0.00    -0.087 SA
BRANCH   5   6
HETATM    6  C6  UNL     1      24.464   2.993  51.130  1.00  0.00     0.114 C 
BRANCH   6   7
HETATM    7  C5  UNL     1      25.177   1.844  51.782  1.00  0.00    -0.018 C 
HETATM    8  C4  UNL     1      26.510   1.751  51.816  1.00  0.00    -0.011 C 
BRANCH   8   9
HETATM    9  C3  UNL     1      27.340   0.675  52.424  1.00  0.00     0.143 C 
BRANCH   9  10
HETATM   10  N1  UNL     1      28.082   1.075  53.572  1.00  0.00    -0.418 N 
HETATM   11  C1  UNL     1      28.555   2.424  53.578  1.00  0.00     0.142 C 
HETATM   12  C2  UNL     1      29.018   0.103  54.045  1.00  0.00     0.142 C 
ENDBRANCH   9  10
ENDBRANCH   8   9
ENDBRANCH   6   7
ENDBRANCH   5   6
ENDBRANCH   4   5
ENDBRANCH   3   4
ENDBRANCH   1   3
BRANCH   1  13
HETATM   13  S2  UNL     1      29.505   6.171  48.329  1.00  0.00     0.116 S 
HETATM   14  O1  UNL     1      28.897   6.865  47.136  1.00  0.00    -0.237 OA
BRANCH  13  15
HETATM   15  C9  UNL     1      31.006   5.324  47.942  1.00  0.00     0.113 C 
HETATM   16  C10 UNL     1      32.259   5.461  48.310  1.00  0.00     0.107 C 
BRANCH  16  17
HETATM   17  N3  UNL     1      33.169   4.535  47.737  1.00  0.00    -0.325 N 
HETATM   18  C11 UNL     1      32.891   3.607  46.821  1.00  0.00     0.116 A 
HETATM   19  C12 UNL     1      34.078   2.937  46.566  1.00  0.00     0.135 A 
HETATM   20  N4  UNL     1      35.010   3.510  47.357  1.00  0.00    -0.254 NA
HETATM   21  C13 UNL     1      34.457   4.496  48.082  1.00  0.00     0.213 A 
ENDBRANCH  16  17
ENDBRANCH  13  15
ENDBRANCH   1  13
TORSDOF 10
ENDMDL
MODEL 4
REMARK VINA RESULT:      -5.2      1.917      2.586
REMARK  10 active torsions:
REMARK  status: ('A' for Active; 'I' for Inactive)
REMARK    1  A    between atoms: N1_2  and  C3_4 
REMARK    2  A    between atoms: C3_4  and  C4_5 
REMARK    3  A    between atoms: C5_6  and  C6_7 
REMARK    4  A    between atoms: C6_7  and  S1_8 
REMARK    5  A    between atoms: S1_8  and  C7_9 
REMARK    6  A    between atoms: C7_9  and  C8_10 
REMARK    7  A    between atoms: C8_10  and  N2_11 
REMARK    8  A    between atoms: N2_11  and  S2_12 
REMARK    9  A    between atoms: S2_12  and  C9_14 
REMARK   10  A    between atoms: C10_15  and  N3_16 
ROOT
HETATM    1  N2  UNL     1      23.683   2.546  50.604  1.00  0.00    -0.228 NA
HETATM    2  H15 UNL     1      24.347   2.385  49.822  1.00  0.00     0.138 HD
ENDROOT
BRANCH   1   3
HETATM    3  C8  UNL     1      23.865   3.885  51.147  1.00  0.00     0.194 C 
BRANCH   3   4
HETATM    4  C7  UNL     1      24.810   4.584  50.331  1.00  0.00    -0.097 C 
BRANCH   4   5
HETATM    5  S1  UNL     1      25.640   5.212  49.583  1.00  0.00    -0.087 SA
BRANCH   5   6
HETATM    6  C6  UNL     1      26.634   5.958  48.659  1.00  0.00     0.114 C 
BRANCH   6   7
HETATM    7  C5  UNL     1      27.942   5.250  48.450  1.00  0.00    -0.018 C 
HETATM    8  C4  UNL     1      29.067   5.897  48.132  1.00  0.00    -0.011 C 
BRANCH   8   9
HETATM    9  C3  UNL     1      30.421   5.323  47.897  1.00  0.00     0.143 C 
BRANCH   9  10
HETATM   10  N1  UNL     1      31.494   6.242  48.080  1.00  0.00    -0.418 N 
HETATM   11  C1  UNL     1      32.812   5.698  47.988  1.00  0.00     0.142 C 
HETATM   12  C2  UNL     1      31.298   7.182  49.140  1.00  0.00     0.142 C 
ENDBRANCH   9  10
ENDBRANCH   8   9
ENDBRANCH   6   7
ENDBRANCH   5   6
ENDBRANCH   4   5
ENDBRANCH   3   4
ENDBRANCH   1   3
BRANCH   1  13
HETATM   13  S2  UNL     1      23.730   1.340  51.852  1.00  0.00     0.116 S 
HETATM   14  O1  UNL     1      22.669   1.633  52.883  1.00  0.00    -0.237 OA
BRANCH  13  15
HETATM   15  C9  UNL     1      25.360   1.298  52.534  1.00  0.00     0.113 C 
HETATM   16  C10 UNL     1      26.548   1.008  52.056  1.00  0.00     0.107 C 
BRANCH  16  17
HETATM   17  N3  UNL     1      27.619   1.107  52.980  1.00  0.00    -0.325 N 
HETATM   18  C11 UNL     1      28.358   0.104  53.455  1.00  0.00     0.116 A 
HETATM   19  C12 UNL     1      29.277   0.669  54.328  1.00  0.00     0.135 A 
HETATM   20  N4  UNL     1      29.028   1.996  54.326  1.00  0.00    -0.254 NA
HETATM   21  C13 UNL     1      28.008   2.274  53.497  1.00  0.00     0.213 A 
ENDBRANCH  16  17
ENDBRANCH  13  15
ENDBRANCH   1  13
TORSDOF 10
ENDMDL
MODEL 5
REMARK VINA RESULT:      -5.2      4.137      7.450
REMARK  10 active torsions:
REMARK  status: ('A' for Active; 'I' for Inactive)
REMARK    1  A    between atoms: N1_2  and  C3_4 
REMARK    2  A    between atoms: C3_4  and  C4_5 
REMARK    3  A    between atoms: C5_6  and  C6_7 
REMARK    4  A    between atoms: C6_7  and  S1_8 
REMARK    5  A    between atoms: S1_8  and  C7_9 
REMARK    6  A    between atoms: C7_9  and  C8_10 
REMARK    7  A    between atoms: C8_10  and  N2_11 
REMARK    8  A    between atoms: N2_11  and  S2_12 
REMARK    9  A    between atoms: S2_12  and  C9_14 
REMARK   10  A    between atoms: C10_15  and  N3_16 
ROOT
HETATM    1  N2  UNL     1      20.594   3.348  52.579  1.00  0.00    -0.228 NA
HETATM    2  H15 UNL     1      21.378   3.475  53.249  1.00  0.00     0.138 HD
ENDROOT
BRANCH   1   3
HETATM    3  C8  UNL     1      20.145   1.962  52.593  1.00  0.00     0.194 C 
BRANCH   3   4
HETATM    4  C7  UNL     1      21.247   1.129  52.967  1.00  0.00    -0.097 C 
BRANCH   4   5
HETATM    5  S1  UNL     1      22.245   0.401  53.307  1.00  0.00    -0.087 SA
BRANCH   5   6
HETATM    6  C6  UNL     1      23.465  -0.456  53.726  1.00  0.00     0.114 C 
BRANCH   6   7
HETATM    7  C5  UNL     1      24.771  -0.013  53.132  1.00  0.00    -0.018 C 
HETATM    8  C4  UNL     1      25.852  -0.799  53.104  1.00  0.00    -0.011 C 
BRANCH   8   9
HETATM    9  C3  UNL     1      27.199  -0.487  52.551  1.00  0.00     0.143 C 
BRANCH   9  10
HETATM   10  N1  UNL     1      28.150  -0.051  53.518  1.00  0.00    -0.418 N 
HETATM   11  C1  UNL     1      28.425   1.351  53.542  1.00  0.00     0.142 C 
HETATM   12  C2  UNL     1      29.295  -0.896  53.649  1.00  0.00     0.142 C 
ENDBRANCH   9  10
ENDBRANCH   8   9
ENDBRANCH   6   7
ENDBRANCH   5   6
ENDBRANCH   4   5
ENDBRANCH   3   4
ENDBRANCH   1   3
BRANCH   1  13
HETATM   13  S2  UNL     1      20.925   3.895  50.965  1.00  0.00     0.116 S 
HETATM   14  O1  UNL     1      20.139   3.069  49.977  1.00  0.00    -0.237 OA
BRANCH  13  15
HETATM   15  C9  UNL     1      22.669   3.821  50.691  1.00  0.00     0.113 C 
HETATM   16  C10 UNL     1      23.722   4.240  51.355  1.00  0.00     0.107 C 
BRANCH  16  17
HETATM   17  N3  UNL     1      24.975   3.960  50.753  1.00  0.00    -0.325 N 
HETATM   18  C11 UNL     1      25.541   4.623  49.744  1.00  0.00     0.116 A 
HETATM   19  C12 UNL     1      26.751   3.995  49.489  1.00  0.00     0.135 A 
HETATM   20  N4  UNL     1      26.839   2.977  50.372  1.00  0.00    -0.254 NA
HETATM   21  C13 UNL     1      25.748   2.949  51.155  1.00  0.00     0.213 A 
ENDBRANCH  16  17
ENDBRANCH  13  15
ENDBRANCH   1  13
TORSDOF 10
ENDMDL
MODEL 6
REMARK VINA RESULT:      -5.1      3.477      4.621
REMARK  10 active torsions:
REMARK  status: ('A' for Active; 'I' for Inactive)
REMARK    1  A    between atoms: N1_2  and  C3_4 
REMARK    2  A    between atoms: C3_4  and  C4_5 
REMARK    3  A    between atoms: C5_6  and  C6_7 
REMARK    4  A    between atoms: C6_7  and  S1_8 
REMARK    5  A    between atoms: S1_8  and  C7_9 
REMARK    6  A    between atoms: C7_9  and  C8_10 
REMARK    7  A    between atoms: C8_10  and  N2_11 
REMARK    8  A    between atoms: N2_11  and  S2_12 
REMARK    9  A    between atoms: S2_12  and  C9_14 
REMARK   10  A    between atoms: C10_15  and  N3_16 
ROOT
HETATM    1  N2  UNL     1      27.710   1.558  52.729  1.00  0.00    -0.228 NA
HETATM    2  H15 UNL     1      27.788   2.583  52.880  1.00  0.00     0.138 HD
ENDROOT
BRANCH   1   3
HETATM    3  C8  UNL     1      26.756   1.281  51.663  1.00  0.00     0.194 C 
BRANCH   3   4
HETATM    4  C7  UNL     1      26.529   2.488  50.928  1.00  0.00    -0.097 C 
BRANCH   4   5
HETATM    5  S1  UNL     1      26.320   3.579  50.290  1.00  0.00    -0.087 SA
BRANCH   5   6
HETATM    6  C6  UNL     1      26.061   4.910  49.541  1.00  0.00     0.114 C 
BRANCH   6   7
HETATM    7  C5  UNL     1      27.108   5.266  48.525  1.00  0.00    -0.018 C 
HETATM    8  C4  UNL     1      28.416   5.180  48.781  1.00  0.00    -0.011 C 
BRANCH   8   9
HETATM    9  C3  UNL     1      29.552   5.499  47.872  1.00  0.00     0.143 C 
BRANCH   9  10
HETATM   10  N1  UNL     1      30.433   6.509  48.357  1.00  0.00    -0.418 N 
HETATM   11  C1  UNL     1      31.393   6.093  49.330  1.00  0.00     0.142 C 
HETATM   12  C2  UNL     1      29.806   7.767  48.622  1.00  0.00     0.142 C 
ENDBRANCH   9  10
ENDBRANCH   8   9
ENDBRANCH   6   7
ENDBRANCH   5   6
ENDBRANCH   4   5
ENDBRANCH   3   4
ENDBRANCH   1   3
BRANCH   1  13
HETATM   13  S2  UNL     1      27.350   0.643  54.160  1.00  0.00     0.116 S 
HETATM   14  O1  UNL     1      28.274  -0.547  54.248  1.00  0.00    -0.237 OA
BRANCH  13  15
HETATM   15  C9  UNL     1      25.644   0.188  54.123  1.00  0.00     0.113 C 
HETATM   16  C10 UNL     1      24.960  -0.849  54.550  1.00  0.00     0.107 C 
BRANCH  16  17
HETATM   17  N3  UNL     1      23.564  -0.804  54.305  1.00  0.00    -0.325 N 
HETATM   18  C11 UNL     1      22.599  -1.268  55.099  1.00  0.00     0.116 A 
HETATM   19  C12 UNL     1      21.398  -1.011  54.454  1.00  0.00     0.135 A 
HETATM   20  N4  UNL     1      21.720  -0.399  53.293  1.00  0.00    -0.254 NA
HETATM   21  C13 UNL     1      23.054  -0.268  53.195  1.00  0.00     0.213 A 
ENDBRANCH  16  17
ENDBRANCH  13  15
ENDBRANCH   1  13
TORSDOF 10
ENDMDL
MODEL 7
REMARK VINA RESULT:      -5.1      4.653      6.557
REMARK  10 active torsions:
REMARK  status: ('A' for Active; 'I' for Inactive)
REMARK    1  A    between atoms: N1_2  and  C3_4 
REMARK    2  A    between atoms: C3_4  and  C4_5 
REMARK    3  A    between atoms: C5_6  and  C6_7 
REMARK    4  A    between atoms: C6_7  and  S1_8 
REMARK    5  A    between atoms: S1_8  and  C7_9 
REMARK    6  A    between atoms: C7_9  and  C8_10 
REMARK    7  A    between atoms: C8_10  and  N2_11 
REMARK    8  A    between atoms: N2_11  and  S2_12 
REMARK    9  A    between atoms: S2_12  and  C9_14 
REMARK   10  A    between atoms: C10_15  and  N3_16 
ROOT
HETATM    1  N2  UNL     1      21.582   4.407  51.545  1.00  0.00    -0.228 NA
HETATM    2  H15 UNL     1      21.195   5.343  51.773  1.00  0.00     0.138 HD
ENDROOT
BRANCH   1   3
HETATM    3  C8  UNL     1      22.263   4.448  50.258  1.00  0.00     0.194 C 
BRANCH   3   4
HETATM    4  C7  UNL     1      23.607   3.990  50.437  1.00  0.00    -0.097 C 
BRANCH   4   5
HETATM    5  S1  UNL     1      24.814   3.581  50.575  1.00  0.00    -0.087 SA
BRANCH   5   6
HETATM    6  C6  UNL     1      26.264   3.062  50.735  1.00  0.00     0.114 C 
BRANCH   6   7
HETATM    7  C5  UNL     1      26.380   1.746  51.448  1.00  0.00    -0.018 C 
HETATM    8  C4  UNL     1      26.716   1.654  52.738  1.00  0.00    -0.011 C 
BRANCH   8   9
HETATM    9  C3  UNL     1      26.866   0.424  53.562  1.00  0.00     0.143 C 
BRANCH   9  10
HETATM   10  N1  UNL     1      28.201   0.144  53.973  1.00  0.00    -0.418 N 
HETATM   11  C1  UNL     1      29.062   1.274  54.128  1.00  0.00     0.142 C 
HETATM   12  C2  UNL     1      28.796  -0.988  53.332  1.00  0.00     0.142 C 
ENDBRANCH   9  10
ENDBRANCH   8   9
ENDBRANCH   6   7
ENDBRANCH   5   6
ENDBRANCH   4   5
ENDBRANCH   3   4
ENDBRANCH   1   3
BRANCH   1  13
HETATM   13  S2  UNL     1      20.429   3.111  51.615  1.00  0.00     0.116 S 
HETATM   14  O1  UNL     1      19.124   3.621  52.174  1.00  0.00    -0.237 OA
BRANCH  13  15
HETATM   15  C9  UNL     1      21.118   1.794  52.570  1.00  0.00     0.113 C 
HETATM   16  C10 UNL     1      20.613   0.801  53.266  1.00  0.00     0.107 C 
BRANCH  16  17
HETATM   17  N3  UNL     1      21.559  -0.049  53.893  1.00  0.00    -0.325 N 
HETATM   18  C11 UNL     1      22.885   0.003  53.766  1.00  0.00     0.116 A 
HETATM   19  C12 UNL     1      23.397  -1.018  54.553  1.00  0.00     0.135 A 
HETATM   20  N4  UNL     1      22.331  -1.631  55.112  1.00  0.00    -0.254 NA
HETATM   21  C13 UNL     1      21.195  -1.039  54.710  1.00  0.00     0.213 A 
ENDBRANCH  16  17
ENDBRANCH  13  15
ENDBRANCH   1  13
TORSDOF 10
ENDMDL
MODEL 8
REMARK VINA RESULT:      -5.0      1.658      2.075
REMARK  10 active torsions:
REMARK  status: ('A' for Active; 'I' for Inactive)
REMARK    1  A    between atoms: N1_2  and  C3_4 
REMARK    2  A    between atoms: C3_4  and  C4_5 
REMARK    3  A    between atoms: C5_6  and  C6_7 
REMARK    4  A    between atoms: C6_7  and  S1_8 
REMARK    5  A    between atoms: S1_8  and  C7_9 
REMARK    6  A    between atoms: C7_9  and  C8_10 
REMARK    7  A    between atoms: C8_10  and  N2_11 
REMARK    8  A    between atoms: N2_11  and  S2_12 
REMARK    9  A    between atoms: S2_12  and  C9_14 
REMARK   10  A    between atoms: C10_15  and  N3_16 
ROOT
HETATM    1  N2  UNL     1      24.981   4.034  49.441  1.00  0.00    -0.228 NA
HETATM    2  H15 UNL     1      24.559   3.803  48.520  1.00  0.00     0.138 HD
ENDROOT
BRANCH   1   3
HETATM    3  C8  UNL     1      26.345   3.526  49.507  1.00  0.00     0.194 C 
BRANCH   3   4
HETATM    4  C7  UNL     1      27.227   4.511  48.961  1.00  0.00    -0.097 C 
BRANCH   4   5
HETATM    5  S1  UNL     1      28.031   5.378  48.468  1.00  0.00    -0.087 SA
BRANCH   5   6
HETATM    6  C6  UNL     1      29.025   6.412  47.881  1.00  0.00     0.114 C 
BRANCH   6   7
HETATM    7  C5  UNL     1      30.472   6.093  48.125  1.00  0.00    -0.018 C 
HETATM    8  C4  UNL     1      31.041   4.964  47.694  1.00  0.00    -0.011 C 
BRANCH   8   9
HETATM    9  C3  UNL     1      32.454   4.525  47.865  1.00  0.00     0.143 C 
BRANCH   9  10
HETATM   10  N1  UNL     1      33.425   5.517  47.548  1.00  0.00    -0.418 N 
HETATM   11  C1  UNL     1      33.954   5.480  46.222  1.00  0.00     0.142 C 
HETATM   12  C2  UNL     1      34.388   5.757  48.578  1.00  0.00     0.142 C 
ENDBRANCH   9  10
ENDBRANCH   8   9
ENDBRANCH   6   7
ENDBRANCH   5   6
ENDBRANCH   4   5
ENDBRANCH   3   4
ENDBRANCH   1   3
BRANCH   1  13
HETATM   13  S2  UNL     1      24.045   3.529  50.813  1.00  0.00     0.116 S 
HETATM   14  O1  UNL     1      23.856   4.691  51.756  1.00  0.00    -0.237 OA
BRANCH  13  15
HETATM   15  C9  UNL     1      24.853   2.152  51.570  1.00  0.00     0.113 C 
HETATM   16  C10 UNL     1      24.442   1.105  52.248  1.00  0.00     0.107 C 
BRANCH  16  17
HETATM   17  N3  UNL     1      25.462   0.221  52.684  1.00  0.00    -0.325 N 
HETATM   18  C11 UNL     1      26.649   0.027  52.108  1.00  0.00     0.116 A 
HETATM   19  C12 UNL     1      27.308  -0.924  52.873  1.00  0.00     0.135 A 
HETATM   20  N4  UNL     1      26.464  -1.249  53.876  1.00  0.00    -0.254 NA
HETATM   21  C13 UNL     1      25.324  -0.547  53.766  1.00  0.00     0.213 A 
ENDBRANCH  16  17
ENDBRANCH  13  15
ENDBRANCH   1  13
TORSDOF 10
ENDMDL
MODEL 9
REMARK VINA RESULT:      -4.7      3.228      4.046
REMARK  10 active torsions:
REMARK  status: ('A' for Active; 'I' for Inactive)
REMARK    1  A    between atoms: N1_2  and  C3_4 
REMARK    2  A    between atoms: C3_4  and  C4_5 
REMARK    3  A    between atoms: C5_6  and  C6_7 
REMARK    4  A    between atoms: C6_7  and  S1_8 
REMARK    5  A    between atoms: S1_8  and  C7_9 
REMARK    6  A    between atoms: C7_9  and  C8_10 
REMARK    7  A    between atoms: C8_10  and  N2_11 
REMARK    8  A    between atoms: N2_11  and  S2_12 
REMARK    9  A    between atoms: S2_12  and  C9_14 
REMARK   10  A    between atoms: C10_15  and  N3_16 
ROOT
HETATM    1  N2  UNL     1      23.173   4.548  50.258  1.00  0.00    -0.228 NA
HETATM    2  H15 UNL     1      23.601   3.861  49.608  1.00  0.00     0.138 HD
ENDROOT
BRANCH   1   3
HETATM    3  C8  UNL     1      24.141   5.582  50.600  1.00  0.00     0.194 C 
BRANCH   3   4
HETATM    4  C7  UNL     1      25.369   5.300  49.922  1.00  0.00    -0.097 C 
BRANCH   4   5
HETATM    5  S1  UNL     1      26.471   5.070  49.310  1.00  0.00    -0.087 SA
BRANCH   5   6
HETATM    6  C6  UNL     1      27.791   4.774  48.555  1.00  0.00     0.114 C 
BRANCH   6   7
HETATM    7  C5  UNL     1      28.608   5.991  48.229  1.00  0.00    -0.018 C 
HETATM    8  C4  UNL     1      28.055   7.172  47.938  1.00  0.00    -0.011 C 
BRANCH   8   9
HETATM    9  C3  UNL     1      28.741   8.448  47.599  1.00  0.00     0.143 C 
BRANCH   9  10
HETATM   10  N1  UNL     1      29.126   9.232  48.724  1.00  0.00    -0.418 N 
HETATM   11  C1  UNL     1      30.442   9.005  49.230  1.00  0.00     0.142 C 
HETATM   12  C2  UNL     1      28.110   9.380  49.721  1.00  0.00     0.142 C 
ENDBRANCH   9  10
ENDBRANCH   8   9
ENDBRANCH   6   7
ENDBRANCH   5   6
ENDBRANCH   4   5
ENDBRANCH   3   4
ENDBRANCH   1   3
BRANCH   1  13
HETATM   13  S2  UNL     1      22.455   3.853  51.677  1.00  0.00     0.116 S 
HETATM   14  O1  UNL     1      21.933   4.949  52.573  1.00  0.00    -0.237 OA
BRANCH  13  15
HETATM   15  C9  UNL     1      23.654   2.827  52.471  1.00  0.00     0.113 C 
HETATM   16  C10 UNL     1      24.631   2.058  52.046  1.00  0.00     0.107 C 
BRANCH  16  17
HETATM   17  N3  UNL     1      25.369   1.393  53.058  1.00  0.00    -0.325 N 
HETATM   18  C11 UNL     1      25.403   0.080  53.289  1.00  0.00     0.116 A 
HETATM   19  C12 UNL     1      26.248  -0.108  54.372  1.00  0.00     0.135 A 
HETATM   20  N4  UNL     1      26.675   1.121  54.733  1.00  0.00    -0.254 NA
HETATM   21  C13 UNL     1      26.138   2.052  53.927  1.00  0.00     0.213 A 
ENDBRANCH  16  17
ENDBRANCH  13  15
ENDBRANCH   1  13
TORSDOF 10
ENDMDL
