MODEL 1
REMARK VINA RESULT:     -10.4      0.000      0.000
REMARK  4 active torsions:
REMARK  status: ('A' for Active; 'I' for Inactive)
REMARK    1  A    between atoms: N1_1  and  C1_2 
REMARK    2  A    between atoms: C2_4  and  N3_5 
REMARK    3  A    between atoms: N3_5  and  C3_6 
REMARK    4  A    between atoms: C11_15  and  C12_16 
ROOT
HETATM    1  C1  UNL     1      28.130   1.873  53.444  1.00  0.00     0.118 A 
HETATM    2  N2  UNL     1      27.875   2.316  52.238  1.00  0.00    -0.214 NA
HETATM    3  C2  UNL     1      26.581   2.100  51.682  1.00  0.00     0.157 A 
HETATM    4  C9  UNL     1      25.591   1.474  52.299  1.00  0.00     0.078 A 
HETATM    5  C10 UNL     1      24.218   1.091  52.057  1.00  0.00     0.043 A 
HETATM    6  C11 UNL     1      23.752   0.454  53.120  1.00  0.00    -0.028 A 
HETATM    7  C22 UNL     1      24.782   0.350  54.187  1.00  0.00     0.163 A 
HETATM    8  N4  UNL     1      25.933   1.011  53.621  1.00  0.00    -0.366 N 
HETATM    9  C23 UNL     1      27.193   1.150  54.325  1.00  0.00     0.201 A 
ENDROOT
BRANCH   6  10
HETATM   10  C12 UNL     1      22.391  -0.058  53.182  1.00  0.00    -0.027 A 
HETATM   11  C13 UNL     1      22.063  -1.024  54.110  1.00  0.00     0.013 A 
HETATM   12  C14 UNL     1      20.800  -1.568  54.240  1.00  0.00     0.013 A 
HETATM   13  C15 UNL     1      19.822  -1.121  53.399  1.00  0.00    -0.026 A 
HETATM   14  C16 UNL     1      18.532  -1.607  53.458  1.00  0.00     0.012 A 
HETATM   15  C20 UNL     1      20.139  -0.143  52.452  1.00  0.00    -0.025 A 
HETATM   16  C17 UNL     1      17.536  -1.160  52.611  1.00  0.00     0.001 A 
HETATM   17  C18 UNL     1      17.841  -0.191  51.668  1.00  0.00     0.001 A 
HETATM   18  C19 UNL     1      19.125   0.300  51.602  1.00  0.00     0.012 A 
HETATM   19  C21 UNL     1      21.400   0.401  52.321  1.00  0.00     0.024 A 
ENDBRANCH   6  10
BRANCH   3  20
HETATM   20  N3  UNL     1      26.316   2.583  50.376  1.00  0.00    -0.339 N 
HETATM   21  H3  UNL     1      26.151   1.968  49.563  1.00  0.00     0.167 HD
BRANCH  20  22
HETATM   22  C3  UNL     1      26.234   3.944  49.969  1.00  0.00     0.035 A 
HETATM   23  C4  UNL     1      27.165   4.355  49.038  1.00  0.00     0.029 A 
HETATM   24  C5  UNL     1      27.165   5.658  48.582  1.00  0.00     0.004 A 
HETATM   25  C6  UNL     1      26.204   6.499  49.101  1.00  0.00     0.019 A 
HETATM   26  C7  UNL     1      25.232   6.151  50.046  1.00  0.00     0.013 A 
HETATM   27 BR1  UNL     1      23.956   7.382  50.694  1.00  0.00    -0.051 Br
HETATM   28  C8  UNL     1      25.294   4.828  50.456  1.00  0.00     0.048 A 
ENDBRANCH  20  22
ENDBRANCH   3  20
BRANCH   1  29
HETATM   29  N1  UNL     1      29.426   2.101  53.974  1.00  0.00    -0.386 N 
HETATM   30  H1  UNL     1      30.243   1.677  54.505  1.00  0.00     0.157 HD
HETATM   31  H2  UNL     1      30.159   2.857  54.057  1.00  0.00     0.157 HD
ENDBRANCH   1  29
TORSDOF 4
ENDMDL
MODEL 2
REMARK VINA RESULT:     -10.1      1.404      1.756
REMARK  4 active torsions:
REMARK  status: ('A' for Active; 'I' for Inactive)
REMARK    1  A    between atoms: N1_1  and  C1_2 
REMARK    2  A    between atoms: C2_4  and  N3_5 
REMARK    3  A    between atoms: N3_5  and  C3_6 
REMARK    4  A    between atoms: C11_15  and  C12_16 
ROOT
HETATM    1  C1  UNL     1      27.714   2.106  53.204  1.00  0.00     0.118 A 
HETATM    2  N2  UNL     1      27.637   2.466  51.947  1.00  0.00    -0.214 NA
HETATM    3  C2  UNL     1      26.403   2.298  51.255  1.00  0.00     0.157 A 
HETATM    4  C9  UNL     1      25.302   1.797  51.791  1.00  0.00     0.078 A 
HETATM    5  C10 UNL     1      23.940   1.495  51.412  1.00  0.00     0.043 A 
HETATM    6  C11 UNL     1      23.304   0.981  52.455  1.00  0.00    -0.028 A 
HETATM    7  C22 UNL     1      24.191   0.891  53.644  1.00  0.00     0.163 A 
HETATM    8  N4  UNL     1      25.450   1.420  53.175  1.00  0.00    -0.366 N 
HETATM    9  C23 UNL     1      26.627   1.525  54.015  1.00  0.00     0.201 A 
ENDROOT
BRANCH   6  10
HETATM   10  C12 UNL     1      21.908   0.574  52.387  1.00  0.00    -0.027 A 
HETATM   11  C13 UNL     1      21.347  -0.128  53.434  1.00  0.00     0.013 A 
HETATM   12  C14 UNL     1      20.033  -0.555  53.456  1.00  0.00     0.013 A 
HETATM   13  C15 UNL     1      19.248  -0.264  52.378  1.00  0.00    -0.026 A 
HETATM   14  C16 UNL     1      17.925  -0.650  52.315  1.00  0.00     0.012 A 
HETATM   15  C20 UNL     1      19.802   0.447  51.309  1.00  0.00    -0.025 A 
HETATM   16  C17 UNL     1      17.123  -0.359  51.228  1.00  0.00     0.001 A 
HETATM   17  C18 UNL     1      17.663   0.344  50.163  1.00  0.00     0.001 A 
HETATM   18  C19 UNL     1      18.982   0.734  50.217  1.00  0.00     0.012 A 
HETATM   19  C21 UNL     1      21.113   0.873  51.285  1.00  0.00     0.024 A 
ENDBRANCH   6  10
BRANCH   3  20
HETATM   20  N3  UNL     1      26.331   2.691  49.895  1.00  0.00    -0.339 N 
HETATM   21  H3  UNL     1      26.237   2.023  49.113  1.00  0.00     0.167 HD
BRANCH  20  22
HETATM   22  C3  UNL     1      26.373   4.019  49.386  1.00  0.00     0.035 A 
HETATM   23  C4  UNL     1      25.180   4.710  49.398  1.00  0.00     0.029 A 
HETATM   24  C5  UNL     1      25.122   6.005  48.924  1.00  0.00     0.004 A 
HETATM   25  C6  UNL     1      26.297   6.549  48.451  1.00  0.00     0.019 A 
HETATM   26  C7  UNL     1      27.540   5.907  48.409  1.00  0.00     0.013 A 
HETATM   27 BR1  UNL     1      29.095   6.742  47.740  1.00  0.00    -0.051 Br
HETATM   28  C8  UNL     1      27.520   4.611  48.901  1.00  0.00     0.048 A 
ENDBRANCH  20  22
ENDBRANCH   3  20
BRANCH   1  29
HETATM   29  N1  UNL     1      28.955   2.283  53.870  1.00  0.00    -0.386 N 
HETATM   30  H1  UNL     1      29.971   2.576  53.766  1.00  0.00     0.157 HD
HETATM   31  H2  UNL     1      29.398   2.185  54.824  1.00  0.00     0.157 HD
ENDBRANCH   1  29
TORSDOF 4
ENDMDL
MODEL 3
REMARK VINA RESULT:     -10.0      3.402      7.119
REMARK  4 active torsions:
REMARK  status: ('A' for Active; 'I' for Inactive)
REMARK    1  A    between atoms: N1_1  and  C1_2 
REMARK    2  A    between atoms: C2_4  and  N3_5 
REMARK    3  A    between atoms: N3_5  and  C3_6 
REMARK    4  A    between atoms: C11_15  and  C12_16 
ROOT
HETATM    1  C1  UNL     1      19.207  -0.824  53.452  1.00  0.00     0.118 A 
HETATM    2  N2  UNL     1      19.165   0.213  52.651  1.00  0.00    -0.214 NA
HETATM    3  C2  UNL     1      20.382   0.877  52.319  1.00  0.00     0.157 A 
HETATM    4  C9  UNL     1      21.577   0.524  52.763  1.00  0.00     0.078 A 
HETATM    5  C10 UNL     1      22.956   0.942  52.643  1.00  0.00     0.043 A 
HETATM    6  C11 UNL     1      23.717   0.138  53.369  1.00  0.00    -0.028 A 
HETATM    7  C22 UNL     1      22.910  -0.907  54.052  1.00  0.00     0.163 A 
HETATM    8  N4  UNL     1      21.557  -0.622  53.637  1.00  0.00    -0.366 N 
HETATM    9  C23 UNL     1      20.415  -1.403  54.070  1.00  0.00     0.201 A 
ENDROOT
BRANCH   6  10
HETATM   10  C12 UNL     1      25.161   0.303  53.452  1.00  0.00    -0.027 A 
HETATM   11  C13 UNL     1      25.695   1.546  53.725  1.00  0.00     0.013 A 
HETATM   12  C14 UNL     1      27.051   1.796  53.822  1.00  0.00     0.013 A 
HETATM   13  C15 UNL     1      27.908   0.750  53.636  1.00  0.00    -0.026 A 
HETATM   14  C16 UNL     1      29.276   0.907  53.715  1.00  0.00     0.012 A 
HETATM   15  C20 UNL     1      27.382  -0.516  53.359  1.00  0.00    -0.025 A 
HETATM   16  C17 UNL     1      30.152  -0.146  53.529  1.00  0.00     0.001 A 
HETATM   17  C18 UNL     1      29.640  -1.404  53.253  1.00  0.00     0.001 A 
HETATM   18  C19 UNL     1      28.276  -1.571  53.173  1.00  0.00     0.012 A 
HETATM   19  C21 UNL     1      26.030  -0.766  53.261  1.00  0.00     0.024 A 
ENDBRANCH   6  10
BRANCH   3  20
HETATM   20  N3  UNL     1      20.325   1.998  51.453  1.00  0.00    -0.339 N 
HETATM   21  H3  UNL     1      19.676   2.790  51.587  1.00  0.00     0.167 HD
BRANCH  20  22
HETATM   22  C3  UNL     1      21.119   2.223  50.294  1.00  0.00     0.035 A 
HETATM   23  C4  UNL     1      21.109   1.219  49.348  1.00  0.00     0.029 A 
HETATM   24  C5  UNL     1      21.848   1.346  48.190  1.00  0.00     0.004 A 
HETATM   25  C6  UNL     1      22.578   2.506  48.041  1.00  0.00     0.019 A 
HETATM   26  C7  UNL     1      22.636   3.563  48.958  1.00  0.00     0.013 A 
HETATM   27 BR1  UNL     1      23.669   5.114  48.659  1.00  0.00    -0.051 Br
HETATM   28  C8  UNL     1      21.868   3.363  50.095  1.00  0.00     0.048 A 
ENDBRANCH  20  22
ENDBRANCH   3  20
BRANCH   1  29
HETATM   29  N1  UNL     1      17.982  -1.467  53.767  1.00  0.00    -0.386 N 
HETATM   30  H1  UNL     1      17.471  -2.397  53.830  1.00  0.00     0.157 HD
HETATM   31  H2  UNL     1      17.001  -1.253  54.094  1.00  0.00     0.157 HD
ENDBRANCH   1  29
TORSDOF 4
ENDMDL
MODEL 4
REMARK VINA RESULT:      -9.8      3.216      6.503
REMARK  4 active torsions:
REMARK  status: ('A' for Active; 'I' for Inactive)
REMARK    1  A    between atoms: N1_1  and  C1_2 
REMARK    2  A    between atoms: C2_4  and  N3_5 
REMARK    3  A    between atoms: N3_5  and  C3_6 
REMARK    4  A    between atoms: C11_15  and  C12_16 
ROOT
HETATM    1  C1  UNL     1      20.408   3.518  51.897  1.00  0.00     0.118 A 
HETATM    2  N2  UNL     1      21.064   4.652  51.917  1.00  0.00    -0.214 NA
HETATM    3  C2  UNL     1      22.472   4.631  52.140  1.00  0.00     0.157 A 
HETATM    4  C9  UNL     1      23.187   3.534  52.332  1.00  0.00     0.078 A 
HETATM    5  C10 UNL     1      24.560   3.152  52.576  1.00  0.00     0.043 A 
HETATM    6  C11 UNL     1      24.630   1.834  52.683  1.00  0.00    -0.028 A 
HETATM    7  C22 UNL     1      23.294   1.202  52.518  1.00  0.00     0.163 A 
HETATM    8  N4  UNL     1      22.409   2.321  52.298  1.00  0.00    -0.366 N 
HETATM    9  C23 UNL     1      20.983   2.172  52.084  1.00  0.00     0.201 A 
ENDROOT
BRANCH   6  10
HETATM   10  C12 UNL     1      25.887   1.142  52.931  1.00  0.00    -0.027 A 
HETATM   11  C13 UNL     1      26.974   1.845  53.407  1.00  0.00     0.013 A 
HETATM   12  C14 UNL     1      28.203   1.272  53.671  1.00  0.00     0.013 A 
HETATM   13  C15 UNL     1      28.346  -0.066  53.445  1.00  0.00    -0.026 A 
HETATM   14  C16 UNL     1      29.538  -0.721  53.680  1.00  0.00     0.012 A 
HETATM   15  C20 UNL     1      27.254  -0.792  52.961  1.00  0.00    -0.025 A 
HETATM   16  C17 UNL     1      29.692  -2.076  53.455  1.00  0.00     0.001 A 
HETATM   17  C18 UNL     1      28.614  -2.804  52.975  1.00  0.00     0.001 A 
HETATM   18  C19 UNL     1      27.422  -2.160  52.738  1.00  0.00     0.012 A 
HETATM   19  C21 UNL     1      26.026  -0.222  52.698  1.00  0.00     0.024 A 
ENDBRANCH   6  10
BRANCH   3  20
HETATM   20  N3  UNL     1      23.171   5.863  52.160  1.00  0.00    -0.339 N 
HETATM   21  H3  UNL     1      23.379   6.386  53.026  1.00  0.00     0.167 HD
BRANCH  20  22
HETATM   22  C3  UNL     1      23.691   6.570  51.039  1.00  0.00     0.035 A 
HETATM   23  C4  UNL     1      22.921   7.613  50.571  1.00  0.00     0.029 A 
HETATM   24  C5  UNL     1      23.342   8.358  49.488  1.00  0.00     0.004 A 
HETATM   25  C6  UNL     1      24.546   8.002  48.918  1.00  0.00     0.019 A 
HETATM   26  C7  UNL     1      25.376   6.957  49.340  1.00  0.00     0.013 A 
HETATM   27 BR1  UNL     1      27.012   6.551  48.489  1.00  0.00    -0.051 Br
HETATM   28  C8  UNL     1      24.888   6.256  50.432  1.00  0.00     0.048 A 
ENDBRANCH  20  22
ENDBRANCH   3  20
BRANCH   1  29
HETATM   29  N1  UNL     1      19.007   3.567  51.673  1.00  0.00    -0.386 N 
HETATM   30  H1  UNL     1      18.046   3.425  52.102  1.00  0.00     0.157 HD
HETATM   31  H2  UNL     1      18.303   3.784  50.917  1.00  0.00     0.157 HD
ENDBRANCH   1  29
TORSDOF 4
ENDMDL
MODEL 5
REMARK VINA RESULT:      -9.6      2.636      4.622
REMARK  4 active torsions:
REMARK  status: ('A' for Active; 'I' for Inactive)
REMARK    1  A    between atoms: N1_1  and  C1_2 
REMARK    2  A    between atoms: C2_4  and  N3_5 
REMARK    3  A    between atoms: N3_5  and  C3_6 
REMARK    4  A    between atoms: C11_15  and  C12_16 
ROOT
HETATM    1  C1  UNL     1      26.221   3.654  49.788  1.00  0.00     0.118 A 
HETATM    2  N2  UNL     1      26.737   3.298  50.939  1.00  0.00    -0.214 NA
HETATM    3  C2  UNL     1      25.936   2.554  51.854  1.00  0.00     0.157 A 
HETATM    4  C9  UNL     1      24.685   2.184  51.632  1.00  0.00     0.078 A 
HETATM    5  C10 UNL     1      23.623   1.462  52.295  1.00  0.00     0.043 A 
HETATM    6  C11 UNL     1      22.559   1.435  51.507  1.00  0.00    -0.028 A 
HETATM    7  C22 UNL     1      22.813   2.146  50.226  1.00  0.00     0.163 A 
HETATM    8  N4  UNL     1      24.175   2.605  50.350  1.00  0.00    -0.366 N 
HETATM    9  C23 UNL     1      24.854   3.360  49.316  1.00  0.00     0.201 A 
ENDROOT
BRANCH   6  10
HETATM   10  C12 UNL     1      21.322   0.776  51.898  1.00  0.00    -0.027 A 
HETATM   11  C13 UNL     1      21.239   0.140  53.119  1.00  0.00     0.013 A 
HETATM   12  C14 UNL     1      20.107  -0.510  53.572  1.00  0.00     0.013 A 
HETATM   13  C15 UNL     1      19.010  -0.521  52.762  1.00  0.00    -0.026 A 
HETATM   14  C16 UNL     1      17.837  -1.146  53.133  1.00  0.00     0.012 A 
HETATM   15  C20 UNL     1      19.077   0.119  51.520  1.00  0.00    -0.025 A 
HETATM   16  C17 UNL     1      16.720  -1.162  52.319  1.00  0.00     0.001 A 
HETATM   17  C18 UNL     1      16.777  -0.530  51.086  1.00  0.00     0.001 A 
HETATM   18  C19 UNL     1      17.943   0.096  50.708  1.00  0.00     0.012 A 
HETATM   19  C21 UNL     1      20.206   0.768  51.067  1.00  0.00     0.024 A 
ENDBRANCH   6  10
BRANCH   3  20
HETATM   20  N3  UNL     1      26.505   2.175  53.096  1.00  0.00    -0.339 N 
HETATM   21  H3  UNL     1      26.177   2.535  54.007  1.00  0.00     0.167 HD
BRANCH  20  22
HETATM   22  C3  UNL     1      27.582   1.268  53.301  1.00  0.00     0.035 A 
HETATM   23  C4  UNL     1      28.768   1.824  53.732  1.00  0.00     0.029 A 
HETATM   24  C5  UNL     1      29.870   1.024  53.959  1.00  0.00     0.004 A 
HETATM   25  C6  UNL     1      29.715  -0.327  53.734  1.00  0.00     0.019 A 
HETATM   26  C7  UNL     1      28.544  -0.958  53.297  1.00  0.00     0.013 A 
HETATM   27 BR1  UNL     1      28.435  -2.822  53.019  1.00  0.00    -0.051 Br
HETATM   28  C8  UNL     1      27.481  -0.091  53.091  1.00  0.00     0.048 A 
ENDBRANCH  20  22
ENDBRANCH   3  20
BRANCH   1  29
HETATM   29  N1  UNL     1      27.039   4.393  48.895  1.00  0.00    -0.386 N 
HETATM   30  H1  UNL     1      27.055   5.025  48.041  1.00  0.00     0.157 HD
HETATM   31  H2  UNL     1      28.051   4.630  48.712  1.00  0.00     0.157 HD
ENDBRANCH   1  29
TORSDOF 4
ENDMDL
MODEL 6
REMARK VINA RESULT:      -9.6      3.656      8.860
REMARK  4 active torsions:
REMARK  status: ('A' for Active; 'I' for Inactive)
REMARK    1  A    between atoms: N1_1  and  C1_2 
REMARK    2  A    between atoms: C2_4  and  N3_5 
REMARK    3  A    between atoms: N3_5  and  C3_6 
REMARK    4  A    between atoms: C11_15  and  C12_16 
ROOT
HETATM    1  C1  UNL     1      18.721   3.195  51.310  1.00  0.00     0.118 A 
HETATM    2  N2  UNL     1      19.164   1.976  51.501  1.00  0.00    -0.214 NA
HETATM    3  C2  UNL     1      20.534   1.690  51.231  1.00  0.00     0.157 A 
HETATM    4  C9  UNL     1      21.416   2.574  50.795  1.00  0.00     0.078 A 
HETATM    5  C10 UNL     1      22.814   2.638  50.433  1.00  0.00     0.043 A 
HETATM    6  C11 UNL     1      23.108   3.873  50.055  1.00  0.00    -0.028 A 
HETATM    7  C22 UNL     1      21.919   4.763  50.132  1.00  0.00     0.163 A 
HETATM    8  N4  UNL     1      20.869   3.894  50.606  1.00  0.00    -0.366 N 
HETATM    9  C23 UNL     1      19.510   4.346  50.832  1.00  0.00     0.201 A 
ENDROOT
BRANCH   6  10
HETATM   10  C12 UNL     1      24.446   4.255  49.629  1.00  0.00    -0.027 A 
HETATM   11  C13 UNL     1      25.491   3.366  49.771  1.00  0.00     0.013 A 
HETATM   12  C14 UNL     1      26.792   3.643  49.395  1.00  0.00     0.013 A 
HETATM   13  C15 UNL     1      27.053   4.868  48.853  1.00  0.00    -0.026 A 
HETATM   14  C16 UNL     1      28.322   5.230  48.449  1.00  0.00     0.012 A 
HETATM   15  C20 UNL     1      26.005   5.781  48.703  1.00  0.00    -0.025 A 
HETATM   16  C17 UNL     1      28.596   6.468  47.899  1.00  0.00     0.001 A 
HETATM   17  C18 UNL     1      27.563   7.379  47.747  1.00  0.00     0.001 A 
HETATM   18  C19 UNL     1      26.294   7.027  48.147  1.00  0.00     0.012 A 
HETATM   19  C21 UNL     1      24.706   5.506  49.078  1.00  0.00     0.024 A 
ENDBRANCH   6  10
BRANCH   3  20
HETATM   20  N3  UNL     1      21.002   0.368  51.441  1.00  0.00    -0.339 N 
HETATM   21  H3  UNL     1      20.909  -0.387  50.742  1.00  0.00     0.167 HD
BRANCH  20  22
HETATM   22  C3  UNL     1      21.655  -0.133  52.601  1.00  0.00     0.035 A 
HETATM   23  C4  UNL     1      20.840  -0.693  53.561  1.00  0.00     0.029 A 
HETATM   24  C5  UNL     1      21.383  -1.206  54.722  1.00  0.00     0.004 A 
HETATM   25  C6  UNL     1      22.752  -1.126  54.858  1.00  0.00     0.019 A 
HETATM   26  C7  UNL     1      23.638  -0.572  53.926  1.00  0.00     0.013 A 
HETATM   27 BR1  UNL     1      25.504  -0.511  54.208  1.00  0.00    -0.051 Br
HETATM   28  C8  UNL     1      23.021  -0.078  52.787  1.00  0.00     0.048 A 
ENDBRANCH  20  22
ENDBRANCH   3  20
BRANCH   1  29
HETATM   29  N1  UNL     1      17.353   3.454  51.586  1.00  0.00    -0.386 N 
HETATM   30  H1  UNL     1      16.385   3.584  51.169  1.00  0.00     0.157 HD
HETATM   31  H2  UNL     1      16.697   3.635  52.394  1.00  0.00     0.157 HD
ENDBRANCH   1  29
TORSDOF 4
ENDMDL
MODEL 7
REMARK VINA RESULT:      -9.3      4.472      9.249
REMARK  4 active torsions:
REMARK  status: ('A' for Active; 'I' for Inactive)
REMARK    1  A    between atoms: N1_1  and  C1_2 
REMARK    2  A    between atoms: C2_4  and  N3_5 
REMARK    3  A    between atoms: N3_5  and  C3_6 
REMARK    4  A    between atoms: C11_15  and  C12_16 
ROOT
HETATM    1  C1  UNL     1      18.845   1.258  49.990  1.00  0.00     0.118 A 
HETATM    2  N2  UNL     1      18.355   0.583  51.000  1.00  0.00    -0.214 NA
HETATM    3  C2  UNL     1      19.235   0.155  52.036  1.00  0.00     0.157 A 
HETATM    4  C9  UNL     1      20.537   0.389  52.062  1.00  0.00     0.078 A 
HETATM    5  C10 UNL     1      21.680   0.121  52.905  1.00  0.00     0.043 A 
HETATM    6  C11 UNL     1      22.761   0.647  52.349  1.00  0.00    -0.028 A 
HETATM    7  C22 UNL     1      22.439   1.325  51.066  1.00  0.00     0.163 A 
HETATM    8  N4  UNL     1      21.015   1.135  50.925  1.00  0.00    -0.366 N 
HETATM    9  C23 UNL     1      20.257   1.640  49.797  1.00  0.00     0.201 A 
ENDROOT
BRANCH   6  10
HETATM   10  C12 UNL     1      24.077   0.545  52.964  1.00  0.00    -0.027 A 
HETATM   11  C13 UNL     1      24.323  -0.440  53.898  1.00  0.00     0.013 A 
HETATM   12  C14 UNL     1      25.539  -0.612  54.532  1.00  0.00     0.013 A 
HETATM   13  C15 UNL     1      26.552   0.244  54.212  1.00  0.00    -0.026 A 
HETATM   14  C16 UNL     1      27.799   0.147  54.795  1.00  0.00     0.012 A 
HETATM   15  C20 UNL     1      26.319   1.248  53.267  1.00  0.00    -0.025 A 
HETATM   16  C17 UNL     1      28.832   1.009  54.477  1.00  0.00     0.001 A 
HETATM   17  C18 UNL     1      28.609   2.007  53.542  1.00  0.00     0.001 A 
HETATM   18  C19 UNL     1      27.369   2.112  52.955  1.00  0.00     0.012 A 
HETATM   19  C21 UNL     1      25.106   1.421  52.634  1.00  0.00     0.024 A 
ENDBRANCH   6  10
BRANCH   3  20
HETATM   20  N3  UNL     1      18.694  -0.575  53.124  1.00  0.00    -0.339 N 
HETATM   21  H3  UNL     1      18.960  -0.412  54.108  1.00  0.00     0.167 HD
BRANCH  20  22
HETATM   22  C3  UNL     1      17.728  -1.618  53.057  1.00  0.00     0.035 A 
HETATM   23  C4  UNL     1      18.059  -2.793  53.699  1.00  0.00     0.029 A 
HETATM   24  C5  UNL     1      17.185  -3.861  53.690  1.00  0.00     0.004 A 
HETATM   25  C6  UNL     1      15.995  -3.686  53.017  1.00  0.00     0.019 A 
HETATM   26  C7  UNL     1      15.595  -2.525  52.345  1.00  0.00     0.013 A 
HETATM   27 BR1  UNL     1      13.938  -2.386  51.452  1.00  0.00    -0.051 Br
HETATM   28  C8  UNL     1      16.522  -1.496  52.399  1.00  0.00     0.048 A 
ENDBRANCH  20  22
ENDBRANCH   3  20
BRANCH   1  29
HETATM   29  N1  UNL     1      17.947   1.673  48.972  1.00  0.00    -0.386 N 
HETATM   30  H1  UNL     1      17.856   2.118  48.011  1.00  0.00     0.157 HD
HETATM   31  H2  UNL     1      16.916   1.706  48.749  1.00  0.00     0.157 HD
ENDBRANCH   1  29
TORSDOF 4
ENDMDL
MODEL 8
REMARK VINA RESULT:      -9.3      3.612      8.178
REMARK  4 active torsions:
REMARK  status: ('A' for Active; 'I' for Inactive)
REMARK    1  A    between atoms: N1_1  and  C1_2 
REMARK    2  A    between atoms: C2_4  and  N3_5 
REMARK    3  A    between atoms: N3_5  and  C3_6 
REMARK    4  A    between atoms: C11_15  and  C12_16 
ROOT
HETATM    1  C1  UNL     1      20.910   4.493  50.546  1.00  0.00     0.118 A 
HETATM    2  N2  UNL     1      20.440   3.277  50.411  1.00  0.00    -0.214 NA
HETATM    3  C2  UNL     1      21.277   2.173  50.743  1.00  0.00     0.157 A 
HETATM    4  C9  UNL     1      22.519   2.277  51.189  1.00  0.00     0.078 A 
HETATM    5  C10 UNL     1      23.607   1.421  51.606  1.00  0.00     0.043 A 
HETATM    6  C11 UNL     1      24.639   2.173  51.958  1.00  0.00    -0.028 A 
HETATM    7  C22 UNL     1      24.334   3.620  51.809  1.00  0.00     0.163 A 
HETATM    8  N4  UNL     1      22.977   3.638  51.317  1.00  0.00    -0.366 N 
HETATM    9  C23 UNL     1      22.256   4.861  51.024  1.00  0.00     0.201 A 
ENDROOT
BRANCH   6  10
HETATM   10  C12 UNL     1      25.892   1.600  52.427  1.00  0.00    -0.027 A 
HETATM   11  C13 UNL     1      26.853   2.416  52.986  1.00  0.00     0.013 A 
HETATM   12  C14 UNL     1      28.069   1.959  53.457  1.00  0.00     0.013 A 
HETATM   13  C15 UNL     1      28.331   0.623  53.361  1.00  0.00    -0.026 A 
HETATM   14  C16 UNL     1      29.519   0.080  53.806  1.00  0.00     0.012 A 
HETATM   15  C20 UNL     1      27.367  -0.217  52.796  1.00  0.00    -0.025 A 
HETATM   16  C17 UNL     1      29.793  -1.271  53.713  1.00  0.00     0.001 A 
HETATM   17  C18 UNL     1      28.843  -2.112  53.154  1.00  0.00     0.001 A 
HETATM   18  C19 UNL     1      27.655  -1.580  52.708  1.00  0.00     0.012 A 
HETATM   19  C21 UNL     1      26.153   0.237  52.325  1.00  0.00     0.024 A 
ENDBRANCH   6  10
BRANCH   3  20
HETATM   20  N3  UNL     1      20.759   0.862  50.592  1.00  0.00    -0.339 N 
HETATM   21  H3  UNL     1      21.059   0.213  49.846  1.00  0.00     0.167 HD
BRANCH  20  22
HETATM   22  C3  UNL     1      19.776   0.232  51.405  1.00  0.00     0.035 A 
HETATM   23  C4  UNL     1      20.216  -0.256  52.618  1.00  0.00     0.029 A 
HETATM   24  C5  UNL     1      19.335  -0.883  53.476  1.00  0.00     0.004 A 
HETATM   25  C6  UNL     1      18.026  -0.988  53.058  1.00  0.00     0.019 A 
HETATM   26  C7  UNL     1      17.512  -0.517  51.844  1.00  0.00     0.013 A 
HETATM   27 BR1  UNL     1      15.697  -0.712  51.364  1.00  0.00    -0.051 Br
HETATM   28  C8  UNL     1      18.454   0.100  51.036  1.00  0.00     0.048 A 
ENDBRANCH  20  22
ENDBRANCH   3  20
BRANCH   1  29
HETATM   29  N1  UNL     1      20.056   5.575  50.208  1.00  0.00    -0.386 N 
HETATM   30  H1  UNL     1      19.921   6.628  50.241  1.00  0.00     0.157 HD
HETATM   31  H2  UNL     1      19.128   5.776  49.747  1.00  0.00     0.157 HD
ENDBRANCH   1  29
TORSDOF 4
ENDMDL
MODEL 9
REMARK VINA RESULT:      -9.2      4.194      7.999
REMARK  4 active torsions:
REMARK  status: ('A' for Active; 'I' for Inactive)
REMARK    1  A    between atoms: N1_1  and  C1_2 
REMARK    2  A    between atoms: C2_4  and  N3_5 
REMARK    3  A    between atoms: N3_5  and  C3_6 
REMARK    4  A    between atoms: C11_15  and  C12_16 
ROOT
HETATM    1  C1  UNL     1      19.022  -1.039  53.402  1.00  0.00     0.118 A 
HETATM    2  N2  UNL     1      18.973  -0.154  52.437  1.00  0.00    -0.214 NA
HETATM    3  C2  UNL     1      20.179   0.482  52.021  1.00  0.00     0.157 A 
HETATM    4  C9  UNL     1      21.372   0.245  52.542  1.00  0.00     0.078 A 
HETATM    5  C10 UNL     1      22.742   0.679  52.381  1.00  0.00     0.043 A 
HETATM    6  C11 UNL     1      23.506   0.033  53.248  1.00  0.00    -0.028 A 
HETATM    7  C22 UNL     1      22.710  -0.906  54.081  1.00  0.00     0.163 A 
HETATM    8  N4  UNL     1      21.361  -0.736  53.598  1.00  0.00    -0.366 N 
HETATM    9  C23 UNL     1      20.229  -1.468  54.133  1.00  0.00     0.201 A 
ENDROOT
BRANCH   6  10
HETATM   10  C12 UNL     1      24.943   0.254  53.331  1.00  0.00    -0.027 A 
HETATM   11  C13 UNL     1      25.431   1.530  53.517  1.00  0.00     0.013 A 
HETATM   12  C14 UNL     1      26.776   1.833  53.607  1.00  0.00     0.013 A 
HETATM   13  C15 UNL     1      27.670   0.807  53.505  1.00  0.00    -0.026 A 
HETATM   14  C16 UNL     1      29.031   1.017  53.583  1.00  0.00     0.012 A 
HETATM   15  C20 UNL     1      27.191  -0.493  53.314  1.00  0.00    -0.025 A 
HETATM   16  C17 UNL     1      29.944  -0.016  53.481  1.00  0.00     0.001 A 
HETATM   17  C18 UNL     1      29.479  -1.308  53.292  1.00  0.00     0.001 A 
HETATM   18  C19 UNL     1      28.122  -1.527  53.212  1.00  0.00     0.012 A 
HETATM   19  C21 UNL     1      25.849  -0.797  53.224  1.00  0.00     0.024 A 
ENDBRANCH   6  10
BRANCH   3  20
HETATM   20  N3  UNL     1      20.114   1.438  50.977  1.00  0.00    -0.339 N 
HETATM   21  H3  UNL     1      20.913   1.669  50.365  1.00  0.00     0.167 HD
BRANCH  20  22
HETATM   22  C3  UNL     1      18.984   2.217  50.600  1.00  0.00     0.035 A 
HETATM   23  C4  UNL     1      18.650   3.250  51.450  1.00  0.00     0.029 A 
HETATM   24  C5  UNL     1      17.569   4.061  51.169  1.00  0.00     0.004 A 
HETATM   25  C6  UNL     1      16.864   3.781  50.018  1.00  0.00     0.019 A 
HETATM   26  C7  UNL     1      17.146   2.751  49.112  1.00  0.00     0.013 A 
HETATM   27 BR1  UNL     1      16.115   2.452  47.559  1.00  0.00    -0.051 Br
HETATM   28  C8  UNL     1      18.244   1.981  49.461  1.00  0.00     0.048 A 
ENDBRANCH  20  22
ENDBRANCH   3  20
BRANCH   1  29
HETATM   29  N1  UNL     1      17.807  -1.657  53.796  1.00  0.00    -0.386 N 
HETATM   30  H1  UNL     1      17.236  -2.025  54.613  1.00  0.00     0.157 HD
HETATM   31  H2  UNL     1      16.905  -2.030  53.393  1.00  0.00     0.157 HD
ENDBRANCH   1  29
TORSDOF 4
ENDMDL
