MODEL 1
REMARK VINA RESULT:      -7.2      0.000      0.000
REMARK  7 active torsions:
REMARK  status: ('A' for Active; 'I' for Inactive)
REMARK    1  A    between atoms: C4_4  and  N1_5 
REMARK    2  A    between atoms: N1_5  and  C5_6 
REMARK    3  A    between atoms: C5_6  and  C6_8 
REMARK    4  A    between atoms: C6_8  and  C7_9 
REMARK    5  A    between atoms: C9_12  and  O1_13 
REMARK    6  A    between atoms: O1_13  and  C10_14 
REMARK    7  A    between atoms: C10_14  and  C11_15 
ROOT
HETATM    1  C7  UNL     1      24.915   4.072  50.161  1.00  0.00     0.127 C 
HETATM    2  C8  UNL     1      23.977   3.396  49.288  1.00  0.00     0.059 C 
HETATM    3  N2  UNL     1      23.199   2.860  48.585  1.00  0.00    -0.197 NA
ENDROOT
BRANCH   1   4
HETATM    4  C6  UNL     1      25.706   3.072  50.941  1.00  0.00     0.055 C 
BRANCH   4   5
HETATM    5  C5  UNL     1      25.045   2.641  52.228  1.00  0.00     0.180 C 
HETATM    6 CL1  UNL     1      23.867   3.801  52.828  1.00  0.00    -0.103 Cl
BRANCH   5   7
HETATM    7  N1  UNL     1      26.126   2.475  53.196  1.00  0.00    -0.370 N 
HETATM    8  H5  UNL     1      26.377   3.236  53.895  1.00  0.00     0.161 HD
BRANCH   7   9
HETATM    9  C4  UNL     1      26.892   1.279  53.241  1.00  0.00     0.059 A 
HETATM   10  C3  UNL     1      28.337   1.169  53.406  1.00  0.00     0.034 A 
HETATM   11  C2  UNL     1      28.765  -0.083  53.408  1.00  0.00    -0.075 A 
HETATM   12  C1  UNL     1      30.144  -0.620  53.549  1.00  0.00     0.044 C 
HETATM   13  C17 UNL     1      27.566  -0.940  53.234  1.00  0.00     0.100 A 
HETATM   14  C9  UNL     1      26.439   0.040  53.139  1.00  0.00     0.077 A 
BRANCH  14  15
HETATM   15  O1  UNL     1      25.125  -0.376  52.969  1.00  0.00    -0.348 OA
BRANCH  15  16
HETATM   16  C10 UNL     1      24.351  -0.625  54.113  1.00  0.00     0.214 C 
BRANCH  16  17
HETATM   17  C11 UNL     1      22.898  -0.626  53.819  1.00  0.00    -0.034 A 
HETATM   18  C12 UNL     1      21.942  -1.278  54.569  1.00  0.00     0.011 A 
HETATM   19  C13 UNL     1      20.617  -1.182  54.160  1.00  0.00     0.024 A 
HETATM   20  C14 UNL     1      20.242  -0.463  53.049  1.00  0.00     0.034 A 
HETATM   21 CL2  UNL     1      18.578  -0.342  52.536  1.00  0.00    -0.084 Cl
HETATM   22  C15 UNL     1      21.191   0.195  52.288  1.00  0.00     0.024 A 
HETATM   23  C16 UNL     1      22.526   0.106  52.689  1.00  0.00     0.011 A 
ENDBRANCH  16  17
ENDBRANCH  15  16
ENDBRANCH  14  15
ENDBRANCH   7   9
ENDBRANCH   5   7
ENDBRANCH   4   5
ENDBRANCH   1   4
TORSDOF 7
ENDMDL
MODEL 2
REMARK VINA RESULT:      -7.1      2.441      5.908
REMARK  7 active torsions:
REMARK  status: ('A' for Active; 'I' for Inactive)
REMARK    1  A    between atoms: C4_4  and  N1_5 
REMARK    2  A    between atoms: N1_5  and  C5_6 
REMARK    3  A    between atoms: C5_6  and  C6_8 
REMARK    4  A    between atoms: C6_8  and  C7_9 
REMARK    5  A    between atoms: C9_12  and  O1_13 
REMARK    6  A    between atoms: O1_13  and  C10_14 
REMARK    7  A    between atoms: C10_14  and  C11_15 
ROOT
HETATM    1  C7  UNL     1      25.933   3.099  50.146  1.00  0.00     0.127 C 
HETATM    2  C8  UNL     1      26.861   3.901  49.375  1.00  0.00     0.059 C 
HETATM    3  N2  UNL     1      27.630   4.544  48.757  1.00  0.00    -0.197 NA
ENDROOT
BRANCH   1   4
HETATM    4  C6  UNL     1      24.858   3.963  50.721  1.00  0.00     0.055 C 
BRANCH   4   5
HETATM    5  C5  UNL     1      23.519   3.805  50.042  1.00  0.00     0.180 C 
HETATM    6 CL1  UNL     1      22.182   4.459  50.978  1.00  0.00    -0.103 Cl
BRANCH   5   7
HETATM    7  N1  UNL     1      23.339   2.369  49.843  1.00  0.00    -0.370 N 
HETATM    8  H5  UNL     1      23.824   1.845  49.055  1.00  0.00     0.161 HD
BRANCH   7   9
HETATM    9  C4  UNL     1      22.498   1.611  50.702  1.00  0.00     0.059 A 
HETATM   10  C3  UNL     1      21.106   1.244  50.468  1.00  0.00     0.034 A 
HETATM   11  C2  UNL     1      20.584   0.532  51.453  1.00  0.00    -0.075 A 
HETATM   12  C1  UNL     1      19.217  -0.032  51.603  1.00  0.00     0.044 C 
HETATM   13  C17 UNL     1      21.655   0.367  52.468  1.00  0.00     0.100 A 
HETATM   14  C9  UNL     1      22.821   1.096  51.878  1.00  0.00     0.077 A 
BRANCH  14  15
HETATM   15  O1  UNL     1      24.039   1.174  52.538  1.00  0.00    -0.348 OA
BRANCH  15  16
HETATM   16  C10 UNL     1      24.336   0.202  53.507  1.00  0.00     0.214 C 
BRANCH  16  17
HETATM   17  C11 UNL     1      25.769  -0.176  53.504  1.00  0.00    -0.034 A 
HETATM   18  C12 UNL     1      26.354  -1.049  52.612  1.00  0.00     0.011 A 
HETATM   19  C13 UNL     1      27.715  -1.300  52.742  1.00  0.00     0.024 A 
HETATM   20  C14 UNL     1      28.479  -0.709  53.720  1.00  0.00     0.034 A 
HETATM   21 CL2  UNL     1      30.189  -1.023  53.884  1.00  0.00    -0.084 Cl
HETATM   22  C15 UNL     1      27.905   0.169  54.622  1.00  0.00     0.024 A 
HETATM   23  C16 UNL     1      26.539   0.429  54.501  1.00  0.00     0.011 A 
ENDBRANCH  16  17
ENDBRANCH  15  16
ENDBRANCH  14  15
ENDBRANCH   7   9
ENDBRANCH   5   7
ENDBRANCH   4   5
ENDBRANCH   1   4
TORSDOF 7
ENDMDL
MODEL 3
REMARK VINA RESULT:      -7.0      2.451      6.065
REMARK  7 active torsions:
REMARK  status: ('A' for Active; 'I' for Inactive)
REMARK    1  A    between atoms: C4_4  and  N1_5 
REMARK    2  A    between atoms: N1_5  and  C5_6 
REMARK    3  A    between atoms: C5_6  and  C6_8 
REMARK    4  A    between atoms: C6_8  and  C7_9 
REMARK    5  A    between atoms: C9_12  and  O1_13 
REMARK    6  A    between atoms: O1_13  and  C10_14 
REMARK    7  A    between atoms: C10_14  and  C11_15 
ROOT
HETATM    1  C7  UNL     1      24.106   2.920  52.604  1.00  0.00     0.127 C 
HETATM    2  C8  UNL     1      23.872   4.276  52.154  1.00  0.00     0.059 C 
HETATM    3  N2  UNL     1      23.666   5.381  51.801  1.00  0.00    -0.197 NA
ENDROOT
BRANCH   1   4
HETATM    4  C6  UNL     1      24.223   1.999  51.433  1.00  0.00     0.055 C 
BRANCH   4   5
HETATM    5  C5  UNL     1      22.896   1.483  50.927  1.00  0.00     0.180 C 
HETATM    6 CL1  UNL     1      22.389   2.232  49.419  1.00  0.00    -0.103 Cl
BRANCH   5   7
HETATM    7  N1  UNL     1      21.928   1.770  51.982  1.00  0.00    -0.370 N 
HETATM    8  H5  UNL     1      21.706   2.764  52.288  1.00  0.00     0.161 HD
BRANCH   7   9
HETATM    9  C4  UNL     1      21.239   0.720  52.648  1.00  0.00     0.059 A 
HETATM   10  C3  UNL     1      19.839   0.347  52.483  1.00  0.00     0.034 A 
HETATM   11  C2  UNL     1      19.481  -0.675  53.243  1.00  0.00    -0.075 A 
HETATM   12  C1  UNL     1      18.165  -1.355  53.371  1.00  0.00     0.044 C 
HETATM   13  C17 UNL     1      20.688  -1.075  54.009  1.00  0.00     0.100 A 
HETATM   14  C9  UNL     1      21.738  -0.115  53.545  1.00  0.00     0.077 A 
BRANCH  14  15
HETATM   15  O1  UNL     1      23.035  -0.162  54.038  1.00  0.00    -0.348 OA
BRANCH  15  16
HETATM   16  C10 UNL     1      23.930  -1.082  53.471  1.00  0.00     0.214 C 
BRANCH  16  17
HETATM   17  C11 UNL     1      25.345  -0.682  53.665  1.00  0.00    -0.034 A 
HETATM   18  C12 UNL     1      25.812   0.078  54.716  1.00  0.00     0.011 A 
HETATM   19  C13 UNL     1      27.171   0.369  54.756  1.00  0.00     0.024 A 
HETATM   20  C14 UNL     1      28.045  -0.077  53.792  1.00  0.00     0.034 A 
HETATM   21 CL2  UNL     1      29.752   0.288  53.841  1.00  0.00    -0.084 Cl
HETATM   22  C15 UNL     1      27.589  -0.840  52.732  1.00  0.00     0.024 A 
HETATM   23  C16 UNL     1      26.226  -1.138  52.682  1.00  0.00     0.011 A 
ENDBRANCH  16  17
ENDBRANCH  15  16
ENDBRANCH  14  15
ENDBRANCH   7   9
ENDBRANCH   5   7
ENDBRANCH   4   5
ENDBRANCH   1   4
TORSDOF 7
ENDMDL
MODEL 4
REMARK VINA RESULT:      -6.9      2.810      6.273
REMARK  7 active torsions:
REMARK  status: ('A' for Active; 'I' for Inactive)
REMARK    1  A    between atoms: C4_4  and  N1_5 
REMARK    2  A    between atoms: N1_5  and  C5_6 
REMARK    3  A    between atoms: C5_6  and  C6_8 
REMARK    4  A    between atoms: C6_8  and  C7_9 
REMARK    5  A    between atoms: C9_12  and  O1_13 
REMARK    6  A    between atoms: O1_13  and  C10_14 
REMARK    7  A    between atoms: C10_14  and  C11_15 
ROOT
HETATM    1  C7  UNL     1      20.448   0.578  51.223  1.00  0.00     0.127 C 
HETATM    2  C8  UNL     1      19.065   0.150  51.279  1.00  0.00     0.059 C 
HETATM    3  N2  UNL     1      17.936  -0.184  51.310  1.00  0.00    -0.197 NA
ENDROOT
BRANCH   1   4
HETATM    4  C6  UNL     1      20.967   0.828  52.602  1.00  0.00     0.055 C 
BRANCH   4   5
HETATM    5  C5  UNL     1      22.055  -0.128  53.027  1.00  0.00     0.180 C 
HETATM    6 CL1  UNL     1      21.527  -1.286  54.241  1.00  0.00    -0.103 Cl
BRANCH   5   7
HETATM    7  N1  UNL     1      23.132   0.703  53.559  1.00  0.00    -0.370 N 
HETATM    8  H5  UNL     1      22.952   1.464  54.280  1.00  0.00     0.161 HD
BRANCH   7   9
HETATM    9  C4  UNL     1      24.475   0.526  53.128  1.00  0.00     0.059 A 
HETATM   10  C3  UNL     1      25.304  -0.661  53.307  1.00  0.00     0.034 A 
HETATM   11  C2  UNL     1      26.518  -0.528  52.798  1.00  0.00    -0.075 A 
HETATM   12  C1  UNL     1      27.652  -1.488  52.768  1.00  0.00     0.044 C 
HETATM   13  C17 UNL     1      26.582   0.835  52.212  1.00  0.00     0.100 A 
HETATM   14  C9  UNL     1      25.226   1.405  52.486  1.00  0.00     0.077 A 
BRANCH  14  15
HETATM   15  O1  UNL     1      24.883   2.690  52.087  1.00  0.00    -0.348 OA
BRANCH  15  16
HETATM   16  C10 UNL     1      24.495   2.891  50.752  1.00  0.00     0.214 C 
BRANCH  16  17
HETATM   17  C11 UNL     1      25.424   3.792  50.028  1.00  0.00    -0.034 A 
HETATM   18  C12 UNL     1      26.667   3.429  49.554  1.00  0.00     0.011 A 
HETATM   19  C13 UNL     1      27.419   4.394  48.893  1.00  0.00     0.024 A 
HETATM   20  C14 UNL     1      26.962   5.676  48.702  1.00  0.00     0.034 A 
HETATM   21 CL2  UNL     1      27.906   6.888  47.871  1.00  0.00    -0.084 Cl
HETATM   22  C15 UNL     1      25.717   6.053  49.172  1.00  0.00     0.024 A 
HETATM   23  C16 UNL     1      24.952   5.094  49.838  1.00  0.00     0.011 A 
ENDBRANCH  16  17
ENDBRANCH  15  16
ENDBRANCH  14  15
ENDBRANCH   7   9
ENDBRANCH   5   7
ENDBRANCH   4   5
ENDBRANCH   1   4
TORSDOF 7
ENDMDL
MODEL 5
REMARK VINA RESULT:      -6.8      2.518      6.706
REMARK  7 active torsions:
REMARK  status: ('A' for Active; 'I' for Inactive)
REMARK    1  A    between atoms: C4_4  and  N1_5 
REMARK    2  A    between atoms: N1_5  and  C5_6 
REMARK    3  A    between atoms: C5_6  and  C6_8 
REMARK    4  A    between atoms: C6_8  and  C7_9 
REMARK    5  A    between atoms: C9_12  and  O1_13 
REMARK    6  A    between atoms: O1_13  and  C10_14 
REMARK    7  A    between atoms: C10_14  and  C11_15 
ROOT
HETATM    1  C7  UNL     1      21.064   0.249  53.964  1.00  0.00     0.127 C 
HETATM    2  C8  UNL     1      21.725  -0.797  54.717  1.00  0.00     0.059 C 
HETATM    3  N2  UNL     1      22.267  -1.634  55.345  1.00  0.00    -0.197 NA
ENDROOT
BRANCH   1   4
HETATM    4  C6  UNL     1      21.555   0.259  52.553  1.00  0.00     0.055 C 
BRANCH   4   5
HETATM    5  C5  UNL     1      20.963   1.361  51.708  1.00  0.00     0.180 C 
HETATM    6 CL1  UNL     1      19.244   1.153  51.398  1.00  0.00    -0.103 Cl
BRANCH   5   7
HETATM    7  N1  UNL     1      21.706   1.344  50.451  1.00  0.00    -0.370 N 
HETATM    8  H5  UNL     1      21.538   0.603  49.707  1.00  0.00     0.161 HD
BRANCH   7   9
HETATM    9  C4  UNL     1      22.693   2.328  50.171  1.00  0.00     0.059 A 
HETATM   10  C3  UNL     1      22.555   3.484  49.293  1.00  0.00     0.034 A 
HETATM   11  C2  UNL     1      23.651   4.223  49.231  1.00  0.00    -0.075 A 
HETATM   12  C1  UNL     1      23.922   5.467  48.464  1.00  0.00     0.044 C 
HETATM   13  C17 UNL     1      24.650   3.570  50.114  1.00  0.00     0.100 A 
HETATM   14  C9  UNL     1      23.925   2.378  50.652  1.00  0.00     0.077 A 
BRANCH  14  15
HETATM   15  O1  UNL     1      24.532   1.493  51.534  1.00  0.00    -0.348 OA
BRANCH  15  16
HETATM   16  C10 UNL     1      25.129   2.013  52.693  1.00  0.00     0.214 C 
BRANCH  16  17
HETATM   17  C11 UNL     1      26.436   1.377  52.985  1.00  0.00    -0.034 A 
HETATM   18  C12 UNL     1      27.560   2.047  53.422  1.00  0.00     0.011 A 
HETATM   19  C13 UNL     1      28.712   1.305  53.652  1.00  0.00     0.024 A 
HETATM   20  C14 UNL     1      28.759  -0.056  53.460  1.00  0.00     0.034 A 
HETATM   21 CL2  UNL     1      30.206  -0.988  53.749  1.00  0.00    -0.084 Cl
HETATM   22  C15 UNL     1      27.640  -0.740  53.022  1.00  0.00     0.024 A 
HETATM   23  C16 UNL     1      26.476  -0.005  52.787  1.00  0.00     0.011 A 
ENDBRANCH  16  17
ENDBRANCH  15  16
ENDBRANCH  14  15
ENDBRANCH   7   9
ENDBRANCH   5   7
ENDBRANCH   4   5
ENDBRANCH   1   4
TORSDOF 7
ENDMDL
MODEL 6
REMARK VINA RESULT:      -6.8      2.860      4.592
REMARK  7 active torsions:
REMARK  status: ('A' for Active; 'I' for Inactive)
REMARK    1  A    between atoms: C4_4  and  N1_5 
REMARK    2  A    between atoms: N1_5  and  C5_6 
REMARK    3  A    between atoms: C5_6  and  C6_8 
REMARK    4  A    between atoms: C6_8  and  C7_9 
REMARK    5  A    between atoms: C9_12  and  O1_13 
REMARK    6  A    between atoms: O1_13  and  C10_14 
REMARK    7  A    between atoms: C10_14  and  C11_15 
ROOT
HETATM    1  C7  UNL     1      20.958   4.593  50.612  1.00  0.00     0.127 C 
HETATM    2  C8  UNL     1      20.444   3.862  51.753  1.00  0.00     0.059 C 
HETATM    3  N2  UNL     1      20.009   3.266  52.670  1.00  0.00    -0.197 NA
ENDROOT
BRANCH   1   4
HETATM    4  C6  UNL     1      21.621   5.854  51.063  1.00  0.00     0.055 C 
BRANCH   4   5
HETATM    5  C5  UNL     1      22.823   6.241  50.235  1.00  0.00     0.180 C 
HETATM    6 CL1  UNL     1      22.822   5.523  48.629  1.00  0.00    -0.103 Cl
BRANCH   5   7
HETATM    7  N1  UNL     1      23.990   5.787  50.987  1.00  0.00    -0.370 N 
HETATM    8  H5  UNL     1      24.063   5.911  52.041  1.00  0.00     0.161 HD
BRANCH   7   9
HETATM    9  C4  UNL     1      25.084   5.159  50.333  1.00  0.00     0.059 A 
HETATM   10  C3  UNL     1      26.150   5.812  49.583  1.00  0.00     0.034 A 
HETATM   11  C2  UNL     1      27.032   4.961  49.085  1.00  0.00    -0.075 A 
HETATM   12  C1  UNL     1      28.251   5.214  48.272  1.00  0.00     0.044 C 
HETATM   13  C17 UNL     1      26.587   3.605  49.494  1.00  0.00     0.100 A 
HETATM   14  C9  UNL     1      25.340   3.862  50.280  1.00  0.00     0.077 A 
BRANCH  14  15
HETATM   15  O1  UNL     1      24.610   2.824  50.845  1.00  0.00    -0.348 OA
BRANCH  15  16
HETATM   16  C10 UNL     1      25.272   1.936  51.707  1.00  0.00     0.214 C 
BRANCH  16  17
HETATM   17  C11 UNL     1      24.335   1.009  52.387  1.00  0.00    -0.034 A 
HETATM   18  C12 UNL     1      24.681   0.142  53.401  1.00  0.00     0.011 A 
HETATM   19  C13 UNL     1      23.683  -0.665  53.936  1.00  0.00     0.024 A 
HETATM   20  C14 UNL     1      22.384  -0.619  53.488  1.00  0.00     0.034 A 
HETATM   21 CL2  UNL     1      21.130  -1.632  54.160  1.00  0.00    -0.084 Cl
HETATM   22  C15 UNL     1      22.024   0.246  52.470  1.00  0.00     0.024 A 
HETATM   23  C16 UNL     1      23.018   1.061  51.925  1.00  0.00     0.011 A 
ENDBRANCH  16  17
ENDBRANCH  15  16
ENDBRANCH  14  15
ENDBRANCH   7   9
ENDBRANCH   5   7
ENDBRANCH   4   5
ENDBRANCH   1   4
TORSDOF 7
ENDMDL
MODEL 7
REMARK VINA RESULT:      -6.7      2.599      6.969
REMARK  7 active torsions:
REMARK  status: ('A' for Active; 'I' for Inactive)
REMARK    1  A    between atoms: C4_4  and  N1_5 
REMARK    2  A    between atoms: N1_5  and  C5_6 
REMARK    3  A    between atoms: C5_6  and  C6_8 
REMARK    4  A    between atoms: C6_8  and  C7_9 
REMARK    5  A    between atoms: C9_12  and  O1_13 
REMARK    6  A    between atoms: O1_13  and  C10_14 
REMARK    7  A    between atoms: C10_14  and  C11_15 
ROOT
HETATM    1  C7  UNL     1      27.196   1.935  53.480  1.00  0.00     0.127 C 
HETATM    2  C8  UNL     1      27.593   0.747  54.207  1.00  0.00     0.059 C 
HETATM    3  N2  UNL     1      27.935  -0.217  54.792  1.00  0.00    -0.197 NA
ENDROOT
BRANCH   1   4
HETATM    4  C6  UNL     1      25.984   1.653  52.653  1.00  0.00     0.055 C 
BRANCH   4   5
HETATM    5  C5  UNL     1      24.812   1.128  53.447  1.00  0.00     0.180 C 
HETATM    6 CL1  UNL     1      24.461  -0.566  53.130  1.00  0.00    -0.103 Cl
BRANCH   5   7
HETATM    7  N1  UNL     1      23.670   1.956  53.071  1.00  0.00    -0.370 N 
HETATM    8  H5  UNL     1      23.660   3.008  53.230  1.00  0.00     0.161 HD
BRANCH   7   9
HETATM    9  C4  UNL     1      22.515   1.383  52.473  1.00  0.00     0.059 A 
HETATM   10  C3  UNL     1      21.360   0.817  53.161  1.00  0.00     0.034 A 
HETATM   11  C2  UNL     1      20.437   0.356  52.333  1.00  0.00    -0.075 A 
HETATM   12  C1  UNL     1      19.129  -0.288  52.623  1.00  0.00     0.044 C 
HETATM   13  C17 UNL     1      20.943   0.599  50.958  1.00  0.00     0.100 A 
HETATM   14  C9  UNL     1      22.270   1.255  51.179  1.00  0.00     0.077 A 
BRANCH  14  15
HETATM   15  O1  UNL     1      23.074   1.645  50.116  1.00  0.00    -0.348 OA
BRANCH  15  16
HETATM   16  C10 UNL     1      22.644   2.713  49.312  1.00  0.00     0.214 C 
BRANCH  16  17
HETATM   17  C11 UNL     1      23.690   3.751  49.151  1.00  0.00    -0.034 A 
HETATM   18  C12 UNL     1      23.471   5.022  48.663  1.00  0.00     0.011 A 
HETATM   19  C13 UNL     1      24.560   5.882  48.572  1.00  0.00     0.024 A 
HETATM   20  C14 UNL     1      25.826   5.503  48.952  1.00  0.00     0.034 A 
HETATM   21 CL2  UNL     1      27.194   6.582  48.839  1.00  0.00    -0.084 Cl
HETATM   22  C15 UNL     1      26.059   4.231  49.442  1.00  0.00     0.024 A 
HETATM   23  C16 UNL     1      24.973   3.359  49.538  1.00  0.00     0.011 A 
ENDBRANCH  16  17
ENDBRANCH  15  16
ENDBRANCH  14  15
ENDBRANCH   7   9
ENDBRANCH   5   7
ENDBRANCH   4   5
ENDBRANCH   1   4
TORSDOF 7
ENDMDL
MODEL 8
REMARK VINA RESULT:      -6.7      3.232      6.753
REMARK  7 active torsions:
REMARK  status: ('A' for Active; 'I' for Inactive)
REMARK    1  A    between atoms: C4_4  and  N1_5 
REMARK    2  A    between atoms: N1_5  and  C5_6 
REMARK    3  A    between atoms: C5_6  and  C6_8 
REMARK    4  A    between atoms: C6_8  and  C7_9 
REMARK    5  A    between atoms: C9_12  and  O1_13 
REMARK    6  A    between atoms: O1_13  and  C10_14 
REMARK    7  A    between atoms: C10_14  and  C11_15 
ROOT
HETATM    1  C7  UNL     1      21.852   0.209  53.802  1.00  0.00     0.127 C 
HETATM    2  C8  UNL     1      21.889  -1.033  54.547  1.00  0.00     0.059 C 
HETATM    3  N2  UNL     1      21.933  -2.034  55.165  1.00  0.00    -0.197 NA
ENDROOT
BRANCH   1   4
HETATM    4  C6  UNL     1      22.004  -0.061  52.340  1.00  0.00     0.055 C 
BRANCH   4   5
HETATM    5  C5  UNL     1      21.133   0.808  51.465  1.00  0.00     0.180 C 
HETATM    6 CL1  UNL     1      21.921   1.305  49.974  1.00  0.00    -0.103 Cl
BRANCH   5   7
HETATM    7  N1  UNL     1      20.798   1.979  52.271  1.00  0.00    -0.370 N 
HETATM    8  H5  UNL     1      20.097   1.931  53.069  1.00  0.00     0.161 HD
BRANCH   7   9
HETATM    9  C4  UNL     1      21.400   3.241  52.016  1.00  0.00     0.059 A 
HETATM   10  C3  UNL     1      20.797   4.378  51.330  1.00  0.00     0.034 A 
HETATM   11  C2  UNL     1      21.607   5.420  51.242  1.00  0.00    -0.075 A 
HETATM   12  C1  UNL     1      21.382   6.755  50.629  1.00  0.00     0.044 C 
HETATM   13  C17 UNL     1      22.877   5.025  51.901  1.00  0.00     0.100 A 
HETATM   14  C9  UNL     1      22.623   3.620  52.351  1.00  0.00     0.077 A 
BRANCH  14  15
HETATM   15  O1  UNL     1      23.590   2.885  53.022  1.00  0.00    -0.348 OA
BRANCH  15  16
HETATM   16  C10 UNL     1      24.941   3.172  52.767  1.00  0.00     0.214 C 
BRANCH  16  17
HETATM   17  C11 UNL     1      25.787   1.955  52.787  1.00  0.00    -0.034 A 
HETATM   18  C12 UNL     1      25.896   1.053  51.750  1.00  0.00     0.011 A 
HETATM   19  C13 UNL     1      26.735  -0.043  51.925  1.00  0.00     0.024 A 
HETATM   20  C14 UNL     1      27.446  -0.244  53.084  1.00  0.00     0.034 A 
HETATM   21 CL2  UNL     1      28.500  -1.619  53.304  1.00  0.00    -0.084 Cl
HETATM   22  C15 UNL     1      27.345   0.653  54.132  1.00  0.00     0.024 A 
HETATM   23  C16 UNL     1      26.506   1.757  53.969  1.00  0.00     0.011 A 
ENDBRANCH  16  17
ENDBRANCH  15  16
ENDBRANCH  14  15
ENDBRANCH   7   9
ENDBRANCH   5   7
ENDBRANCH   4   5
ENDBRANCH   1   4
TORSDOF 7
ENDMDL
MODEL 9
REMARK VINA RESULT:      -6.4      2.870      5.999
REMARK  7 active torsions:
REMARK  status: ('A' for Active; 'I' for Inactive)
REMARK    1  A    between atoms: C4_4  and  N1_5 
REMARK    2  A    between atoms: N1_5  and  C5_6 
REMARK    3  A    between atoms: C5_6  and  C6_8 
REMARK    4  A    between atoms: C6_8  and  C7_9 
REMARK    5  A    between atoms: C9_12  and  O1_13 
REMARK    6  A    between atoms: O1_13  and  C10_14 
REMARK    7  A    between atoms: C10_14  and  C11_15 
ROOT
HETATM    1  C7  UNL     1      20.794   5.173  50.375  1.00  0.00     0.127 C 
HETATM    2  C8  UNL     1      20.041   4.296  51.248  1.00  0.00     0.059 C 
HETATM    3  N2  UNL     1      19.436   3.593  51.974  1.00  0.00    -0.197 NA
ENDROOT
BRANCH   1   4
HETATM    4  C6  UNL     1      21.582   4.370  49.391  1.00  0.00     0.055 C 
BRANCH   4   5
HETATM    5  C5  UNL     1      23.029   4.179  49.778  1.00  0.00     0.180 C 
HETATM    6 CL1  UNL     1      24.153   4.948  48.667  1.00  0.00    -0.103 Cl
BRANCH   5   7
HETATM    7  N1  UNL     1      23.250   2.736  49.799  1.00  0.00    -0.370 N 
HETATM    8  H5  UNL     1      23.626   2.211  48.953  1.00  0.00     0.161 HD
BRANCH   7   9
HETATM    9  C4  UNL     1      22.967   1.967  50.961  1.00  0.00     0.059 A 
HETATM   10  C3  UNL     1      21.858   1.040  51.150  1.00  0.00     0.034 A 
HETATM   11  C2  UNL     1      21.855   0.470  52.344  1.00  0.00    -0.075 A 
HETATM   12  C1  UNL     1      20.913  -0.520  52.928  1.00  0.00     0.044 C 
HETATM   13  C17 UNL     1      23.030   1.011  53.072  1.00  0.00     0.100 A 
HETATM   14  C9  UNL     1      23.656   1.951  52.090  1.00  0.00     0.077 A 
BRANCH  14  15
HETATM   15  O1  UNL     1      24.802   2.670  52.401  1.00  0.00    -0.348 OA
BRANCH  15  16
HETATM   16  C10 UNL     1      25.335   2.549  53.694  1.00  0.00     0.214 C 
BRANCH  16  17
HETATM   17  C11 UNL     1      26.479   1.608  53.745  1.00  0.00    -0.034 A 
HETATM   18  C12 UNL     1      26.389   0.274  54.082  1.00  0.00     0.011 A 
HETATM   19  C13 UNL     1      27.558  -0.478  54.083  1.00  0.00     0.024 A 
HETATM   20  C14 UNL     1      28.779   0.065  53.759  1.00  0.00     0.034 A 
HETATM   21 CL2  UNL     1      30.248  -0.880  53.759  1.00  0.00    -0.084 Cl
HETATM   22  C15 UNL     1      28.884   1.401  53.419  1.00  0.00     0.024 A 
HETATM   23  C16 UNL     1      27.716   2.167  53.415  1.00  0.00     0.011 A 
ENDBRANCH  16  17
ENDBRANCH  15  16
ENDBRANCH  14  15
ENDBRANCH   7   9
ENDBRANCH   5   7
ENDBRANCH   4   5
ENDBRANCH   1   4
TORSDOF 7
ENDMDL
