MODEL 1
REMARK VINA RESULT:      -8.5      0.000      0.000
REMARK  5 active torsions:
REMARK  status: ('A' for Active; 'I' for Inactive)
REMARK    1  A    between atoms: C2_2  and  C3_3 
REMARK    2  A    between atoms: C3_3  and  S1_4 
REMARK    3  A    between atoms: S1_4  and  N1_7 
REMARK    4  A    between atoms: N1_7  and  C4_8 
REMARK    5  A    between atoms: C8_13  and  C9_14 
ROOT
HETATM    1  C4  UNL     1      25.638   1.143  53.272  1.00  0.00     0.080 C 
HETATM    2  C5  UNL     1      25.063   2.314  52.945  1.00  0.00     0.036 C 
HETATM    3  C6  UNL     1      23.633   2.686  52.872  1.00  0.00     0.041 C 
HETATM    4  C7  UNL     1      22.675   1.790  52.699  1.00  0.00     0.106 C 
HETATM    5  F1  UNL     1      21.474   2.395  52.671  1.00  0.00    -0.210 F 
HETATM    6  C8  UNL     1      22.561   0.339  52.534  1.00  0.00     0.110 C 
HETATM    7  C15 UNL     1      23.620  -0.342  53.322  1.00  0.00     0.034 C 
HETATM    8  C16 UNL     1      24.869  -0.056  53.644  1.00  0.00     0.141 C 
HETATM    9  F2  UNL     1      25.562  -0.950  54.410  1.00  0.00    -0.204 F 
ENDROOT
BRANCH   6  10
HETATM   10  C9  UNL     1      21.220  -0.159  52.896  1.00  0.00    -0.001 A 
HETATM   11  C10 UNL     1      20.643  -0.938  53.807  1.00  0.00     0.108 A 
HETATM   12  N2  UNL     1      19.327  -0.788  53.307  1.00  0.00    -0.316 N 
HETATM   13  C11 UNL     1      17.923  -1.013  53.288  1.00  0.00     0.210 A 
HETATM   14  C14 UNL     1      19.900   0.051  52.313  1.00  0.00     0.048 A 
HETATM   15  N3  UNL     1      17.062  -0.540  52.458  1.00  0.00    -0.260 NA
HETATM   16  C12 UNL     1      17.548   0.327  51.407  1.00  0.00     0.230 A 
HETATM   17 CL1  UNL     1      17.042  -0.408  49.853  1.00  0.00    -0.096 Cl
HETATM   18  C13 UNL     1      19.012   0.533  51.463  1.00  0.00     0.046 A 
ENDBRANCH   6  10
BRANCH   1  19
HETATM   19  N1  UNL     1      27.039   1.035  53.269  1.00  0.00    -0.282 N 
HETATM   20  H8  UNL     1      26.989   0.849  52.231  1.00  0.00     0.178 HD
BRANCH  19  21
HETATM   21  S1  UNL     1      28.534   1.078  54.114  1.00  0.00     0.231 S 
HETATM   22  O1  UNL     1      28.331   0.480  55.454  1.00  0.00    -0.206 OA
HETATM   23  O2  UNL     1      29.010   2.499  54.300  1.00  0.00    -0.206 OA
BRANCH  21  24
HETATM   24  C3  UNL     1      29.824   0.192  53.288  1.00  0.00     0.163 C 
BRANCH  24  25
HETATM   25  C2  UNL     1      29.937  -1.212  53.799  1.00  0.00     0.012 C 
HETATM   26  C1  UNL     1      28.936  -2.131  53.133  1.00  0.00     0.006 C 
ENDBRANCH  24  25
ENDBRANCH  21  24
ENDBRANCH  19  21
ENDBRANCH   1  19
TORSDOF 5
ENDMDL
MODEL 2
REMARK VINA RESULT:      -8.0      2.036      2.534
REMARK  5 active torsions:
REMARK  status: ('A' for Active; 'I' for Inactive)
REMARK    1  A    between atoms: C2_2  and  C3_3 
REMARK    2  A    between atoms: C3_3  and  S1_4 
REMARK    3  A    between atoms: S1_4  and  N1_7 
REMARK    4  A    between atoms: N1_7  and  C4_8 
REMARK    5  A    between atoms: C8_13  and  C9_14 
ROOT
HETATM    1  C4  UNL     1      26.596   2.388  52.242  1.00  0.00     0.080 C 
HETATM    2  C5  UNL     1      26.537   2.647  50.923  1.00  0.00     0.036 C 
HETATM    3  C6  UNL     1      25.375   2.975  50.067  1.00  0.00     0.041 C 
HETATM    4  C7  UNL     1      24.138   2.638  50.391  1.00  0.00     0.106 C 
HETATM    5  F1  UNL     1      23.279   3.057  49.444  1.00  0.00    -0.210 F 
HETATM    6  C8  UNL     1      23.451   1.945  51.484  1.00  0.00     0.110 C 
HETATM    7  C15 UNL     1      24.152   2.209  52.767  1.00  0.00     0.034 C 
HETATM    8  C16 UNL     1      25.411   2.393  53.117  1.00  0.00     0.141 C 
HETATM    9  F2  UNL     1      25.692   2.618  54.435  1.00  0.00    -0.204 F 
ENDROOT
BRANCH   6  10
HETATM   10  C9  UNL     1      22.024   2.313  51.566  1.00  0.00    -0.001 A 
HETATM   11  C10 UNL     1      21.269   3.379  51.818  1.00  0.00     0.108 A 
HETATM   12  N2  UNL     1      20.029   2.715  51.656  1.00  0.00    -0.316 N 
HETATM   13  C11 UNL     1      18.611   2.624  51.630  1.00  0.00     0.210 A 
HETATM   14  C14 UNL     1      20.796   1.550  51.382  1.00  0.00     0.048 A 
HETATM   15  N3  UNL     1      17.893   1.585  51.382  1.00  0.00    -0.260 NA
HETATM   16  C12 UNL     1      18.583   0.347  51.090  1.00  0.00     0.230 A 
HETATM   17 CL1  UNL     1      18.002  -0.862  52.278  1.00  0.00    -0.096 Cl
HETATM   18  C13 UNL     1      20.055   0.487  51.129  1.00  0.00     0.046 A 
ENDBRANCH   6  10
BRANCH   1  19
HETATM   19  N1  UNL     1      27.836   2.098  52.835  1.00  0.00    -0.282 N 
HETATM   20  H8  UNL     1      28.288   2.725  52.118  1.00  0.00     0.178 HD
BRANCH  19  21
HETATM   21  S1  UNL     1      28.751   1.284  54.040  1.00  0.00     0.231 S 
HETATM   22  O1  UNL     1      27.815   0.557  54.927  1.00  0.00    -0.206 OA
HETATM   23  O2  UNL     1      29.531   2.266  54.881  1.00  0.00    -0.206 OA
BRANCH  21  24
HETATM   24  C3  UNL     1      29.909   0.127  53.368  1.00  0.00     0.163 C 
BRANCH  24  25
HETATM   25  C2  UNL     1      29.779  -1.217  54.018  1.00  0.00     0.012 C 
HETATM   26  C1  UNL     1      29.095  -2.214  53.108  1.00  0.00     0.006 C 
ENDBRANCH  24  25
ENDBRANCH  21  24
ENDBRANCH  19  21
ENDBRANCH   1  19
TORSDOF 5
ENDMDL
MODEL 3
REMARK VINA RESULT:      -7.9      5.030      8.770
REMARK  5 active torsions:
REMARK  status: ('A' for Active; 'I' for Inactive)
REMARK    1  A    between atoms: C2_2  and  C3_3 
REMARK    2  A    between atoms: C3_3  and  S1_4 
REMARK    3  A    between atoms: S1_4  and  N1_7 
REMARK    4  A    between atoms: N1_7  and  C4_8 
REMARK    5  A    between atoms: C8_13  and  C9_14 
ROOT
HETATM    1  C4  UNL     1      20.657   0.008  52.386  1.00  0.00     0.080 C 
HETATM    2  C5  UNL     1      20.931  -0.790  53.434  1.00  0.00     0.036 C 
HETATM    3  C6  UNL     1      22.118  -0.827  54.318  1.00  0.00     0.041 C 
HETATM    4  C7  UNL     1      23.297  -0.361  53.942  1.00  0.00     0.106 C 
HETATM    5  F1  UNL     1      24.195  -0.518  54.932  1.00  0.00    -0.210 F 
HETATM    6  C8  UNL     1      23.890   0.272  52.761  1.00  0.00     0.110 C 
HETATM    7  C15 UNL     1      22.879   1.128  52.089  1.00  0.00     0.034 C 
HETATM    8  C16 UNL     1      21.572   1.060  51.914  1.00  0.00     0.141 C 
HETATM    9  F2  UNL     1      20.958   2.064  51.220  1.00  0.00    -0.204 F 
ENDROOT
BRANCH   6  10
HETATM   10  C9  UNL     1      25.106   1.038  53.093  1.00  0.00    -0.001 A 
HETATM   11  C10 UNL     1      25.538   2.296  53.097  1.00  0.00     0.108 A 
HETATM   12  N2  UNL     1      26.836   1.998  53.578  1.00  0.00    -0.316 N 
HETATM   13  C11 UNL     1      28.158   2.312  53.996  1.00  0.00     0.210 A 
HETATM   14  C14 UNL     1      26.418   0.640  53.589  1.00  0.00     0.048 A 
HETATM   15  N3  UNL     1      29.069   1.499  54.403  1.00  0.00    -0.260 NA
HETATM   16  C12 UNL     1      28.739   0.091  54.451  1.00  0.00     0.230 A 
HETATM   17 CL1  UNL     1      29.946  -0.758  53.435  1.00  0.00    -0.096 Cl
HETATM   18  C13 UNL     1      27.356  -0.190  54.006  1.00  0.00     0.046 A 
ENDBRANCH   6  10
BRANCH   1  19
HETATM   19  N1  UNL     1      19.445  -0.152  51.694  1.00  0.00    -0.282 N 
HETATM   20  H8  UNL     1      19.963  -0.743  50.990  1.00  0.00     0.178 HD
BRANCH  19  21
HETATM   21  S1  UNL     1      17.762   0.165  51.554  1.00  0.00     0.231 S 
HETATM   22  O1  UNL     1      17.300  -0.329  50.237  1.00  0.00    -0.206 OA
HETATM   23  O2  UNL     1      17.483   1.648  51.624  1.00  0.00    -0.206 OA
BRANCH  21  24
HETATM   24  C3  UNL     1      16.801  -0.614  52.820  1.00  0.00     0.163 C 
BRANCH  24  25
HETATM   25  C2  UNL     1      16.847  -2.106  52.701  1.00  0.00     0.012 C 
HETATM   26  C1  UNL     1      17.793  -2.718  53.712  1.00  0.00     0.006 C 
ENDBRANCH  24  25
ENDBRANCH  21  24
ENDBRANCH  19  21
ENDBRANCH   1  19
TORSDOF 5
ENDMDL
MODEL 4
REMARK VINA RESULT:      -7.8      2.150      2.632
REMARK  5 active torsions:
REMARK  status: ('A' for Active; 'I' for Inactive)
REMARK    1  A    between atoms: C2_2  and  C3_3 
REMARK    2  A    between atoms: C3_3  and  S1_4 
REMARK    3  A    between atoms: S1_4  and  N1_7 
REMARK    4  A    between atoms: N1_7  and  C4_8 
REMARK    5  A    between atoms: C8_13  and  C9_14 
ROOT
HETATM    1  C4  UNL     1      25.082  -0.475  54.342  1.00  0.00     0.080 C 
HETATM    2  C5  UNL     1      24.374  -1.180  55.243  1.00  0.00     0.036 C 
HETATM    3  C6  UNL     1      22.927  -1.487  55.289  1.00  0.00     0.041 C 
HETATM    4  C7  UNL     1      22.025  -0.742  54.672  1.00  0.00     0.106 C 
HETATM    5  F1  UNL     1      20.793  -1.243  54.875  1.00  0.00    -0.210 F 
HETATM    6  C8  UNL     1      21.995   0.461  53.836  1.00  0.00     0.110 C 
HETATM    7  C15 UNL     1      23.217   0.519  52.994  1.00  0.00     0.034 C 
HETATM    8  C16 UNL     1      24.476   0.156  53.157  1.00  0.00     0.141 C 
HETATM    9  F2  UNL     1      25.351   0.372  52.130  1.00  0.00    -0.204 F 
ENDROOT
BRANCH   6  10
HETATM   10  C9  UNL     1      20.773   0.536  53.013  1.00  0.00    -0.001 A 
HETATM   11  C10 UNL     1      19.870  -0.275  52.467  1.00  0.00     0.108 A 
HETATM   12  N2  UNL     1      19.097   0.753  51.875  1.00  0.00    -0.316 N 
HETATM   13  C11 UNL     1      18.017   1.274  51.113  1.00  0.00     0.210 A 
HETATM   14  C14 UNL     1      20.038   1.657  52.439  1.00  0.00     0.048 A 
HETATM   15  N3  UNL     1      17.761   2.508  50.852  1.00  0.00    -0.260 NA
HETATM   16  C12 UNL     1      18.663   3.507  51.383  1.00  0.00     0.230 A 
HETATM   17 CL1  UNL     1      19.267   4.453  49.987  1.00  0.00    -0.096 Cl
HETATM   18  C13 UNL     1      19.772   2.921  52.167  1.00  0.00     0.046 A 
ENDBRANCH   6  10
BRANCH   1  19
HETATM   19  N1  UNL     1      26.467  -0.320  54.518  1.00  0.00    -0.282 N 
HETATM   20  H8  UNL     1      26.483  -1.274  54.969  1.00  0.00     0.178 HD
BRANCH  19  21
HETATM   21  S1  UNL     1      27.892   0.621  54.329  1.00  0.00     0.231 S 
HETATM   22  O1  UNL     1      28.643   0.595  55.606  1.00  0.00    -0.206 OA
HETATM   23  O2  UNL     1      27.553   2.058  54.012  1.00  0.00    -0.206 OA
BRANCH  21  24
HETATM   24  C3  UNL     1      28.949   0.029  53.039  1.00  0.00     0.163 C 
BRANCH  24  25
HETATM   25  C2  UNL     1      29.769  -1.138  53.496  1.00  0.00     0.012 C 
HETATM   26  C1  UNL     1      29.077  -2.453  53.209  1.00  0.00     0.006 C 
ENDBRANCH  24  25
ENDBRANCH  21  24
ENDBRANCH  19  21
ENDBRANCH   1  19
TORSDOF 5
ENDMDL
MODEL 5
REMARK VINA RESULT:      -7.8      1.655      2.176
REMARK  5 active torsions:
REMARK  status: ('A' for Active; 'I' for Inactive)
REMARK    1  A    between atoms: C2_2  and  C3_3 
REMARK    2  A    between atoms: C3_3  and  S1_4 
REMARK    3  A    between atoms: S1_4  and  N1_7 
REMARK    4  A    between atoms: N1_7  and  C4_8 
REMARK    5  A    between atoms: C8_13  and  C9_14 
ROOT
HETATM    1  C4  UNL     1      23.608   0.764  53.005  1.00  0.00     0.080 C 
HETATM    2  C5  UNL     1      23.160   1.979  52.639  1.00  0.00     0.036 C 
HETATM    3  C6  UNL     1      21.778   2.458  52.415  1.00  0.00     0.041 C 
HETATM    4  C7  UNL     1      20.784   1.638  52.116  1.00  0.00     0.106 C 
HETATM    5  F1  UNL     1      19.641   2.332  51.966  1.00  0.00    -0.210 F 
HETATM    6  C8  UNL     1      20.583   0.202  51.909  1.00  0.00     0.110 C 
HETATM    7  C15 UNL     1      21.494  -0.566  52.797  1.00  0.00     0.034 C 
HETATM    8  C16 UNL     1      22.715  -0.379  53.262  1.00  0.00     0.141 C 
HETATM    9  F2  UNL     1      23.249  -1.332  54.082  1.00  0.00    -0.204 F 
ENDROOT
BRANCH   6  10
HETATM   10  C9  UNL     1      19.177  -0.198  52.107  1.00  0.00    -0.001 A 
HETATM   11  C10 UNL     1      18.390  -0.684  53.064  1.00  0.00     0.108 A 
HETATM   12  N2  UNL     1      17.216  -0.722  52.273  1.00  0.00    -0.316 N 
HETATM   13  C11 UNL     1      15.840  -0.977  52.023  1.00  0.00     0.210 A 
HETATM   14  C14 UNL     1      18.019  -0.203  51.222  1.00  0.00     0.048 A 
HETATM   15  N3  UNL     1      15.192  -0.794  50.927  1.00  0.00    -0.260 NA
HETATM   16  C12 UNL     1      15.923  -0.267  49.795  1.00  0.00     0.230 A 
HETATM   17 CL1  UNL     1      15.727  -1.444  48.459  1.00  0.00    -0.096 Cl
HETATM   18  C13 UNL     1      17.350  -0.019  50.099  1.00  0.00     0.046 A 
ENDBRANCH   6  10
BRANCH   1  19
HETATM   19  N1  UNL     1      24.988   0.551  53.156  1.00  0.00    -0.282 N 
HETATM   20  H8  UNL     1      25.059   0.487  52.105  1.00  0.00     0.178 HD
BRANCH  19  21
HETATM   21  S1  UNL     1      26.362   0.385  54.174  1.00  0.00     0.231 S 
HETATM   22  O1  UNL     1      25.972  -0.411  55.360  1.00  0.00    -0.206 OA
HETATM   23  O2  UNL     1      26.849   1.733  54.650  1.00  0.00    -0.206 OA
BRANCH  21  24
HETATM   24  C3  UNL     1      27.723  -0.417  53.376  1.00  0.00     0.163 C 
BRANCH  24  25
HETATM   25  C2  UNL     1      29.019  -0.102  54.058  1.00  0.00     0.012 C 
HETATM   26  C1  UNL     1      30.107  -1.080  53.669  1.00  0.00     0.006 C 
ENDBRANCH  24  25
ENDBRANCH  21  24
ENDBRANCH  19  21
ENDBRANCH   1  19
TORSDOF 5
ENDMDL
MODEL 6
REMARK VINA RESULT:      -7.8      2.071      2.900
REMARK  5 active torsions:
REMARK  status: ('A' for Active; 'I' for Inactive)
REMARK    1  A    between atoms: C2_2  and  C3_3 
REMARK    2  A    between atoms: C3_3  and  S1_4 
REMARK    3  A    between atoms: S1_4  and  N1_7 
REMARK    4  A    between atoms: N1_7  and  C4_8 
REMARK    5  A    between atoms: C8_13  and  C9_14 
ROOT
HETATM    1  C4  UNL     1      23.631  -0.338  53.810  1.00  0.00     0.080 C 
HETATM    2  C5  UNL     1      22.698  -1.023  54.498  1.00  0.00     0.036 C 
HETATM    3  C6  UNL     1      21.226  -1.035  54.355  1.00  0.00     0.041 C 
HETATM    4  C7  UNL     1      20.559  -0.033  53.804  1.00  0.00     0.106 C 
HETATM    5  F1  UNL     1      19.241  -0.301  53.799  1.00  0.00    -0.210 F 
HETATM    6  C8  UNL     1      20.854   1.270  53.205  1.00  0.00     0.110 C 
HETATM    7  C15 UNL     1      22.163   1.216  52.503  1.00  0.00     0.034 C 
HETATM    8  C16 UNL     1      23.304   0.585  52.711  1.00  0.00     0.141 C 
HETATM    9  F2  UNL     1      24.325   0.783  51.826  1.00  0.00    -0.204 F 
ENDROOT
BRANCH   6  10
HETATM   10  C9  UNL     1      19.779   1.723  52.301  1.00  0.00    -0.001 A 
HETATM   11  C10 UNL     1      19.224   2.857  51.879  1.00  0.00     0.108 A 
HETATM   12  N2  UNL     1      18.274   2.240  51.031  1.00  0.00    -0.316 N 
HETATM   13  C11 UNL     1      17.197   2.221  50.103  1.00  0.00     0.210 A 
HETATM   14  C14 UNL     1      18.835   1.005  51.454  1.00  0.00     0.048 A 
HETATM   15  N3  UNL     1      16.635   1.194  49.570  1.00  0.00    -0.260 NA
HETATM   16  C12 UNL     1      17.137  -0.112  49.938  1.00  0.00     0.230 A 
HETATM   17 CL1  UNL     1      15.748  -1.034  50.595  1.00  0.00    -0.096 Cl
HETATM   18  C13 UNL     1      18.255  -0.046  50.905  1.00  0.00     0.046 A 
ENDBRANCH   6  10
BRANCH   1  19
HETATM   19  N1  UNL     1      24.987  -0.497  54.138  1.00  0.00    -0.282 N 
HETATM   20  H8  UNL     1      24.783  -1.510  54.354  1.00  0.00     0.178 HD
BRANCH  19  21
HETATM   21  S1  UNL     1      26.564   0.167  54.300  1.00  0.00     0.231 S 
HETATM   22  O1  UNL     1      27.193  -0.411  55.509  1.00  0.00    -0.206 OA
HETATM   23  O2  UNL     1      26.504   1.666  54.471  1.00  0.00    -0.206 OA
BRANCH  21  24
HETATM   24  C3  UNL     1      27.603  -0.165  52.906  1.00  0.00     0.163 C 
BRANCH  24  25
HETATM   25  C2  UNL     1      28.697  -1.125  53.257  1.00  0.00     0.012 C 
HETATM   26  C1  UNL     1      29.998  -0.408  53.549  1.00  0.00     0.006 C 
ENDBRANCH  24  25
ENDBRANCH  21  24
ENDBRANCH  19  21
ENDBRANCH   1  19
TORSDOF 5
ENDMDL
MODEL 7
REMARK VINA RESULT:      -7.6      5.162      6.432
REMARK  5 active torsions:
REMARK  status: ('A' for Active; 'I' for Inactive)
REMARK    1  A    between atoms: C2_2  and  C3_3 
REMARK    2  A    between atoms: C3_3  and  S1_4 
REMARK    3  A    between atoms: S1_4  and  N1_7 
REMARK    4  A    between atoms: N1_7  and  C4_8 
REMARK    5  A    between atoms: C8_13  and  C9_14 
ROOT
HETATM    1  C4  UNL     1      25.386   6.259  50.426  1.00  0.00     0.080 C 
HETATM    2  C5  UNL     1      25.733   5.209  49.660  1.00  0.00     0.036 C 
HETATM    3  C6  UNL     1      25.066   3.900  49.478  1.00  0.00     0.041 C 
HETATM    4  C7  UNL     1      24.245   3.391  50.381  1.00  0.00     0.106 C 
HETATM    5  F1  UNL     1      23.780   2.199  49.965  1.00  0.00    -0.210 F 
HETATM    6  C8  UNL     1      23.706   3.762  51.692  1.00  0.00     0.110 C 
HETATM    7  C15 UNL     1      23.532   5.235  51.766  1.00  0.00     0.034 C 
HETATM    8  C16 UNL     1      24.182   6.274  51.274  1.00  0.00     0.141 C 
HETATM    9  F2  UNL     1      23.716   7.526  51.561  1.00  0.00    -0.204 F 
ENDROOT
BRANCH   6  10
HETATM   10  C9  UNL     1      22.445   3.057  51.994  1.00  0.00    -0.001 A 
HETATM   11  C10 UNL     1      21.133   3.283  51.984  1.00  0.00     0.108 A 
HETATM   12  N2  UNL     1      20.766   1.994  52.440  1.00  0.00    -0.316 N 
HETATM   13  C11 UNL     1      19.850   0.980  52.831  1.00  0.00     0.210 A 
HETATM   14  C14 UNL     1      22.157   1.709  52.467  1.00  0.00     0.048 A 
HETATM   15  N3  UNL     1      20.120  -0.215  53.224  1.00  0.00    -0.260 NA
HETATM   16  C12 UNL     1      21.512  -0.603  53.285  1.00  0.00     0.230 A 
HETATM   17 CL1  UNL     1      21.828  -1.131  54.968  1.00  0.00    -0.096 Cl
HETATM   18  C13 UNL     1      22.429   0.482  52.872  1.00  0.00     0.046 A 
ENDBRANCH   6  10
BRANCH   1  19
HETATM   19  N1  UNL     1      26.193   7.409  50.431  1.00  0.00    -0.282 N 
HETATM   20  H8  UNL     1      26.275   7.306  51.478  1.00  0.00     0.178 HD
BRANCH  19  21
HETATM   21  S1  UNL     1      26.966   8.685  49.578  1.00  0.00     0.231 S 
HETATM   22  O1  UNL     1      27.278   9.767  50.539  1.00  0.00    -0.206 OA
HETATM   23  O2  UNL     1      26.058   9.250  48.512  1.00  0.00    -0.206 OA
BRANCH  21  24
HETATM   24  C3  UNL     1      28.465   8.181  48.784  1.00  0.00     0.163 C 
BRANCH  24  25
HETATM   25  C2  UNL     1      28.217   7.087  47.792  1.00  0.00     0.012 C 
HETATM   26  C1  UNL     1      28.982   5.829  48.145  1.00  0.00     0.006 C 
ENDBRANCH  24  25
ENDBRANCH  21  24
ENDBRANCH  19  21
ENDBRANCH   1  19
TORSDOF 5
ENDMDL
MODEL 8
REMARK VINA RESULT:      -7.5      5.097      6.523
REMARK  5 active torsions:
REMARK  status: ('A' for Active; 'I' for Inactive)
REMARK    1  A    between atoms: C2_2  and  C3_3 
REMARK    2  A    between atoms: C3_3  and  S1_4 
REMARK    3  A    between atoms: S1_4  and  N1_7 
REMARK    4  A    between atoms: N1_7  and  C4_8 
REMARK    5  A    between atoms: C8_13  and  C9_14 
ROOT
HETATM    1  C4  UNL     1      25.428   1.514  52.008  1.00  0.00     0.080 C 
HETATM    2  C5  UNL     1      26.520   1.837  51.292  1.00  0.00     0.036 C 
HETATM    3  C6  UNL     1      26.722   2.908  50.291  1.00  0.00     0.041 C 
HETATM    4  C7  UNL     1      25.719   3.449  49.621  1.00  0.00     0.106 C 
HETATM    5  F1  UNL     1      26.179   4.394  48.781  1.00  0.00    -0.210 F 
HETATM    6  C8  UNL     1      24.262   3.309  49.542  1.00  0.00     0.110 C 
HETATM    7  C15 UNL     1      23.718   2.956  50.878  1.00  0.00     0.034 C 
HETATM    8  C16 UNL     1      24.151   2.239  51.898  1.00  0.00     0.141 C 
HETATM    9  F2  UNL     1      23.352   2.132  53.001  1.00  0.00    -0.204 F 
ENDROOT
BRANCH   6  10
HETATM   10  C9  UNL     1      23.615   4.521  49.002  1.00  0.00    -0.001 A 
HETATM   11  C10 UNL     1      22.714   4.861  48.084  1.00  0.00     0.108 A 
HETATM   12  N2  UNL     1      22.785   6.254  48.328  1.00  0.00    -0.316 N 
HETATM   13  C11 UNL     1      22.436   7.616  48.122  1.00  0.00     0.210 A 
HETATM   14  C14 UNL     1      23.753   5.937  49.319  1.00  0.00     0.048 A 
HETATM   15  N3  UNL     1      22.897   8.648  48.737  1.00  0.00    -0.260 NA
HETATM   16  C12 UNL     1      23.889   8.429  49.765  1.00  0.00     0.230 A 
HETATM   17 CL1  UNL     1      25.329   9.392  49.309  1.00  0.00    -0.096 Cl
HETATM   18  C13 UNL     1      24.223   6.999  49.945  1.00  0.00     0.046 A 
ENDBRANCH   6  10
BRANCH   1  19
HETATM   19  N1  UNL     1      25.484   0.438  52.910  1.00  0.00    -0.282 N 
HETATM   20  H8  UNL     1      24.458   0.273  52.725  1.00  0.00     0.178 HD
BRANCH  19  21
HETATM   21  S1  UNL     1      26.383  -0.544  53.996  1.00  0.00     0.231 S 
HETATM   22  O1  UNL     1      26.725  -1.810  53.308  1.00  0.00    -0.206 OA
HETATM   23  O2  UNL     1      25.568  -0.880  55.222  1.00  0.00    -0.206 OA
BRANCH  21  24
HETATM   24  C3  UNL     1      27.879   0.223  54.548  1.00  0.00     0.163 C 
BRANCH  24  25
HETATM   25  C2  UNL     1      28.931   0.202  53.481  1.00  0.00     0.012 C 
HETATM   26  C1  UNL     1      29.980  -0.854  53.753  1.00  0.00     0.006 C 
ENDBRANCH  24  25
ENDBRANCH  21  24
ENDBRANCH  19  21
ENDBRANCH   1  19
TORSDOF 5
ENDMDL
MODEL 9
REMARK VINA RESULT:      -7.5      4.937      8.486
REMARK  5 active torsions:
REMARK  status: ('A' for Active; 'I' for Inactive)
REMARK    1  A    between atoms: C2_2  and  C3_3 
REMARK    2  A    between atoms: C3_3  and  S1_4 
REMARK    3  A    between atoms: S1_4  and  N1_7 
REMARK    4  A    between atoms: N1_7  and  C4_8 
REMARK    5  A    between atoms: C8_13  and  C9_14 
ROOT
HETATM    1  C4  UNL     1      20.764   0.674  53.050  1.00  0.00     0.080 C 
HETATM    2  C5  UNL     1      21.141  -0.428  53.723  1.00  0.00     0.036 C 
HETATM    3  C6  UNL     1      22.457  -0.794  54.292  1.00  0.00     0.041 C 
HETATM    4  C7  UNL     1      23.590  -0.278  53.846  1.00  0.00     0.106 C 
HETATM    5  F1  UNL     1      24.631  -0.779  54.535  1.00  0.00    -0.210 F 
HETATM    6  C8  UNL     1      24.021   0.678  52.822  1.00  0.00     0.110 C 
HETATM    7  C15 UNL     1      22.998   1.743  52.666  1.00  0.00     0.034 C 
HETATM    8  C16 UNL     1      21.681   1.786  52.749  1.00  0.00     0.141 C 
HETATM    9  F2  UNL     1      21.057   2.983  52.537  1.00  0.00    -0.204 F 
ENDROOT
BRANCH   6  10
HETATM   10  C9  UNL     1      25.349   1.249  53.119  1.00  0.00    -0.001 A 
HETATM   11  C10 UNL     1      25.960   2.431  53.137  1.00  0.00     0.108 A 
HETATM   12  N2  UNL     1      27.219   1.933  53.551  1.00  0.00    -0.316 N 
HETATM   13  C11 UNL     1      28.588   2.038  53.917  1.00  0.00     0.210 A 
HETATM   14  C14 UNL     1      26.608   0.649  53.544  1.00  0.00     0.048 A 
HETATM   15  N3  UNL     1      29.387   1.089  54.259  1.00  0.00    -0.260 NA
HETATM   16  C12 UNL     1      28.858  -0.256  54.284  1.00  0.00     0.230 A 
HETATM   17 CL1  UNL     1      29.886  -1.237  53.192  1.00  0.00    -0.096 Cl
HETATM   18  C13 UNL     1      27.432  -0.321  53.895  1.00  0.00     0.046 A 
ENDBRANCH   6  10
BRANCH   1  19
HETATM   19  N1  UNL     1      19.437   0.792  52.604  1.00  0.00    -0.282 N 
HETATM   20  H8  UNL     1      19.160   0.099  53.350  1.00  0.00     0.178 HD
BRANCH  19  21
HETATM   21  S1  UNL     1      18.287   1.485  51.532  1.00  0.00     0.231 S 
HETATM   22  O1  UNL     1      18.173   2.929  51.838  1.00  0.00    -0.206 OA
HETATM   23  O2  UNL     1      16.927   0.856  51.718  1.00  0.00    -0.206 OA
BRANCH  21  24
HETATM   24  C3  UNL     1      18.727   1.299  49.828  1.00  0.00     0.163 C 
BRANCH  24  25
HETATM   25  C2  UNL     1      20.003   2.016  49.512  1.00  0.00     0.012 C 
HETATM   26  C1  UNL     1      21.121   1.049  49.185  1.00  0.00     0.006 C 
ENDBRANCH  24  25
ENDBRANCH  21  24
ENDBRANCH  19  21
ENDBRANCH   1  19
TORSDOF 5
ENDMDL
