MODEL 1
REMARK VINA RESULT:      -7.4      0.000      0.000
REMARK  9 active torsions:
REMARK  status: ('A' for Active; 'I' for Inactive)
REMARK    1  A    between atoms: N1_2  and  C3_4 
REMARK    2  A    between atoms: C3_4  and  C4_5 
REMARK    3  A    between atoms: C4_5  and  C5_6 
REMARK    4  A    between atoms: C5_6  and  C6_7 
REMARK       I    between atoms: C6_7  and  N2_9 
REMARK    5  A    between atoms: N2_9  and  C7_10 
REMARK    6  A    between atoms: C14_19  and  C15_20 
REMARK    7  A    between atoms: C15_20  and  C16_21 
REMARK    8  A    between atoms: C18_24  and  C19_25 
REMARK    9  A    between atoms: C19_25  and  N5_26 
ROOT
HETATM    1  C7  UNL     1      22.764  -0.136  52.812  1.00  0.00     0.035 A 
HETATM    2  C8  UNL     1      23.630  -0.785  53.659  1.00  0.00     0.030 A 
HETATM    3  C9  UNL     1      24.952  -0.471  53.856  1.00  0.00     0.016 A 
HETATM    4  C10 UNL     1      25.442   0.596  53.134  1.00  0.00    -0.001 A 
HETATM    5  C11 UNL     1      26.731   1.047  53.242  1.00  0.00     0.073 A 
HETATM    6  C12 UNL     1      27.597   0.359  54.125  1.00  0.00     0.102 C 
HETATM    7  N3  UNL     1      28.287  -0.212  54.846  1.00  0.00    -0.191 NA
HETATM    8  C13 UNL     1      27.209   2.121  52.542  1.00  0.00     0.140 A 
HETATM    9  N4  UNL     1      26.341   2.716  51.732  1.00  0.00    -0.258 NA
HETATM   10  C14 UNL     1      25.069   2.362  51.549  1.00  0.00     0.077 A 
HETATM   11  C20 UNL     1      24.635   1.290  52.268  1.00  0.00     0.007 A 
HETATM   12  C21 UNL     1      23.330   0.915  52.128  1.00  0.00     0.044 A 
ENDROOT
BRANCH  10  13
HETATM   13  C15 UNL     1      24.366   3.178  50.642  1.00  0.00    -0.011 C 
HETATM   14  C18 UNL     1      23.805   4.344  51.052  1.00  0.00     0.016 C 
BRANCH  13  15
HETATM   15  C16 UNL     1      23.967   3.379  49.292  1.00  0.00     0.040 C 
HETATM   16  C17 UNL     1      23.026   3.737  48.365  1.00  0.00     0.177 C 
HETATM   17 BR1  UNL     1      21.235   4.350  47.921  1.00  0.00    -0.200 Br
ENDBRANCH  13  15
BRANCH  14  18
HETATM   18  C19 UNL     1      23.654   5.153  52.269  1.00  0.00     0.295 C 
BRANCH  18  19
HETATM   19  N5  UNL     1      24.270   6.477  52.181  1.00  0.00     0.081 N 
HETATM   20  H22 UNL     1      23.630   7.177  52.639  1.00  0.00     0.313 HD
HETATM   21  H23 UNL     1      25.164   6.490  52.735  1.00  0.00     0.313 HD
ENDBRANCH  18  19
ENDBRANCH  14  18
ENDBRANCH  10  13
BRANCH   1  22
HETATM   22  N2  UNL     1      21.412  -0.445  52.610  1.00  0.00    -0.327 N 
HETATM   23  C6  UNL     1      20.302  -0.145  53.420  1.00  0.00     0.222 C 
HETATM   24  O1  UNL     1      20.507   0.488  54.480  1.00  0.00    -0.273 OA
HETATM   25  H13 UNL     1      21.143  -0.968  51.751  1.00  0.00     0.169 HD
BRANCH  23  26
HETATM   26  C5  UNL     1      18.938  -0.535  53.083  1.00  0.00     0.105 C 
BRANCH  26  27
HETATM   27  C4  UNL     1      18.445  -0.014  51.775  1.00  0.00     0.039 C 
BRANCH  27  28
HETATM   28  C3  UNL     1      18.231   1.455  51.687  1.00  0.00     0.271 C 
BRANCH  28  29
HETATM   29  N1  UNL     1      19.153   2.050  50.746  1.00  0.00     0.080 N 
HETATM   30  C1  UNL     1      20.196   2.833  51.349  1.00  0.00     0.309 C 
HETATM   31  C2  UNL     1      19.730   1.132  49.816  1.00  0.00     0.309 C 
ENDBRANCH  28  29
ENDBRANCH  27  28
ENDBRANCH  26  27
ENDBRANCH  23  26
ENDBRANCH   1  22
TORSDOF 9
ENDMDL
MODEL 2
REMARK VINA RESULT:      -7.3      2.982      6.270
REMARK  9 active torsions:
REMARK  status: ('A' for Active; 'I' for Inactive)
REMARK    1  A    between atoms: N1_2  and  C3_4 
REMARK    2  A    between atoms: C3_4  and  C4_5 
REMARK    3  A    between atoms: C4_5  and  C5_6 
REMARK    4  A    between atoms: C5_6  and  C6_7 
REMARK       I    between atoms: C6_7  and  N2_9 
REMARK    5  A    between atoms: N2_9  and  C7_10 
REMARK    6  A    between atoms: C14_19  and  C15_20 
REMARK    7  A    between atoms: C15_20  and  C16_21 
REMARK    8  A    between atoms: C18_24  and  C19_25 
REMARK    9  A    between atoms: C19_25  and  N5_26 
ROOT
HETATM    1  C7  UNL     1      25.493   2.920  50.675  1.00  0.00     0.035 A 
HETATM    2  C8  UNL     1      26.688   2.722  51.324  1.00  0.00     0.030 A 
HETATM    3  C9  UNL     1      26.911   1.837  52.352  1.00  0.00     0.016 A 
HETATM    4  C10 UNL     1      25.830   1.086  52.757  1.00  0.00    -0.001 A 
HETATM    5  C11 UNL     1      25.900   0.144  53.750  1.00  0.00     0.073 A 
HETATM    6  C12 UNL     1      27.145  -0.039  54.397  1.00  0.00     0.102 C 
HETATM    7  N3  UNL     1      28.165  -0.173  54.912  1.00  0.00    -0.191 NA
HETATM    8  C13 UNL     1      24.831  -0.618  54.135  1.00  0.00     0.140 A 
HETATM    9  N4  UNL     1      23.695  -0.392  53.485  1.00  0.00    -0.258 NA
HETATM   10  C14 UNL     1      23.514   0.497  52.508  1.00  0.00     0.077 A 
HETATM   11  C20 UNL     1      24.604   1.231  52.156  1.00  0.00     0.007 A 
HETATM   12  C21 UNL     1      24.466   2.133  51.140  1.00  0.00     0.044 A 
ENDROOT
BRANCH  10  13
HETATM   13  C15 UNL     1      22.209   0.519  51.981  1.00  0.00    -0.011 C 
HETATM   14  C18 UNL     1      21.130   0.471  52.802  1.00  0.00     0.016 C 
BRANCH  13  15
HETATM   15  C16 UNL     1      21.404   0.631  50.813  1.00  0.00     0.040 C 
HETATM   16  C17 UNL     1      21.215   1.070  49.531  1.00  0.00     0.177 C 
HETATM   17 BR1  UNL     1      21.853   2.006  47.951  1.00  0.00    -0.200 Br
ENDBRANCH  13  15
BRANCH  14  18
HETATM   18  C19 UNL     1      20.808   0.394  54.234  1.00  0.00     0.295 C 
BRANCH  18  19
HETATM   19  N5  UNL     1      20.930  -0.951  54.797  1.00  0.00     0.081 N 
HETATM   20  H22 UNL     1      20.245  -1.583  54.309  1.00  0.00     0.313 HD
HETATM   21  H23 UNL     1      21.886  -1.336  54.590  1.00  0.00     0.313 HD
ENDBRANCH  18  19
ENDBRANCH  14  18
ENDBRANCH  10  13
BRANCH   1  22
HETATM   22  N2  UNL     1      25.259   3.814  49.622  1.00  0.00    -0.327 N 
HETATM   23  C6  UNL     1      24.853   5.159  49.673  1.00  0.00     0.222 C 
HETATM   24  O1  UNL     1      24.664   5.670  50.800  1.00  0.00    -0.273 OA
HETATM   25  H13 UNL     1      25.395   3.480  48.645  1.00  0.00     0.169 HD
BRANCH  23  26
HETATM   26  C5  UNL     1      24.643   5.977  48.484  1.00  0.00     0.105 C 
BRANCH  26  27
HETATM   27  C4  UNL     1      25.345   7.293  48.499  1.00  0.00     0.039 C 
BRANCH  27  28
HETATM   28  C3  UNL     1      26.613   7.375  47.727  1.00  0.00     0.271 C 
BRANCH  28  29
HETATM   29  N1  UNL     1      27.747   7.078  48.574  1.00  0.00     0.080 N 
HETATM   30  C1  UNL     1      28.373   5.812  48.308  1.00  0.00     0.309 C 
HETATM   31  C2  UNL     1      28.746   8.099  48.610  1.00  0.00     0.309 C 
ENDBRANCH  28  29
ENDBRANCH  27  28
ENDBRANCH  26  27
ENDBRANCH  23  26
ENDBRANCH   1  22
TORSDOF 9
ENDMDL
MODEL 3
REMARK VINA RESULT:      -7.2      2.494      5.143
REMARK  9 active torsions:
REMARK  status: ('A' for Active; 'I' for Inactive)
REMARK    1  A    between atoms: N1_2  and  C3_4 
REMARK    2  A    between atoms: C3_4  and  C4_5 
REMARK    3  A    between atoms: C4_5  and  C5_6 
REMARK    4  A    between atoms: C5_6  and  C6_7 
REMARK       I    between atoms: C6_7  and  N2_9 
REMARK    5  A    between atoms: N2_9  and  C7_10 
REMARK    6  A    between atoms: C14_19  and  C15_20 
REMARK    7  A    between atoms: C15_20  and  C16_21 
REMARK    8  A    between atoms: C18_24  and  C19_25 
REMARK    9  A    between atoms: C19_25  and  N5_26 
ROOT
HETATM    1  C7  UNL     1      25.484   2.940  50.711  1.00  0.00     0.035 A 
HETATM    2  C8  UNL     1      26.684   2.742  51.352  1.00  0.00     0.030 A 
HETATM    3  C9  UNL     1      26.917   1.849  52.369  1.00  0.00     0.016 A 
HETATM    4  C10 UNL     1      25.843   1.087  52.774  1.00  0.00    -0.001 A 
HETATM    5  C11 UNL     1      25.924   0.137  53.757  1.00  0.00     0.073 A 
HETATM    6  C12 UNL     1      27.174  -0.045  54.394  1.00  0.00     0.102 C 
HETATM    7  N3  UNL     1      28.198  -0.178  54.903  1.00  0.00    -0.191 NA
HETATM    8  C13 UNL     1      24.862  -0.636  54.140  1.00  0.00     0.140 A 
HETATM    9  N4  UNL     1      23.721  -0.410  53.499  1.00  0.00    -0.258 NA
HETATM   10  C14 UNL     1      23.529   0.488  52.533  1.00  0.00     0.077 A 
HETATM   11  C20 UNL     1      24.613   1.232  52.181  1.00  0.00     0.007 A 
HETATM   12  C21 UNL     1      24.463   2.142  51.174  1.00  0.00     0.044 A 
ENDROOT
BRANCH  10  13
HETATM   13  C15 UNL     1      22.221   0.507  52.013  1.00  0.00    -0.011 C 
HETATM   14  C18 UNL     1      21.147   0.437  52.840  1.00  0.00     0.016 C 
BRANCH  13  15
HETATM   15  C16 UNL     1      21.408   0.632  50.852  1.00  0.00     0.040 C 
HETATM   16  C17 UNL     1      21.213   1.077  49.572  1.00  0.00     0.177 C 
HETATM   17 BR1  UNL     1      21.849   2.012  47.991  1.00  0.00    -0.200 Br
ENDBRANCH  13  15
BRANCH  14  18
HETATM   18  C19 UNL     1      20.834   0.333  54.272  1.00  0.00     0.295 C 
BRANCH  18  19
HETATM   19  N5  UNL     1      20.958  -1.022  54.809  1.00  0.00     0.081 N 
HETATM   20  H22 UNL     1      20.137  -1.210  55.440  1.00  0.00     0.313 HD
HETATM   21  H23 UNL     1      20.894  -1.721  54.026  1.00  0.00     0.313 HD
ENDBRANCH  18  19
ENDBRANCH  14  18
ENDBRANCH  10  13
BRANCH   1  22
HETATM   22  N2  UNL     1      25.238   3.842  49.668  1.00  0.00    -0.327 N 
HETATM   23  C6  UNL     1      24.826   5.185  49.735  1.00  0.00     0.222 C 
HETATM   24  O1  UNL     1      24.642   5.685  50.868  1.00  0.00    -0.273 OA
HETATM   25  H13 UNL     1      25.368   3.518  48.687  1.00  0.00     0.169 HD
BRANCH  23  26
HETATM   26  C5  UNL     1      24.604   6.013  48.554  1.00  0.00     0.105 C 
BRANCH  26  27
HETATM   27  C4  UNL     1      23.288   6.715  48.522  1.00  0.00     0.039 C 
BRANCH  27  28
HETATM   28  C3  UNL     1      22.080   5.851  48.457  1.00  0.00     0.271 C 
BRANCH  28  29
HETATM   29  N1  UNL     1      21.237   6.062  49.613  1.00  0.00     0.080 N 
HETATM   30  C1  UNL     1      21.177   4.947  50.517  1.00  0.00     0.309 C 
HETATM   31  C2  UNL     1      21.525   7.252  50.349  1.00  0.00     0.309 C 
ENDBRANCH  28  29
ENDBRANCH  27  28
ENDBRANCH  26  27
ENDBRANCH  23  26
ENDBRANCH   1  22
TORSDOF 9
ENDMDL
MODEL 4
REMARK VINA RESULT:      -7.1      2.571      5.697
REMARK  9 active torsions:
REMARK  status: ('A' for Active; 'I' for Inactive)
REMARK    1  A    between atoms: N1_2  and  C3_4 
REMARK    2  A    between atoms: C3_4  and  C4_5 
REMARK    3  A    between atoms: C4_5  and  C5_6 
REMARK    4  A    between atoms: C5_6  and  C6_7 
REMARK       I    between atoms: C6_7  and  N2_9 
REMARK    5  A    between atoms: N2_9  and  C7_10 
REMARK    6  A    between atoms: C14_19  and  C15_20 
REMARK    7  A    between atoms: C15_20  and  C16_21 
REMARK    8  A    between atoms: C18_24  and  C19_25 
REMARK    9  A    between atoms: C19_25  and  N5_26 
ROOT
HETATM    1  C7  UNL     1      25.145   2.847  51.624  1.00  0.00     0.035 A 
HETATM    2  C8  UNL     1      25.841   2.367  52.707  1.00  0.00     0.030 A 
HETATM    3  C9  UNL     1      25.473   1.303  53.495  1.00  0.00     0.016 A 
HETATM    4  C10 UNL     1      24.298   0.668  53.157  1.00  0.00    -0.001 A 
HETATM    5  C11 UNL     1      23.813  -0.422  53.829  1.00  0.00     0.073 A 
HETATM    6  C12 UNL     1      24.554  -0.895  54.938  1.00  0.00     0.102 C 
HETATM    7  N3  UNL     1      25.169  -1.264  55.837  1.00  0.00    -0.191 NA
HETATM    8  C13 UNL     1      22.658  -1.066  53.476  1.00  0.00     0.140 A 
HETATM    9  N4  UNL     1      22.015  -0.566  52.427  1.00  0.00    -0.258 NA
HETATM   10  C14 UNL     1      22.393   0.487  51.704  1.00  0.00     0.077 A 
HETATM   11  C20 UNL     1      23.549   1.095  52.088  1.00  0.00     0.007 A 
HETATM   12  C21 UNL     1      23.985   2.160  51.354  1.00  0.00     0.044 A 
ENDROOT
BRANCH  10  13
HETATM   13  C15 UNL     1      21.532   0.792  50.633  1.00  0.00    -0.011 C 
HETATM   14  C18 UNL     1      20.225   1.078  50.856  1.00  0.00     0.016 C 
BRANCH  13  15
HETATM   15  C16 UNL     1      21.414   1.011  49.232  1.00  0.00     0.040 C 
HETATM   16  C17 UNL     1      21.550   1.816  48.133  1.00  0.00     0.177 C 
HETATM   17 BR1  UNL     1      22.050   3.515  47.331  1.00  0.00    -0.200 Br
ENDBRANCH  13  15
BRANCH  14  18
HETATM   18  C19 UNL     1      19.272   1.194  51.969  1.00  0.00     0.295 C 
BRANCH  18  19
HETATM   19  N5  UNL     1      18.888  -0.090  52.556  1.00  0.00     0.081 N 
HETATM   20  H22 UNL     1      19.636  -0.386  53.235  1.00  0.00     0.313 HD
HETATM   21  H23 UNL     1      18.008   0.027  53.120  1.00  0.00     0.313 HD
ENDBRANCH  18  19
ENDBRANCH  14  18
ENDBRANCH  10  13
BRANCH   1  22
HETATM   22  N2  UNL     1      25.517   3.926  50.810  1.00  0.00    -0.327 N 
HETATM   23  C6  UNL     1      26.383   3.945  49.702  1.00  0.00     0.222 C 
HETATM   24  O1  UNL     1      26.918   2.866  49.359  1.00  0.00    -0.273 OA
HETATM   25  H13 UNL     1      25.118   4.866  51.015  1.00  0.00     0.169 HD
BRANCH  23  26
HETATM   26  C5  UNL     1      26.683   5.153  48.942  1.00  0.00     0.105 C 
BRANCH  26  27
HETATM   27  C4  UNL     1      25.863   6.343  49.314  1.00  0.00     0.039 C 
BRANCH  27  28
HETATM   28  C3  UNL     1      24.549   6.479  48.632  1.00  0.00     0.271 C 
BRANCH  28  29
HETATM   29  N1  UNL     1      23.620   7.222  49.454  1.00  0.00     0.080 N 
HETATM   30  C1  UNL     1      22.342   6.589  49.628  1.00  0.00     0.309 C 
HETATM   31  C2  UNL     1      24.133   7.608  50.730  1.00  0.00     0.309 C 
ENDBRANCH  28  29
ENDBRANCH  27  28
ENDBRANCH  26  27
ENDBRANCH  23  26
ENDBRANCH   1  22
TORSDOF 9
ENDMDL
MODEL 5
REMARK VINA RESULT:      -6.9      1.445      1.951
REMARK  9 active torsions:
REMARK  status: ('A' for Active; 'I' for Inactive)
REMARK    1  A    between atoms: N1_2  and  C3_4 
REMARK    2  A    between atoms: C3_4  and  C4_5 
REMARK    3  A    between atoms: C4_5  and  C5_6 
REMARK    4  A    between atoms: C5_6  and  C6_7 
REMARK       I    between atoms: C6_7  and  N2_9 
REMARK    5  A    between atoms: N2_9  and  C7_10 
REMARK    6  A    between atoms: C14_19  and  C15_20 
REMARK    7  A    between atoms: C15_20  and  C16_21 
REMARK    8  A    between atoms: C18_24  and  C19_25 
REMARK    9  A    between atoms: C19_25  and  N5_26 
ROOT
HETATM    1  C7  UNL     1      22.711  -0.215  52.905  1.00  0.00     0.035 A 
HETATM    2  C8  UNL     1      23.589  -0.804  53.783  1.00  0.00     0.030 A 
HETATM    3  C9  UNL     1      24.908  -0.461  53.954  1.00  0.00     0.016 A 
HETATM    4  C10 UNL     1      25.381   0.568  53.170  1.00  0.00    -0.001 A 
HETATM    5  C11 UNL     1      26.664   1.041  53.245  1.00  0.00     0.073 A 
HETATM    6  C12 UNL     1      27.543   0.416  54.161  1.00  0.00     0.102 C 
HETATM    7  N3  UNL     1      28.245  -0.105  54.910  1.00  0.00    -0.191 NA
HETATM    8  C13 UNL     1      27.125   2.080  52.482  1.00  0.00     0.140 A 
HETATM    9  N4  UNL     1      26.245   2.617  51.645  1.00  0.00    -0.258 NA
HETATM   10  C14 UNL     1      24.977   2.237  51.489  1.00  0.00     0.077 A 
HETATM   11  C20 UNL     1      24.561   1.202  52.270  1.00  0.00     0.007 A 
HETATM   12  C21 UNL     1      23.260   0.803  52.160  1.00  0.00     0.044 A 
ENDROOT
BRANCH  10  13
HETATM   13  C15 UNL     1      24.260   2.991  50.542  1.00  0.00    -0.011 C 
HETATM   14  C18 UNL     1      23.767   4.215  50.860  1.00  0.00     0.016 C 
BRANCH  13  15
HETATM   15  C16 UNL     1      23.797   3.076  49.199  1.00  0.00     0.040 C 
HETATM   16  C17 UNL     1      22.787   3.013  48.277  1.00  0.00     0.177 C 
HETATM   17 BR1  UNL     1      20.913   2.738  47.836  1.00  0.00    -0.200 Br
ENDBRANCH  13  15
BRANCH  14  18
HETATM   18  C19 UNL     1      23.714   5.145  51.996  1.00  0.00     0.295 C 
BRANCH  18  19
HETATM   19  N5  UNL     1      24.112   4.548  53.271  1.00  0.00     0.081 N 
HETATM   20  H22 UNL     1      24.305   5.321  53.959  1.00  0.00     0.313 HD
HETATM   21  H23 UNL     1      23.311   3.994  53.668  1.00  0.00     0.313 HD
ENDBRANCH  18  19
ENDBRANCH  14  18
ENDBRANCH  10  13
BRANCH   1  22
HETATM   22  N2  UNL     1      21.362  -0.552  52.728  1.00  0.00    -0.327 N 
HETATM   23  C6  UNL     1      20.254  -0.233  53.534  1.00  0.00     0.222 C 
HETATM   24  O1  UNL     1      20.458   0.449  54.565  1.00  0.00    -0.273 OA
HETATM   25  H13 UNL     1      21.093  -1.115  51.895  1.00  0.00     0.169 HD
BRANCH  23  26
HETATM   26  C5  UNL     1      18.893  -0.657  53.227  1.00  0.00     0.105 C 
BRANCH  26  27
HETATM   27  C4  UNL     1      18.287   0.007  52.036  1.00  0.00     0.039 C 
BRANCH  27  28
HETATM   28  C3  UNL     1      17.079  -0.642  51.462  1.00  0.00     0.271 C 
BRANCH  28  29
HETATM   29  N1  UNL     1      16.134  -0.976  52.503  1.00  0.00     0.080 N 
HETATM   30  C1  UNL     1      15.201   0.070  52.819  1.00  0.00     0.309 C 
HETATM   31  C2  UNL     1      15.421  -2.196  52.290  1.00  0.00     0.309 C 
ENDBRANCH  28  29
ENDBRANCH  27  28
ENDBRANCH  26  27
ENDBRANCH  23  26
ENDBRANCH   1  22
TORSDOF 9
ENDMDL
MODEL 6
REMARK VINA RESULT:      -6.9      3.416      6.647
REMARK  9 active torsions:
REMARK  status: ('A' for Active; 'I' for Inactive)
REMARK    1  A    between atoms: N1_2  and  C3_4 
REMARK    2  A    between atoms: C3_4  and  C4_5 
REMARK    3  A    between atoms: C4_5  and  C5_6 
REMARK    4  A    between atoms: C5_6  and  C6_7 
REMARK       I    between atoms: C6_7  and  N2_9 
REMARK    5  A    between atoms: N2_9  and  C7_10 
REMARK    6  A    between atoms: C14_19  and  C15_20 
REMARK    7  A    between atoms: C15_20  and  C16_21 
REMARK    8  A    between atoms: C18_24  and  C19_25 
REMARK    9  A    between atoms: C19_25  and  N5_26 
ROOT
HETATM    1  C7  UNL     1      26.035   2.649  51.088  1.00  0.00     0.035 A 
HETATM    2  C8  UNL     1      26.680   2.011  52.120  1.00  0.00     0.030 A 
HETATM    3  C9  UNL     1      26.117   1.105  52.986  1.00  0.00     0.016 A 
HETATM    4  C10 UNL     1      24.784   0.819  52.791  1.00  0.00    -0.001 A 
HETATM    5  C11 UNL     1      24.089  -0.082  53.554  1.00  0.00     0.073 A 
HETATM    6  C12 UNL     1      24.783  -0.725  54.607  1.00  0.00     0.102 C 
HETATM    7  N3  UNL     1      25.363  -1.237  55.458  1.00  0.00    -0.191 NA
HETATM    8  C13 UNL     1      22.771  -0.382  53.343  1.00  0.00     0.140 A 
HETATM    9  N4  UNL     1      22.185   0.260  52.339  1.00  0.00    -0.258 NA
HETATM   10  C14 UNL     1      22.762   1.154  51.537  1.00  0.00     0.077 A 
HETATM   11  C20 UNL     1      24.074   1.420  51.781  1.00  0.00     0.007 A 
HETATM   12  C21 UNL     1      24.708   2.310  50.961  1.00  0.00     0.044 A 
ENDROOT
BRANCH  10  13
HETATM   13  C15 UNL     1      21.911   1.670  50.541  1.00  0.00    -0.011 C 
HETATM   14  C18 UNL     1      21.251   2.839  50.733  1.00  0.00     0.016 C 
BRANCH  13  15
HETATM   15  C16 UNL     1      21.401   1.517  49.222  1.00  0.00     0.040 C 
HETATM   16  C17 UNL     1      20.839   2.042  48.090  1.00  0.00     0.177 C 
HETATM   17 BR1  UNL     1      20.145   3.560  47.093  1.00  0.00    -0.200 Br
ENDBRANCH  13  15
BRANCH  14  18
HETATM   18  C19 UNL     1      21.092   3.888  51.751  1.00  0.00     0.295 C 
BRANCH  18  19
HETATM   19  N5  UNL     1      22.194   4.849  51.788  1.00  0.00     0.081 N 
HETATM   20  H22 UNL     1      23.086   4.330  51.994  1.00  0.00     0.313 HD
HETATM   21  H23 UNL     1      22.319   5.283  50.838  1.00  0.00     0.313 HD
ENDBRANCH  18  19
ENDBRANCH  14  18
ENDBRANCH  10  13
BRANCH   1  22
HETATM   22  N2  UNL     1      26.602   3.568  50.195  1.00  0.00    -0.327 N 
HETATM   23  C6  UNL     1      26.111   4.817  49.775  1.00  0.00     0.222 C 
HETATM   24  O1  UNL     1      25.014   5.201  50.241  1.00  0.00    -0.273 OA
HETATM   25  H13 UNL     1      27.519   3.338  49.758  1.00  0.00     0.169 HD
BRANCH  23  26
HETATM   26  C5  UNL     1      26.814   5.676  48.829  1.00  0.00     0.105 C 
BRANCH  26  27
HETATM   27  C4  UNL     1      28.187   5.215  48.470  1.00  0.00     0.039 C 
BRANCH  27  28
HETATM   28  C3  UNL     1      29.169   6.275  48.119  1.00  0.00     0.271 C 
BRANCH  28  29
HETATM   29  N1  UNL     1      30.499   5.901  48.545  1.00  0.00     0.080 N 
HETATM   30  C1  UNL     1      31.252   5.166  47.566  1.00  0.00     0.309 C 
HETATM   31  C2  UNL     1      31.293   6.983  49.035  1.00  0.00     0.309 C 
ENDBRANCH  28  29
ENDBRANCH  27  28
ENDBRANCH  26  27
ENDBRANCH  23  26
ENDBRANCH   1  22
TORSDOF 9
ENDMDL
MODEL 7
REMARK VINA RESULT:      -6.8      3.638      6.993
REMARK  9 active torsions:
REMARK  status: ('A' for Active; 'I' for Inactive)
REMARK    1  A    between atoms: N1_2  and  C3_4 
REMARK    2  A    between atoms: C3_4  and  C4_5 
REMARK    3  A    between atoms: C4_5  and  C5_6 
REMARK    4  A    between atoms: C5_6  and  C6_7 
REMARK       I    between atoms: C6_7  and  N2_9 
REMARK    5  A    between atoms: N2_9  and  C7_10 
REMARK    6  A    between atoms: C14_19  and  C15_20 
REMARK    7  A    between atoms: C15_20  and  C16_21 
REMARK    8  A    between atoms: C18_24  and  C19_25 
REMARK    9  A    between atoms: C19_25  and  N5_26 
ROOT
HETATM    1  C7  UNL     1      22.898   4.498  52.268  1.00  0.00     0.035 A 
HETATM    2  C8  UNL     1      21.610   4.019  52.282  1.00  0.00     0.030 A 
HETATM    3  C9  UNL     1      21.239   2.710  52.474  1.00  0.00     0.016 A 
HETATM    4  C10 UNL     1      22.260   1.807  52.672  1.00  0.00    -0.001 A 
HETATM    5  C11 UNL     1      22.049   0.473  52.904  1.00  0.00     0.073 A 
HETATM    6  C12 UNL     1      20.711   0.012  52.915  1.00  0.00     0.102 C 
HETATM    7  N3  UNL     1      19.618  -0.346  52.919  1.00  0.00    -0.191 NA
HETATM    8  C13 UNL     1      23.063  -0.418  53.124  1.00  0.00     0.140 A 
HETATM    9  N4  UNL     1      24.292   0.086  53.098  1.00  0.00    -0.258 NA
HETATM   10  C14 UNL     1      24.612   1.362  52.881  1.00  0.00     0.077 A 
HETATM   11  C20 UNL     1      23.571   2.214  52.670  1.00  0.00     0.007 A 
HETATM   12  C21 UNL     1      23.857   3.534  52.472  1.00  0.00     0.044 A 
ENDROOT
BRANCH  10  13
HETATM   13  C15 UNL     1      25.994   1.626  52.925  1.00  0.00    -0.011 C 
HETATM   14  C18 UNL     1      26.629   2.167  51.855  1.00  0.00     0.016 C 
BRANCH  13  15
HETATM   15  C16 UNL     1      27.176   1.624  53.716  1.00  0.00     0.040 C 
HETATM   16  C17 UNL     1      28.402   1.102  54.030  1.00  0.00     0.177 C 
HETATM   17 BR1  UNL     1      29.819  -0.194  53.724  1.00  0.00    -0.200 Br
ENDBRANCH  13  15
BRANCH  14  18
HETATM   18  C19 UNL     1      26.340   2.630  50.490  1.00  0.00     0.295 C 
BRANCH  18  19
HETATM   19  N5  UNL     1      26.552   4.063  50.293  1.00  0.00     0.081 N 
HETATM   20  H22 UNL     1      27.584   4.239  50.182  1.00  0.00     0.313 HD
HETATM   21  H23 UNL     1      26.103   4.368  49.393  1.00  0.00     0.313 HD
ENDBRANCH  18  19
ENDBRANCH  14  18
ENDBRANCH  10  13
BRANCH   1  22
HETATM   22  N2  UNL     1      23.286   5.832  52.080  1.00  0.00    -0.327 N 
HETATM   23  C6  UNL     1      23.451   6.548  50.881  1.00  0.00     0.222 C 
HETATM   24  O1  UNL     1      23.229   5.946  49.806  1.00  0.00    -0.273 OA
HETATM   25  H13 UNL     1      23.489   6.415  52.919  1.00  0.00     0.169 HD
BRANCH  23  26
HETATM   26  C5  UNL     1      23.866   7.945  50.835  1.00  0.00     0.105 C 
BRANCH  26  27
HETATM   27  C4  UNL     1      24.895   8.257  49.801  1.00  0.00     0.039 C 
BRANCH  27  28
HETATM   28  C3  UNL     1      26.299   7.907  50.140  1.00  0.00     0.271 C 
BRANCH  28  29
HETATM   29  N1  UNL     1      27.169   8.123  49.005  1.00  0.00     0.080 N 
HETATM   30  C1  UNL     1      28.294   8.976  49.272  1.00  0.00     0.309 C 
HETATM   31  C2  UNL     1      27.623   6.928  48.367  1.00  0.00     0.309 C 
ENDBRANCH  28  29
ENDBRANCH  27  28
ENDBRANCH  26  27
ENDBRANCH  23  26
ENDBRANCH   1  22
TORSDOF 9
ENDMDL
MODEL 8
REMARK VINA RESULT:      -6.6      3.740      6.737
REMARK  9 active torsions:
REMARK  status: ('A' for Active; 'I' for Inactive)
REMARK    1  A    between atoms: N1_2  and  C3_4 
REMARK    2  A    between atoms: C3_4  and  C4_5 
REMARK    3  A    between atoms: C4_5  and  C5_6 
REMARK    4  A    between atoms: C5_6  and  C6_7 
REMARK       I    between atoms: C6_7  and  N2_9 
REMARK    5  A    between atoms: N2_9  and  C7_10 
REMARK    6  A    between atoms: C14_19  and  C15_20 
REMARK    7  A    between atoms: C15_20  and  C16_21 
REMARK    8  A    between atoms: C18_24  and  C19_25 
REMARK    9  A    between atoms: C19_25  and  N5_26 
ROOT
HETATM    1  C7  UNL     1      26.262   3.041  50.617  1.00  0.00     0.035 A 
HETATM    2  C8  UNL     1      26.922   2.347  51.603  1.00  0.00     0.030 A 
HETATM    3  C9  UNL     1      26.359   1.434  52.461  1.00  0.00     0.016 A 
HETATM    4  C10 UNL     1      25.010   1.201  52.308  1.00  0.00    -0.001 A 
HETATM    5  C11 UNL     1      24.311   0.301  53.069  1.00  0.00     0.073 A 
HETATM    6  C12 UNL     1      25.020  -0.400  54.073  1.00  0.00     0.102 C 
HETATM    7  N3  UNL     1      25.611  -0.960  54.886  1.00  0.00    -0.191 NA
HETATM    8  C13 UNL     1      22.976   0.054  52.899  1.00  0.00     0.140 A 
HETATM    9  N4  UNL     1      22.377   0.749  51.938  1.00  0.00    -0.258 NA
HETATM   10  C14 UNL     1      22.956   1.648  51.143  1.00  0.00     0.077 A 
HETATM   11  C20 UNL     1      24.285   1.860  51.345  1.00  0.00     0.007 A 
HETATM   12  C21 UNL     1      24.920   2.753  50.530  1.00  0.00     0.044 A 
ENDROOT
BRANCH  10  13
HETATM   13  C15 UNL     1      22.089   2.226  50.197  1.00  0.00    -0.011 C 
HETATM   14  C18 UNL     1      21.508   3.429  50.435  1.00  0.00     0.016 C 
BRANCH  13  15
HETATM   15  C16 UNL     1      21.505   2.120  48.903  1.00  0.00     0.040 C 
HETATM   16  C17 UNL     1      20.514   2.429  48.011  1.00  0.00     0.177 C 
HETATM   17 BR1  UNL     1      18.853   3.341  47.576  1.00  0.00    -0.200 Br
ENDBRANCH  13  15
BRANCH  14  18
HETATM   18  C19 UNL     1      21.461   4.471  51.470  1.00  0.00     0.295 C 
BRANCH  18  19
HETATM   19  N5  UNL     1      22.582   5.410  51.417  1.00  0.00     0.081 N 
HETATM   20  H22 UNL     1      23.108   5.357  52.327  1.00  0.00     0.313 HD
HETATM   21  H23 UNL     1      23.258   5.113  50.669  1.00  0.00     0.313 HD
ENDBRANCH  18  19
ENDBRANCH  14  18
ENDBRANCH  10  13
BRANCH   1  22
HETATM   22  N2  UNL     1      26.830   3.968  49.732  1.00  0.00    -0.327 N 
HETATM   23  C6  UNL     1      26.444   5.295  49.469  1.00  0.00     0.222 C 
HETATM   24  O1  UNL     1      25.460   5.752  50.093  1.00  0.00    -0.273 OA
HETATM   25  H13 UNL     1      27.658   3.680  49.171  1.00  0.00     0.169 HD
BRANCH  23  26
HETATM   26  C5  UNL     1      27.132   6.152  48.511  1.00  0.00     0.105 C 
BRANCH  26  27
HETATM   27  C4  UNL     1      28.528   5.735  48.191  1.00  0.00     0.039 C 
BRANCH  27  28
HETATM   28  C3  UNL     1      29.583   6.769  48.362  1.00  0.00     0.271 C 
BRANCH  28  29
HETATM   29  N1  UNL     1      29.038   8.093  48.159  1.00  0.00     0.080 N 
HETATM   30  C1  UNL     1      29.384   9.041  49.182  1.00  0.00     0.309 C 
HETATM   31  C2  UNL     1      29.314   8.660  46.877  1.00  0.00     0.309 C 
ENDBRANCH  28  29
ENDBRANCH  27  28
ENDBRANCH  26  27
ENDBRANCH  23  26
ENDBRANCH   1  22
TORSDOF 9
ENDMDL
MODEL 9
REMARK VINA RESULT:      -6.5      2.943      5.099
REMARK  9 active torsions:
REMARK  status: ('A' for Active; 'I' for Inactive)
REMARK    1  A    between atoms: N1_2  and  C3_4 
REMARK    2  A    between atoms: C3_4  and  C4_5 
REMARK    3  A    between atoms: C4_5  and  C5_6 
REMARK    4  A    between atoms: C5_6  and  C6_7 
REMARK       I    between atoms: C6_7  and  N2_9 
REMARK    5  A    between atoms: N2_9  and  C7_10 
REMARK    6  A    between atoms: C14_19  and  C15_20 
REMARK    7  A    between atoms: C15_20  and  C16_21 
REMARK    8  A    between atoms: C18_24  and  C19_25 
REMARK    9  A    between atoms: C19_25  and  N5_26 
ROOT
HETATM    1  C7  UNL     1      21.945   2.948  51.665  1.00  0.00     0.035 A 
HETATM    2  C8  UNL     1      21.109   2.134  52.393  1.00  0.00     0.030 A 
HETATM    3  C9  UNL     1      21.487   1.023  53.106  1.00  0.00     0.016 A 
HETATM    4  C10 UNL     1      22.828   0.707  53.083  1.00  0.00    -0.001 A 
HETATM    5  C11 UNL     1      23.362  -0.355  53.765  1.00  0.00     0.073 A 
HETATM    6  C12 UNL     1      22.476  -1.171  54.507  1.00  0.00     0.102 C 
HETATM    7  N3  UNL     1      21.741  -1.825  55.104  1.00  0.00    -0.191 NA
HETATM    8  C13 UNL     1      24.697  -0.652  53.760  1.00  0.00     0.140 A 
HETATM    9  N4  UNL     1      25.468   0.157  53.042  1.00  0.00    -0.258 NA
HETATM   10  C14 UNL     1      25.056   1.213  52.340  1.00  0.00     0.077 A 
HETATM   11  C20 UNL     1      23.721   1.474  52.376  1.00  0.00     0.007 A 
HETATM   12  C21 UNL     1      23.265   2.564  51.692  1.00  0.00     0.044 A 
ENDROOT
BRANCH  10  13
HETATM   13  C15 UNL     1      26.089   1.907  51.682  1.00  0.00    -0.011 C 
HETATM   14  C18 UNL     1      27.267   2.152  52.309  1.00  0.00     0.016 C 
BRANCH  13  15
HETATM   15  C16 UNL     1      26.528   2.509  50.470  1.00  0.00     0.040 C 
HETATM   16  C17 UNL     1      26.561   3.571  49.607  1.00  0.00     0.177 C 
HETATM   17 BR1  UNL     1      26.040   5.382  49.131  1.00  0.00    -0.200 Br
ENDBRANCH  13  15
BRANCH  14  18
HETATM   18  C19 UNL     1      27.924   1.917  53.603  1.00  0.00     0.295 C 
BRANCH  18  19
HETATM   19  N5  UNL     1      29.227   2.568  53.733  1.00  0.00     0.081 N 
HETATM   20  H22 UNL     1      29.220   3.452  53.162  1.00  0.00     0.313 HD
HETATM   21  H23 UNL     1      29.378   2.863  54.731  1.00  0.00     0.313 HD
ENDBRANCH  18  19
ENDBRANCH  14  18
ENDBRANCH  10  13
BRANCH   1  22
HETATM   22  N2  UNL     1      21.570   4.088  50.941  1.00  0.00    -0.327 N 
HETATM   23  C6  UNL     1      21.340   4.227  49.560  1.00  0.00     0.222 C 
HETATM   24  O1  UNL     1      21.477   3.212  48.840  1.00  0.00    -0.273 OA
HETATM   25  H13 UNL     1      21.427   4.982  51.456  1.00  0.00     0.169 HD
BRANCH  23  26
HETATM   26  C5  UNL     1      20.953   5.487  48.937  1.00  0.00     0.105 C 
BRANCH  26  27
HETATM   27  C4  UNL     1      21.642   5.783  47.648  1.00  0.00     0.039 C 
BRANCH  27  28
HETATM   28  C3  UNL     1      20.766   6.084  46.485  1.00  0.00     0.271 C 
BRANCH  28  29
HETATM   29  N1  UNL     1      21.334   5.553  45.266  1.00  0.00     0.080 N 
HETATM   30  C1  UNL     1      22.297   6.412  44.634  1.00  0.00     0.309 C 
HETATM   31  C2  UNL     1      21.881   4.239  45.388  1.00  0.00     0.309 C 
ENDBRANCH  28  29
ENDBRANCH  27  28
ENDBRANCH  26  27
ENDBRANCH  23  26
ENDBRANCH   1  22
TORSDOF 9
ENDMDL
