MODEL 1
REMARK VINA RESULT:      -7.2      0.000      0.000
REMARK  6 active torsions:
REMARK  status: ('A' for Active; 'I' for Inactive)
REMARK    1  A    between atoms: C8_11  and  N4_12 
REMARK    2  A    between atoms: C15_20  and  C16_21 
REMARK       I    between atoms: C16_21  and  N5_23 
REMARK    3  A    between atoms: N5_23  and  C17_24 
REMARK    4  A    between atoms: C17_24  and  C18_25 
REMARK    5  A    between atoms: C18_25  and  C19_26 
REMARK    6  A    between atoms: C19_26  and  N6_27 
ROOT
HETATM    1  C1  UNL     1      23.533   5.024  53.761  1.00  0.00     0.059 C 
HETATM    2  C2  UNL     1      23.108   4.746  52.563  1.00  0.00     0.004 C 
HETATM    3  N1  UNL     1      22.270   5.741  52.001  1.00  0.00    -0.385 N 
HETATM    4  C3  UNL     1      21.461   6.004  50.883  1.00  0.00     0.130 C 
HETATM    5  C4  UNL     1      20.870   5.937  49.706  1.00  0.00     0.002 C 
HETATM    6  C5  UNL     1      20.588   5.346  48.362  1.00  0.00     0.017 C 
HETATM    7  C6  UNL     1      21.153   4.258  47.863  1.00  0.00     0.117 C 
HETATM    8  N2  UNL     1      22.093   3.581  48.619  1.00  0.00    -0.254 NA
HETATM    9  C7  UNL     1      23.074   2.850  48.311  1.00  0.00     0.234 C 
HETATM   10  N3  UNL     1      23.077   2.885  49.689  1.00  0.00    -0.228 NA
HETATM   11  C8  UNL     1      23.821   3.635  50.481  1.00  0.00     0.122 C 
HETATM   12  C15 UNL     1      23.528   3.473  51.924  1.00  0.00     0.192 C 
HETATM   13  H3  UNL     1      22.088   6.649  52.471  1.00  0.00     0.160 HD
ENDROOT
BRANCH  12  14
HETATM   14  C16 UNL     1      24.403   2.617  52.693  1.00  0.00     0.234 C 
HETATM   15  O1  UNL     1      23.926   1.558  53.257  1.00  0.00    -0.272 OA
HETATM   16  N5  UNL     1      25.791   2.683  52.994  1.00  0.00    -0.360 N 
HETATM   17  H19 UNL     1      26.246   3.527  52.576  1.00  0.00     0.162 HD
BRANCH  16  18
HETATM   18  C17 UNL     1      26.595   1.779  53.768  1.00  0.00     0.124 C 
BRANCH  18  19
HETATM   19  C18 UNL     1      27.633   1.149  52.879  1.00  0.00     0.050 C 
BRANCH  19  20
HETATM   20  C19 UNL     1      27.602  -0.366  52.950  1.00  0.00     0.273 C 
BRANCH  20  21
HETATM   21  N6  UNL     1      28.742  -0.894  53.672  1.00  0.00     0.080 N 
HETATM   22  C20 UNL     1      29.880  -0.002  53.561  1.00  0.00     0.309 C 
HETATM   23  C21 UNL     1      29.062  -2.224  53.200  1.00  0.00     0.309 C 
ENDBRANCH  20  21
ENDBRANCH  19  20
ENDBRANCH  18  19
ENDBRANCH  16  18
ENDBRANCH  12  14
BRANCH  11  24
HETATM   24  N4  UNL     1      24.787   4.566  49.936  1.00  0.00    -0.360 N 
HETATM   25  C9  UNL     1      26.095   4.058  49.648  1.00  0.00     0.153 C 
HETATM   26  C10 UNL     1      26.925   4.918  48.765  1.00  0.00     0.008 C 
HETATM   27  C11 UNL     1      26.941   6.267  48.798  1.00  0.00    -0.012 C 
HETATM   28 BR1  UNL     1      28.006   7.387  47.675  1.00  0.00    -0.056 Br
HETATM   29  C12 UNL     1      25.975   6.693  49.860  1.00  0.00     0.071 C 
HETATM   30  C13 UNL     1      24.633   5.983  49.631  1.00  0.00     0.086 C 
HETATM   31  C14 UNL     1      24.356   6.120  48.156  1.00  0.00     0.033 C 
ENDBRANCH  11  24
TORSDOF 6
ENDMDL
MODEL 2
REMARK VINA RESULT:      -6.8      2.465      4.387
REMARK  6 active torsions:
REMARK  status: ('A' for Active; 'I' for Inactive)
REMARK    1  A    between atoms: C8_11  and  N4_12 
REMARK    2  A    between atoms: C15_20  and  C16_21 
REMARK       I    between atoms: C16_21  and  N5_23 
REMARK    3  A    between atoms: N5_23  and  C17_24 
REMARK    4  A    between atoms: C17_24  and  C18_25 
REMARK    5  A    between atoms: C18_25  and  C19_26 
REMARK    6  A    between atoms: C19_26  and  N6_27 
ROOT
HETATM    1  C1  UNL     1      26.271   2.108  50.545  1.00  0.00     0.059 C 
HETATM    2  C2  UNL     1      25.874   3.345  50.489  1.00  0.00     0.004 C 
HETATM    3  N1  UNL     1      26.454   4.092  49.435  1.00  0.00    -0.385 N 
HETATM    4  C3  UNL     1      26.532   5.394  48.912  1.00  0.00     0.130 C 
HETATM    5  C4  UNL     1      26.326   6.674  48.672  1.00  0.00     0.002 C 
HETATM    6  C5  UNL     1      25.661   8.000  48.862  1.00  0.00     0.017 C 
HETATM    7  C6  UNL     1      24.682   8.257  49.715  1.00  0.00     0.117 C 
HETATM    8  N2  UNL     1      24.203   7.238  50.516  1.00  0.00    -0.254 NA
HETATM    9  C7  UNL     1      23.081   7.028  51.056  1.00  0.00     0.234 C 
HETATM   10  N3  UNL     1      23.860   5.951  51.425  1.00  0.00    -0.228 NA
HETATM   11  C8  UNL     1      23.885   4.745  50.891  1.00  0.00     0.122 C 
HETATM   12  C15 UNL     1      24.889   3.835  51.487  1.00  0.00     0.192 C 
HETATM   13  H3  UNL     1      27.072   3.662  48.718  1.00  0.00     0.160 HD
ENDROOT
BRANCH  12  14
HETATM   14  C16 UNL     1      24.428   2.879  52.468  1.00  0.00     0.234 C 
HETATM   15  O1  UNL     1      24.879   2.935  53.677  1.00  0.00    -0.272 OA
HETATM   16  N5  UNL     1      23.508   1.796  52.398  1.00  0.00    -0.360 N 
HETATM   17  H19 UNL     1      23.106   1.682  51.439  1.00  0.00     0.162 HD
BRANCH  16  18
HETATM   18  C17 UNL     1      23.095   0.888  53.430  1.00  0.00     0.124 C 
BRANCH  18  19
HETATM   19  C18 UNL     1      23.812  -0.423  53.256  1.00  0.00     0.050 C 
BRANCH  19  20
HETATM   20  C19 UNL     1      25.001  -0.553  54.190  1.00  0.00     0.273 C 
BRANCH  20  21
HETATM   21  N6  UNL     1      26.246  -0.220  53.525  1.00  0.00     0.080 N 
HETATM   22  C20 UNL     1      26.697  -1.321  52.697  1.00  0.00     0.309 C 
HETATM   23  C21 UNL     1      27.247   0.158  54.499  1.00  0.00     0.309 C 
ENDBRANCH  20  21
ENDBRANCH  19  20
ENDBRANCH  18  19
ENDBRANCH  16  18
ENDBRANCH  12  14
BRANCH  11  24
HETATM   24  N4  UNL     1      23.024   4.404  49.777  1.00  0.00    -0.360 N 
HETATM   25  C9  UNL     1      21.684   4.004  50.083  1.00  0.00     0.153 C 
HETATM   26  C10 UNL     1      20.742   4.023  48.934  1.00  0.00     0.008 C 
HETATM   27  C11 UNL     1      21.060   3.673  47.671  1.00  0.00    -0.012 C 
HETATM   28 BR1  UNL     1      19.860   3.688  46.184  1.00  0.00    -0.056 Br
HETATM   29  C12 UNL     1      22.507   3.289  47.671  1.00  0.00     0.071 C 
HETATM   30  C13 UNL     1      23.321   4.401  48.349  1.00  0.00     0.086 C 
HETATM   31  C14 UNL     1      22.805   5.688  47.758  1.00  0.00     0.033 C 
ENDBRANCH  11  24
TORSDOF 6
ENDMDL
MODEL 3
REMARK VINA RESULT:      -6.6      2.077      2.504
REMARK  6 active torsions:
REMARK  status: ('A' for Active; 'I' for Inactive)
REMARK    1  A    between atoms: C8_11  and  N4_12 
REMARK    2  A    between atoms: C15_20  and  C16_21 
REMARK       I    between atoms: C16_21  and  N5_23 
REMARK    3  A    between atoms: N5_23  and  C17_24 
REMARK    4  A    between atoms: C17_24  and  C18_25 
REMARK    5  A    between atoms: C18_25  and  C19_26 
REMARK    6  A    between atoms: C19_26  and  N6_27 
ROOT
HETATM    1  C1  UNL     1      20.797   2.371  53.377  1.00  0.00     0.059 C 
HETATM    2  C2  UNL     1      20.816   2.442  52.078  1.00  0.00     0.004 C 
HETATM    3  N1  UNL     1      19.902   3.377  51.536  1.00  0.00    -0.385 N 
HETATM    4  C3  UNL     1      19.385   3.840  50.313  1.00  0.00     0.130 C 
HETATM    5  C4  UNL     1      19.184   4.063  49.030  1.00  0.00     0.002 C 
HETATM    6  C5  UNL     1      19.468   3.924  47.568  1.00  0.00     0.017 C 
HETATM    7  C6  UNL     1      20.448   3.211  47.036  1.00  0.00     0.117 C 
HETATM    8  N2  UNL     1      21.306   2.521  47.871  1.00  0.00    -0.254 NA
HETATM    9  C7  UNL     1      22.508   2.153  47.749  1.00  0.00     0.234 C 
HETATM   10  N3  UNL     1      22.127   1.713  49.000  1.00  0.00    -0.228 NA
HETATM   11  C8  UNL     1      22.366   2.279  50.168  1.00  0.00     0.122 C 
HETATM   12  C15 UNL     1      21.757   1.577  51.321  1.00  0.00     0.192 C 
HETATM   13  H3  UNL     1      19.333   4.013  52.129  1.00  0.00     0.160 HD
ENDROOT
BRANCH  12  14
HETATM   14  C16 UNL     1      22.607   0.704  52.098  1.00  0.00     0.234 C 
HETATM   15  O1  UNL     1      22.215  -0.496  52.366  1.00  0.00    -0.272 OA
HETATM   16  N5  UNL     1      23.890   0.884  52.686  1.00  0.00    -0.360 N 
HETATM   17  H19 UNL     1      24.269   1.845  52.518  1.00  0.00     0.162 HD
BRANCH  16  18
HETATM   18  C17 UNL     1      24.677  -0.045  53.446  1.00  0.00     0.124 C 
BRANCH  18  19
HETATM   19  C18 UNL     1      25.997  -0.262  52.755  1.00  0.00     0.050 C 
BRANCH  19  20
HETATM   20  C19 UNL     1      27.169  -0.145  53.711  1.00  0.00     0.273 C 
BRANCH  20  21
HETATM   21  N6  UNL     1      28.229   0.677  53.164  1.00  0.00     0.080 N 
HETATM   22  C20 UNL     1      29.459   0.493  53.909  1.00  0.00     0.309 C 
HETATM   23  C21 UNL     1      27.825   2.066  53.142  1.00  0.00     0.309 C 
ENDBRANCH  20  21
ENDBRANCH  19  20
ENDBRANCH  18  19
ENDBRANCH  16  18
ENDBRANCH  12  14
BRANCH  11  24
HETATM   24  N4  UNL     1      23.116   3.515  50.259  1.00  0.00    -0.360 N 
HETATM   25  C9  UNL     1      24.543   3.413  50.306  1.00  0.00     0.153 C 
HETATM   26  C10 UNL     1      25.276   4.675  50.028  1.00  0.00     0.008 C 
HETATM   27  C11 UNL     1      24.879   5.900  50.429  1.00  0.00    -0.012 C 
HETATM   28 BR1  UNL     1      25.811   7.532  50.084  1.00  0.00    -0.056 Br
HETATM   29  C12 UNL     1      23.591   5.725  51.172  1.00  0.00     0.071 C 
HETATM   30  C13 UNL     1      22.629   4.888  50.316  1.00  0.00     0.086 C 
HETATM   31  C14 UNL     1      22.713   5.476  48.931  1.00  0.00     0.033 C 
ENDBRANCH  11  24
TORSDOF 6
ENDMDL
MODEL 4
REMARK VINA RESULT:      -6.5      2.109      2.753
REMARK  6 active torsions:
REMARK  status: ('A' for Active; 'I' for Inactive)
REMARK    1  A    between atoms: C8_11  and  N4_12 
REMARK    2  A    between atoms: C15_20  and  C16_21 
REMARK       I    between atoms: C16_21  and  N5_23 
REMARK    3  A    between atoms: N5_23  and  C17_24 
REMARK    4  A    between atoms: C17_24  and  C18_25 
REMARK    5  A    between atoms: C18_25  and  C19_26 
REMARK    6  A    between atoms: C19_26  and  N6_27 
ROOT
HETATM    1  C1  UNL     1      23.762   4.787  53.560  1.00  0.00     0.059 C 
HETATM    2  C2  UNL     1      23.256   4.773  52.361  1.00  0.00     0.004 C 
HETATM    3  N1  UNL     1      22.436   5.890  52.067  1.00  0.00    -0.385 N 
HETATM    4  C3  UNL     1      21.578   6.404  51.079  1.00  0.00     0.130 C 
HETATM    5  C4  UNL     1      20.919   6.598  49.955  1.00  0.00     0.002 C 
HETATM    6  C5  UNL     1      20.533   6.303  48.541  1.00  0.00     0.017 C 
HETATM    7  C6  UNL     1      21.015   5.320  47.797  1.00  0.00     0.117 C 
HETATM    8  N2  UNL     1      21.963   4.471  48.339  1.00  0.00    -0.254 NA
HETATM    9  C7  UNL     1      22.889   3.784  47.826  1.00  0.00     0.234 C 
HETATM   10  N3  UNL     1      22.973   3.538  49.180  1.00  0.00    -0.228 NA
HETATM   11  C8  UNL     1      23.795   4.084  50.056  1.00  0.00     0.122 C 
HETATM   12  C15 UNL     1      23.578   3.643  51.453  1.00  0.00     0.192 C 
HETATM   13  H3  UNL     1      22.324   6.690  52.720  1.00  0.00     0.160 HD
ENDROOT
BRANCH  12  14
HETATM   14  C16 UNL     1      24.453   2.618  51.975  1.00  0.00     0.234 C 
HETATM   15  O1  UNL     1      25.625   2.454  51.458  1.00  0.00    -0.272 OA
HETATM   16  N5  UNL     1      24.302   1.666  53.021  1.00  0.00    -0.360 N 
HETATM   17  H19 UNL     1      23.366   1.732  53.482  1.00  0.00     0.162 HD
BRANCH  16  18
HETATM   18  C17 UNL     1      25.231   0.675  53.486  1.00  0.00     0.124 C 
BRANCH  18  19
HETATM   19  C18 UNL     1      24.523  -0.645  53.626  1.00  0.00     0.050 C 
BRANCH  19  20
HETATM   20  C19 UNL     1      23.035  -0.527  53.357  1.00  0.00     0.273 C 
BRANCH  20  21
HETATM   21  N6  UNL     1      22.251  -0.777  54.550  1.00  0.00     0.080 N 
HETATM   22  C20 UNL     1      23.035  -1.488  55.541  1.00  0.00     0.309 C 
HETATM   23  C21 UNL     1      21.042  -1.497  54.212  1.00  0.00     0.309 C 
ENDBRANCH  20  21
ENDBRANCH  19  20
ENDBRANCH  18  19
ENDBRANCH  16  18
ENDBRANCH  12  14
BRANCH  11  24
HETATM   24  N4  UNL     1      24.772   5.071  49.647  1.00  0.00    -0.360 N 
HETATM   25  C9  UNL     1      26.082   4.598  49.315  1.00  0.00     0.153 C 
HETATM   26  C10 UNL     1      26.928   5.559  48.561  1.00  0.00     0.008 C 
HETATM   27  C11 UNL     1      26.948   6.892  48.764  1.00  0.00    -0.012 C 
HETATM   28 BR1  UNL     1      28.032   8.141  47.807  1.00  0.00    -0.056 Br
HETATM   29  C12 UNL     1      25.967   7.186  49.857  1.00  0.00     0.071 C 
HETATM   30  C13 UNL     1      24.627   6.517  49.521  1.00  0.00     0.086 C 
HETATM   31  C14 UNL     1      24.372   6.840  48.071  1.00  0.00     0.033 C 
ENDBRANCH  11  24
TORSDOF 6
ENDMDL
MODEL 5
REMARK VINA RESULT:      -6.5      5.221      7.838
REMARK  6 active torsions:
REMARK  status: ('A' for Active; 'I' for Inactive)
REMARK    1  A    between atoms: C8_11  and  N4_12 
REMARK    2  A    between atoms: C15_20  and  C16_21 
REMARK       I    between atoms: C16_21  and  N5_23 
REMARK    3  A    between atoms: N5_23  and  C17_24 
REMARK    4  A    between atoms: C17_24  and  C18_25 
REMARK    5  A    between atoms: C18_25  and  C19_26 
REMARK    6  A    between atoms: C19_26  and  N6_27 
ROOT
HETATM    1  C1  UNL     1      27.544   9.266  50.443  1.00  0.00     0.059 C 
HETATM    2  C2  UNL     1      28.076   9.563  49.293  1.00  0.00     0.004 C 
HETATM    3  N1  UNL     1      28.894  10.719  49.315  1.00  0.00    -0.385 N 
HETATM    4  C3  UNL     1      29.623  11.575  48.472  1.00  0.00     0.130 C 
HETATM    5  C4  UNL     1      30.234  12.104  47.431  1.00  0.00     0.002 C 
HETATM    6  C5  UNL     1      30.700  12.150  46.010  1.00  0.00     0.017 C 
HETATM    7  C6  UNL     1      30.482  11.219  45.096  1.00  0.00     0.117 C 
HETATM    8  N2  UNL     1      29.767  10.088  45.445  1.00  0.00    -0.254 NA
HETATM    9  C7  UNL     1      29.768   8.905  45.005  1.00  0.00     0.234 C 
HETATM   10  N3  UNL     1      28.833   8.906  46.019  1.00  0.00    -0.228 NA
HETATM   11  C8  UNL     1      28.985   8.496  47.265  1.00  0.00     0.122 C 
HETATM   12  C15 UNL     1      27.793   8.696  48.120  1.00  0.00     0.192 C 
HETATM   13  H3  UNL     1      29.119  11.229  50.191  1.00  0.00     0.160 HD
ENDROOT
BRANCH  12  14
HETATM   14  C16 UNL     1      26.932   7.557  48.346  1.00  0.00     0.234 C 
HETATM   15  O1  UNL     1      25.850   7.427  47.654  1.00  0.00    -0.272 OA
HETATM   16  N5  UNL     1      27.016   6.450  49.235  1.00  0.00    -0.360 N 
HETATM   17  H19 UNL     1      27.868   6.493  49.840  1.00  0.00     0.162 HD
BRANCH  16  18
HETATM   18  C17 UNL     1      26.112   5.346  49.395  1.00  0.00     0.124 C 
BRANCH  18  19
HETATM   19  C18 UNL     1      26.879   4.055  49.285  1.00  0.00     0.050 C 
BRANCH  19  20
HETATM   20  C19 UNL     1      26.073   2.868  49.779  1.00  0.00     0.273 C 
BRANCH  20  21
HETATM   21  N6  UNL     1      25.891   2.903  51.217  1.00  0.00     0.080 N 
HETATM   22  C20 UNL     1      26.953   2.180  51.887  1.00  0.00     0.309 C 
HETATM   23  C21 UNL     1      24.588   2.381  51.568  1.00  0.00     0.309 C 
ENDBRANCH  20  21
ENDBRANCH  19  20
ENDBRANCH  18  19
ENDBRANCH  16  18
ENDBRANCH  12  14
BRANCH  11  24
HETATM   24  N4  UNL     1      30.248   7.958  47.725  1.00  0.00    -0.360 N 
HETATM   25  C9  UNL     1      30.470   6.556  47.538  1.00  0.00     0.153 C 
HETATM   26  C10 UNL     1      31.883   6.117  47.674  1.00  0.00     0.008 C 
HETATM   27  C11 UNL     1      32.762   6.617  48.567  1.00  0.00    -0.012 C 
HETATM   28 BR1  UNL     1      34.580   6.061  48.758  1.00  0.00    -0.056 Br
HETATM   29  C12 UNL     1      32.043   7.672  49.349  1.00  0.00     0.071 C 
HETATM   30  C13 UNL     1      31.361   8.642  48.374  1.00  0.00     0.086 C 
HETATM   31  C14 UNL     1      32.399   8.950  47.326  1.00  0.00     0.033 C 
ENDBRANCH  11  24
TORSDOF 6
ENDMDL
MODEL 6
REMARK VINA RESULT:      -6.3      3.088      5.423
REMARK  6 active torsions:
REMARK  status: ('A' for Active; 'I' for Inactive)
REMARK    1  A    between atoms: C8_11  and  N4_12 
REMARK    2  A    between atoms: C15_20  and  C16_21 
REMARK       I    between atoms: C16_21  and  N5_23 
REMARK    3  A    between atoms: N5_23  and  C17_24 
REMARK    4  A    between atoms: C17_24  and  C18_25 
REMARK    5  A    between atoms: C18_25  and  C19_26 
REMARK    6  A    between atoms: C19_26  and  N6_27 
ROOT
HETATM    1  C1  UNL     1      26.358   2.587  50.160  1.00  0.00     0.059 C 
HETATM    2  C2  UNL     1      25.705   3.708  50.254  1.00  0.00     0.004 C 
HETATM    3  N1  UNL     1      26.066   4.671  49.281  1.00  0.00    -0.385 N 
HETATM    4  C3  UNL     1      25.841   6.008  48.910  1.00  0.00     0.130 C 
HETATM    5  C4  UNL     1      25.358   7.232  48.823  1.00  0.00     0.002 C 
HETATM    6  C5  UNL     1      24.435   8.353  49.177  1.00  0.00     0.017 C 
HETATM    7  C6  UNL     1      23.462   8.300  50.073  1.00  0.00     0.117 C 
HETATM    8  N2  UNL     1      23.247   7.120  50.761  1.00  0.00    -0.254 NA
HETATM    9  C7  UNL     1      22.220   6.615  51.295  1.00  0.00     0.234 C 
HETATM   10  N3  UNL     1      23.225   5.699  51.523  1.00  0.00    -0.228 NA
HETATM   11  C8  UNL     1      23.483   4.592  50.853  1.00  0.00     0.122 C 
HETATM   12  C15 UNL     1      24.683   3.862  51.321  1.00  0.00     0.192 C 
HETATM   13  H3  UNL     1      26.728   4.465  48.508  1.00  0.00     0.160 HD
ENDROOT
BRANCH  12  14
HETATM   14  C16 UNL     1      24.479   2.728  52.195  1.00  0.00     0.234 C 
HETATM   15  O1  UNL     1      24.924   2.768  53.406  1.00  0.00    -0.272 OA
HETATM   16  N5  UNL     1      23.844   1.470  52.005  1.00  0.00    -0.360 N 
HETATM   17  H19 UNL     1      23.466   1.361  51.036  1.00  0.00     0.162 HD
BRANCH  16  18
HETATM   18  C17 UNL     1      23.677   0.390  52.935  1.00  0.00     0.124 C 
BRANCH  18  19
HETATM   19  C18 UNL     1      22.256  -0.104  52.876  1.00  0.00     0.050 C 
BRANCH  19  20
HETATM   20  C19 UNL     1      21.500   0.472  51.693  1.00  0.00     0.273 C 
BRANCH  20  21
HETATM   21  N6  UNL     1      20.110   0.723  52.014  1.00  0.00     0.080 N 
HETATM   22  C20 UNL     1      19.666  -0.142  53.089  1.00  0.00     0.309 C 
HETATM   23  C21 UNL     1      19.287   0.568  50.833  1.00  0.00     0.309 C 
ENDBRANCH  20  21
ENDBRANCH  19  20
ENDBRANCH  18  19
ENDBRANCH  16  18
ENDBRANCH  12  14
BRANCH  11  24
HETATM   24  N4  UNL     1      22.667   4.196  49.724  1.00  0.00    -0.360 N 
HETATM   25  C9  UNL     1      21.408   3.576  50.012  1.00  0.00     0.153 C 
HETATM   26  C10 UNL     1      20.455   3.524  48.873  1.00  0.00     0.008 C 
HETATM   27  C11 UNL     1      20.802   3.308  47.587  1.00  0.00    -0.012 C 
HETATM   28 BR1  UNL     1      19.590   3.234  46.113  1.00  0.00    -0.056 Br
HETATM   29  C12 UNL     1      22.291   3.151  47.553  1.00  0.00     0.071 C 
HETATM   30  C13 UNL     1      22.936   4.329  48.298  1.00  0.00     0.086 C 
HETATM   31  C14 UNL     1      22.221   5.557  47.796  1.00  0.00     0.033 C 
ENDBRANCH  11  24
TORSDOF 6
ENDMDL
MODEL 7
REMARK VINA RESULT:      -6.2      3.592      5.566
REMARK  6 active torsions:
REMARK  status: ('A' for Active; 'I' for Inactive)
REMARK    1  A    between atoms: C8_11  and  N4_12 
REMARK    2  A    between atoms: C15_20  and  C16_21 
REMARK       I    between atoms: C16_21  and  N5_23 
REMARK    3  A    between atoms: N5_23  and  C17_24 
REMARK    4  A    between atoms: C17_24  and  C18_25 
REMARK    5  A    between atoms: C18_25  and  C19_26 
REMARK    6  A    between atoms: C19_26  and  N6_27 
ROOT
HETATM    1  C1  UNL     1      23.240   1.871  50.993  1.00  0.00     0.059 C 
HETATM    2  C2  UNL     1      23.235   3.170  50.924  1.00  0.00     0.004 C 
HETATM    3  N1  UNL     1      24.456   3.731  50.475  1.00  0.00    -0.385 N 
HETATM    4  C3  UNL     1      25.104   4.963  50.284  1.00  0.00     0.130 C 
HETATM    5  C4  UNL     1      25.364   6.250  50.172  1.00  0.00     0.002 C 
HETATM    6  C5  UNL     1      25.027   7.707  50.177  1.00  0.00     0.017 C 
HETATM    7  C6  UNL     1      23.828   8.222  50.399  1.00  0.00     0.117 C 
HETATM    8  N2  UNL     1      22.767   7.372  50.649  1.00  0.00    -0.254 NA
HETATM    9  C7  UNL     1      21.523   7.476  50.462  1.00  0.00     0.234 C 
HETATM   10  N3  UNL     1      21.694   6.227  51.021  1.00  0.00    -0.228 NA
HETATM   11  C8  UNL     1      21.740   5.060  50.404  1.00  0.00     0.122 C 
HETATM   12  C15 UNL     1      22.002   3.910  51.298  1.00  0.00     0.192 C 
HETATM   13  H3  UNL     1      25.251   3.150  50.146  1.00  0.00     0.160 HD
ENDROOT
BRANCH  12  14
HETATM   14  C16 UNL     1      20.869   3.115  51.717  1.00  0.00     0.234 C 
HETATM   15  O1  UNL     1      20.400   3.252  52.912  1.00  0.00    -0.272 OA
HETATM   16  N5  UNL     1      20.087   2.131  51.052  1.00  0.00    -0.360 N 
HETATM   17  H19 UNL     1      20.418   1.957  50.076  1.00  0.00     0.162 HD
BRANCH  16  18
HETATM   18  C17 UNL     1      18.962   1.384  51.542  1.00  0.00     0.124 C 
BRANCH  18  19
HETATM   19  C18 UNL     1      19.402  -0.015  51.879  1.00  0.00     0.050 C 
BRANCH  19  20
HETATM   20  C19 UNL     1      19.729  -0.172  53.352  1.00  0.00     0.273 C 
BRANCH  20  21
HETATM   21  N6  UNL     1      21.149  -0.024  53.607  1.00  0.00     0.080 N 
HETATM   22  C20 UNL     1      21.924  -0.800  52.659  1.00  0.00     0.309 C 
HETATM   23  C21 UNL     1      21.453  -0.394  54.972  1.00  0.00     0.309 C 
ENDBRANCH  20  21
ENDBRANCH  19  20
ENDBRANCH  18  19
ENDBRANCH  16  18
ENDBRANCH  12  14
BRANCH  11  24
HETATM   24  N4  UNL     1      21.598   4.970  48.966  1.00  0.00    -0.360 N 
HETATM   25  C9  UNL     1      20.267   4.955  48.439  1.00  0.00     0.153 C 
HETATM   26  C10 UNL     1      20.161   5.234  46.983  1.00  0.00     0.008 C 
HETATM   27  C11 UNL     1      21.040   4.809  46.052  1.00  0.00    -0.012 C 
HETATM   28 BR1  UNL     1      20.918   5.154  44.177  1.00  0.00    -0.056 Br
HETATM   29  C12 UNL     1      22.106   4.041  46.771  1.00  0.00     0.071 C 
HETATM   30  C13 UNL     1      22.631   4.885  47.940  1.00  0.00     0.086 C 
HETATM   31  C14 UNL     1      22.845   6.265  47.372  1.00  0.00     0.033 C 
ENDBRANCH  11  24
TORSDOF 6
ENDMDL
MODEL 8
REMARK VINA RESULT:      -6.0      4.292      5.596
REMARK  6 active torsions:
REMARK  status: ('A' for Active; 'I' for Inactive)
REMARK    1  A    between atoms: C8_11  and  N4_12 
REMARK    2  A    between atoms: C15_20  and  C16_21 
REMARK       I    between atoms: C16_21  and  N5_23 
REMARK    3  A    between atoms: N5_23  and  C17_24 
REMARK    4  A    between atoms: C17_24  and  C18_25 
REMARK    5  A    between atoms: C18_25  and  C19_26 
REMARK    6  A    between atoms: C19_26  and  N6_27 
ROOT
HETATM    1  C1  UNL     1      24.437   7.341  51.203  1.00  0.00     0.059 C 
HETATM    2  C2  UNL     1      23.959   6.155  50.963  1.00  0.00     0.004 C 
HETATM    3  N1  UNL     1      22.911   5.766  51.832  1.00  0.00    -0.385 N 
HETATM    4  C3  UNL     1      22.092   4.672  52.159  1.00  0.00     0.130 C 
HETATM    5  C4  UNL     1      21.476   3.506  52.149  1.00  0.00     0.002 C 
HETATM    6  C5  UNL     1      21.142   2.154  51.605  1.00  0.00     0.017 C 
HETATM    7  C6  UNL     1      21.638   1.622  50.499  1.00  0.00     0.117 C 
HETATM    8  N2  UNL     1      22.547   2.349  49.753  1.00  0.00    -0.254 NA
HETATM    9  C7  UNL     1      22.843   2.347  48.526  1.00  0.00     0.234 C 
HETATM   10  N3  UNL     1      23.661   3.306  49.087  1.00  0.00    -0.228 NA
HETATM   11  C8  UNL     1      23.490   4.615  49.096  1.00  0.00     0.122 C 
HETATM   12  C15 UNL     1      24.528   5.359  49.846  1.00  0.00     0.192 C 
HETATM   13  H3  UNL     1      22.502   6.409  52.539  1.00  0.00     0.160 HD
ENDROOT
BRANCH  12  14
HETATM   14  C16 UNL     1      25.592   5.974  49.085  1.00  0.00     0.234 C 
HETATM   15  O1  UNL     1      25.303   6.759  48.102  1.00  0.00    -0.272 OA
HETATM   16  N5  UNL     1      27.010   5.904  49.184  1.00  0.00    -0.360 N 
HETATM   17  H19 UNL     1      27.320   5.272  49.957  1.00  0.00     0.162 HD
BRANCH  16  18
HETATM   18  C17 UNL     1      28.007   6.557  48.384  1.00  0.00     0.124 C 
BRANCH  18  19
HETATM   19  C18 UNL     1      29.182   5.634  48.202  1.00  0.00     0.050 C 
BRANCH  19  20
HETATM   20  C19 UNL     1      30.471   6.394  47.946  1.00  0.00     0.273 C 
BRANCH  20  21
HETATM   21  N6  UNL     1      31.290   6.481  49.139  1.00  0.00     0.080 N 
HETATM   22  C20 UNL     1      31.596   7.862  49.453  1.00  0.00     0.309 C 
HETATM   23  C21 UNL     1      32.493   5.693  48.978  1.00  0.00     0.309 C 
ENDBRANCH  20  21
ENDBRANCH  19  20
ENDBRANCH  18  19
ENDBRANCH  16  18
ENDBRANCH  12  14
BRANCH  11  24
HETATM   24  N4  UNL     1      22.339   5.222  48.462  1.00  0.00    -0.360 N 
HETATM   25  C9  UNL     1      22.410   5.447  47.050  1.00  0.00     0.153 C 
HETATM   26  C10 UNL     1      21.109   5.716  46.387  1.00  0.00     0.008 C 
HETATM   27  C11 UNL     1      20.103   6.436  46.927  1.00  0.00    -0.012 C 
HETATM   28 BR1  UNL     1      18.426   6.795  46.086  1.00  0.00    -0.056 Br
HETATM   29  C12 UNL     1      20.556   6.876  48.285  1.00  0.00     0.071 C 
HETATM   30  C13 UNL     1      21.080   5.657  49.057  1.00  0.00     0.086 C 
HETATM   31  C14 UNL     1      20.056   4.574  48.837  1.00  0.00     0.033 C 
ENDBRANCH  11  24
TORSDOF 6
ENDMDL
MODEL 9
REMARK VINA RESULT:      -6.0      8.399     11.939
REMARK  6 active torsions:
REMARK  status: ('A' for Active; 'I' for Inactive)
REMARK    1  A    between atoms: C8_11  and  N4_12 
REMARK    2  A    between atoms: C15_20  and  C16_21 
REMARK       I    between atoms: C16_21  and  N5_23 
REMARK    3  A    between atoms: N5_23  and  C17_24 
REMARK    4  A    between atoms: C17_24  and  C18_25 
REMARK    5  A    between atoms: C18_25  and  C19_26 
REMARK    6  A    between atoms: C19_26  and  N6_27 
ROOT
HETATM    1  C1  UNL     1      35.005   9.364  48.195  1.00  0.00     0.059 C 
HETATM    2  C2  UNL     1      34.807   8.190  47.671  1.00  0.00     0.004 C 
HETATM    3  N1  UNL     1      34.990   7.115  48.574  1.00  0.00    -0.385 N 
HETATM    4  C3  UNL     1      35.029   5.711  48.631  1.00  0.00     0.130 C 
HETATM    5  C4  UNL     1      34.931   4.431  48.332  1.00  0.00     0.002 C 
HETATM    6  C5  UNL     1      34.609   3.263  47.455  1.00  0.00     0.017 C 
HETATM    7  C6  UNL     1      34.130   3.332  46.223  1.00  0.00     0.117 C 
HETATM    8  N2  UNL     1      33.890   4.574  45.663  1.00  0.00    -0.254 NA
HETATM    9  C7  UNL     1      33.083   4.973  44.779  1.00  0.00     0.234 C 
HETATM   10  N3  UNL     1      33.779   6.101  45.160  1.00  0.00    -0.228 NA
HETATM   11  C8  UNL     1      33.400   7.044  46.002  1.00  0.00     0.122 C 
HETATM   12  C15 UNL     1      34.417   8.092  46.241  1.00  0.00     0.192 C 
HETATM   13  H3  UNL     1      35.178   7.259  49.585  1.00  0.00     0.160 HD
ENDROOT
BRANCH  12  14
HETATM   14  C16 UNL     1      34.279   9.337  45.518  1.00  0.00     0.234 C 
HETATM   15  O1  UNL     1      35.256   9.767  44.793  1.00  0.00    -0.272 OA
HETATM   16  N5  UNL     1      33.215  10.276  45.416  1.00  0.00    -0.360 N 
HETATM   17  H19 UNL     1      32.386   9.998  45.990  1.00  0.00     0.162 HD
BRANCH  16  18
HETATM   18  C17 UNL     1      33.154  11.498  44.665  1.00  0.00     0.124 C 
BRANCH  18  19
HETATM   19  C18 UNL     1      31.920  12.265  45.060  1.00  0.00     0.050 C 
BRANCH  19  20
HETATM   20  C19 UNL     1      30.866  11.369  45.683  1.00  0.00     0.273 C 
BRANCH  20  21
HETATM   21  N6  UNL     1      30.336  11.933  46.908  1.00  0.00     0.080 N 
HETATM   22  C20 UNL     1      31.250  11.712  48.012  1.00  0.00     0.309 C 
HETATM   23  C21 UNL     1      29.026  11.385  47.186  1.00  0.00     0.309 C 
ENDBRANCH  20  21
ENDBRANCH  19  20
ENDBRANCH  18  19
ENDBRANCH  16  18
ENDBRANCH  12  14
BRANCH  11  24
HETATM   24  N4  UNL     1      32.110   6.983  46.658  1.00  0.00    -0.360 N 
HETATM   25  C9  UNL     1      31.018   7.652  46.019  1.00  0.00     0.153 C 
HETATM   26  C10 UNL     1      29.668   7.267  46.507  1.00  0.00     0.008 C 
HETATM   27  C11 UNL     1      29.364   6.993  47.793  1.00  0.00    -0.012 C 
HETATM   28 BR1  UNL     1      27.635   6.500  48.438  1.00  0.00    -0.056 Br
HETATM   29  C12 UNL     1      30.626   7.141  48.586  1.00  0.00     0.071 C 
HETATM   30  C13 UNL     1      31.741   6.332  47.910  1.00  0.00     0.086 C 
HETATM   31  C14 UNL     1      31.122   4.998  47.581  1.00  0.00     0.033 C 
ENDBRANCH  11  24
TORSDOF 6
ENDMDL
