MODEL 1
REMARK VINA RESULT:      -7.0      0.000      0.000
REMARK  6 active torsions:
REMARK  status: ('A' for Active; 'I' for Inactive)
REMARK    1  A    between atoms: C2_2  and  O1_3 
REMARK    2  A    between atoms: O1_3  and  C3_4 
REMARK    3  A    between atoms: C11_15  and  N4_16 
REMARK       I    between atoms: N4_16  and  C12_17 
REMARK    4  A    between atoms: C12_17  and  C13_19 
REMARK    5  A    between atoms: C14_20  and  C15_21 
REMARK    6  A    between atoms: C15_21  and  N5_22 
ROOT
HETATM    1  C3  UNL     1      23.735   2.436  52.669  1.00  0.00     0.090 A 
HETATM    2  C4  UNL     1      24.761   2.861  53.367  1.00  0.00     0.070 A 
HETATM    3  C5  UNL     1      25.881   1.950  53.435  1.00  0.00     0.085 A 
HETATM    4  N1  UNL     1      26.971   2.341  54.150  1.00  0.00    -0.257 NA
HETATM    5  C6  UNL     1      28.030   1.503  54.230  1.00  0.00     0.140 A 
HETATM    6  C7  UNL     1      28.085   0.265  53.630  1.00  0.00     0.064 A 
HETATM    7  C8  UNL     1      29.245  -0.593  53.749  1.00  0.00     0.101 C 
HETATM    8  N2  UNL     1      30.170  -1.294  53.828  1.00  0.00    -0.191 NA
HETATM    9  C9  UNL     1      26.998  -0.166  52.897  1.00  0.00     0.055 A 
HETATM   10  C10 UNL     1      25.935   0.709  52.834  1.00  0.00     0.060 A 
HETATM   11  N3  UNL     1      24.765   0.381  52.116  1.00  0.00    -0.361 N 
HETATM   12  C11 UNL     1      23.557   1.155  51.940  1.00  0.00     0.242 A 
HETATM   13  H9  UNL     1      24.648  -0.515  51.603  1.00  0.00     0.162 HD
ENDROOT
BRANCH  12  14
HETATM   14  N4  UNL     1      22.384   0.442  52.382  1.00  0.00    -0.331 N 
HETATM   15  C12 UNL     1      22.187  -0.378  53.521  1.00  0.00     0.242 C 
HETATM   16  O2  UNL     1      23.186  -0.500  54.251  1.00  0.00    -0.269 OA
HETATM   17  H11 UNL     1      21.638   0.637  51.679  1.00  0.00     0.165 HD
BRANCH  15  18
HETATM   18  C13 UNL     1      20.901  -1.008  53.777  1.00  0.00     0.072 C 
HETATM   19  C14 UNL     1      19.779  -0.587  53.262  1.00  0.00     0.008 C 
BRANCH  19  20
HETATM   20  C15 UNL     1      18.441  -1.148  53.457  1.00  0.00     0.299 C 
BRANCH  20  21
HETATM   21  N5  UNL     1      17.564  -0.965  52.324  1.00  0.00     0.083 N 
HETATM   22  C16 UNL     1      18.131  -0.121  51.307  1.00  0.00     0.309 C 
HETATM   23  C17 UNL     1      16.228  -0.610  52.706  1.00  0.00     0.309 C 
ENDBRANCH  20  21
ENDBRANCH  19  20
ENDBRANCH  15  18
ENDBRANCH  12  14
BRANCH   1  24
HETATM   24  O1  UNL     1      22.584   3.148  52.484  1.00  0.00    -0.352 OA
BRANCH  24  25
HETATM   25  C2  UNL     1      22.487   4.531  52.336  1.00  0.00     0.171 C 
HETATM   26  C1  UNL     1      21.507   4.842  51.230  1.00  0.00     0.034 C 
ENDBRANCH  24  25
ENDBRANCH   1  24
TORSDOF 6
ENDMDL
MODEL 2
REMARK VINA RESULT:      -6.8      3.514      6.565
REMARK  6 active torsions:
REMARK  status: ('A' for Active; 'I' for Inactive)
REMARK    1  A    between atoms: C2_2  and  O1_3 
REMARK    2  A    between atoms: O1_3  and  C3_4 
REMARK    3  A    between atoms: C11_15  and  N4_16 
REMARK       I    between atoms: N4_16  and  C12_17 
REMARK    4  A    between atoms: C12_17  and  C13_19 
REMARK    5  A    between atoms: C14_20  and  C15_21 
REMARK    6  A    between atoms: C15_21  and  N5_22 
ROOT
HETATM    1  C3  UNL     1      23.513   2.127  52.683  1.00  0.00     0.090 A 
HETATM    2  C4  UNL     1      23.752   0.839  52.625  1.00  0.00     0.070 A 
HETATM    3  C5  UNL     1      25.118   0.452  52.895  1.00  0.00     0.085 A 
HETATM    4  N1  UNL     1      25.421  -0.874  52.844  1.00  0.00    -0.257 NA
HETATM    5  C6  UNL     1      26.695  -1.259  53.090  1.00  0.00     0.140 A 
HETATM    6  C7  UNL     1      27.720  -0.392  53.393  1.00  0.00     0.064 A 
HETATM    7  C8  UNL     1      29.068  -0.859  53.647  1.00  0.00     0.101 C 
HETATM    8  N2  UNL     1      30.154  -1.216  53.860  1.00  0.00    -0.191 NA
HETATM    9  C9  UNL     1      27.451   0.960  53.453  1.00  0.00     0.055 A 
HETATM   10  C10 UNL     1      26.146   1.321  53.198  1.00  0.00     0.060 A 
HETATM   11  N3  UNL     1      25.747   2.675  53.227  1.00  0.00    -0.361 N 
HETATM   12  C11 UNL     1      24.442   3.246  52.985  1.00  0.00     0.242 A 
HETATM   13  H9  UNL     1      26.401   3.453  53.444  1.00  0.00     0.162 HD
ENDROOT
BRANCH  12  14
HETATM   14  N4  UNL     1      24.463   4.228  51.929  1.00  0.00    -0.331 N 
HETATM   15  C12 UNL     1      25.009   4.153  50.622  1.00  0.00     0.242 C 
HETATM   16  O2  UNL     1      25.554   3.070  50.348  1.00  0.00    -0.269 OA
HETATM   17  H11 UNL     1      23.976   5.071  52.301  1.00  0.00     0.165 HD
BRANCH  15  18
HETATM   18  C13 UNL     1      24.916   5.280  49.707  1.00  0.00     0.072 C 
HETATM   19  C14 UNL     1      25.956   5.875  49.192  1.00  0.00     0.008 C 
BRANCH  19  20
HETATM   20  C15 UNL     1      25.969   7.010  48.268  1.00  0.00     0.299 C 
BRANCH  20  21
HETATM   21  N5  UNL     1      26.953   8.016  48.596  1.00  0.00     0.083 N 
HETATM   22  C16 UNL     1      28.301   7.584  48.341  1.00  0.00     0.309 C 
HETATM   23  C17 UNL     1      26.754   8.586  49.897  1.00  0.00     0.309 C 
ENDBRANCH  20  21
ENDBRANCH  19  20
ENDBRANCH  15  18
ENDBRANCH  12  14
BRANCH   1  24
HETATM   24  O1  UNL     1      22.289   2.692  52.461  1.00  0.00    -0.352 OA
BRANCH  24  25
HETATM   25  C2  UNL     1      21.294   2.195  51.621  1.00  0.00     0.171 C 
HETATM   26  C1  UNL     1      19.957   2.308  52.316  1.00  0.00     0.034 C 
ENDBRANCH  24  25
ENDBRANCH   1  24
TORSDOF 6
ENDMDL
MODEL 3
REMARK VINA RESULT:      -6.7      3.642      5.390
REMARK  6 active torsions:
REMARK  status: ('A' for Active; 'I' for Inactive)
REMARK    1  A    between atoms: C2_2  and  O1_3 
REMARK    2  A    between atoms: O1_3  and  C3_4 
REMARK    3  A    between atoms: C11_15  and  N4_16 
REMARK       I    between atoms: N4_16  and  C12_17 
REMARK    4  A    between atoms: C12_17  and  C13_19 
REMARK    5  A    between atoms: C14_20  and  C15_21 
REMARK    6  A    between atoms: C15_21  and  N5_22 
ROOT
HETATM    1  C3  UNL     1      25.654   2.072  51.777  1.00  0.00     0.090 A 
HETATM    2  C4  UNL     1      26.610   2.350  50.923  1.00  0.00     0.070 A 
HETATM    3  C5  UNL     1      26.455   3.597  50.208  1.00  0.00     0.085 A 
HETATM    4  N1  UNL     1      27.419   3.933  49.307  1.00  0.00    -0.257 NA
HETATM    5  C6  UNL     1      27.293   5.093  48.624  1.00  0.00     0.140 A 
HETATM    6  C7  UNL     1      26.245   5.973  48.779  1.00  0.00     0.064 A 
HETATM    7  C8  UNL     1      26.160   7.204  48.020  1.00  0.00     0.101 C 
HETATM    8  N2  UNL     1      26.077   8.199  47.424  1.00  0.00    -0.191 NA
HETATM    9  C9  UNL     1      25.249   5.667  49.683  1.00  0.00     0.055 A 
HETATM   10  C10 UNL     1      25.404   4.477  50.363  1.00  0.00     0.060 A 
HETATM   11  N3  UNL     1      24.450   4.053  51.313  1.00  0.00    -0.361 N 
HETATM   12  C11 UNL     1      24.435   2.851  52.114  1.00  0.00     0.242 A 
HETATM   13  H9  UNL     1      23.602   4.605  51.549  1.00  0.00     0.162 HD
ENDROOT
BRANCH  12  14
HETATM   14  N4  UNL     1      23.233   2.080  51.919  1.00  0.00    -0.331 N 
HETATM   15  C12 UNL     1      22.563   1.717  50.723  1.00  0.00     0.242 C 
HETATM   16  O2  UNL     1      23.100   2.132  49.682  1.00  0.00    -0.269 OA
HETATM   17  H11 UNL     1      22.901   1.806  52.869  1.00  0.00     0.165 HD
BRANCH  15  18
HETATM   18  C13 UNL     1      21.345   0.923  50.759  1.00  0.00     0.072 C 
HETATM   19  C14 UNL     1      20.608   0.784  51.826  1.00  0.00     0.008 C 
BRANCH  19  20
HETATM   20  C15 UNL     1      19.373   0.010  51.963  1.00  0.00     0.299 C 
BRANCH  20  21
HETATM   21  N5  UNL     1      19.189  -0.561  53.278  1.00  0.00     0.083 N 
HETATM   22  C16 UNL     1      20.417  -1.028  53.863  1.00  0.00     0.309 C 
HETATM   23  C17 UNL     1      18.115  -1.510  53.328  1.00  0.00     0.309 C 
ENDBRANCH  20  21
ENDBRANCH  19  20
ENDBRANCH  15  18
ENDBRANCH  12  14
BRANCH   1  24
HETATM   24  O1  UNL     1      25.617   0.945  52.548  1.00  0.00    -0.352 OA
BRANCH  24  25
HETATM   25  C2  UNL     1      26.717   0.193  52.958  1.00  0.00     0.171 C 
HETATM   26  C1  UNL     1      26.445  -1.269  52.688  1.00  0.00     0.034 C 
ENDBRANCH  24  25
ENDBRANCH   1  24
TORSDOF 6
ENDMDL
MODEL 4
REMARK VINA RESULT:      -6.6      3.929      7.256
REMARK  6 active torsions:
REMARK  status: ('A' for Active; 'I' for Inactive)
REMARK    1  A    between atoms: C2_2  and  O1_3 
REMARK    2  A    between atoms: O1_3  and  C3_4 
REMARK    3  A    between atoms: C11_15  and  N4_16 
REMARK       I    between atoms: N4_16  and  C12_17 
REMARK    4  A    between atoms: C12_17  and  C13_19 
REMARK    5  A    between atoms: C14_20  and  C15_21 
REMARK    6  A    between atoms: C15_21  and  N5_22 
ROOT
HETATM    1  C3  UNL     1      22.376   4.023  52.082  1.00  0.00     0.090 A 
HETATM    2  C4  UNL     1      22.475   2.724  51.926  1.00  0.00     0.070 A 
HETATM    3  C5  UNL     1      23.630   2.115  52.544  1.00  0.00     0.085 A 
HETATM    4  N1  UNL     1      23.783   0.769  52.411  1.00  0.00    -0.257 NA
HETATM    5  C6  UNL     1      24.859   0.177  52.978  1.00  0.00     0.140 A 
HETATM    6  C7  UNL     1      25.826   0.851  53.691  1.00  0.00     0.064 A 
HETATM    7  C8  UNL     1      26.960   0.166  54.277  1.00  0.00     0.101 C 
HETATM    8  N2  UNL     1      27.874  -0.366  54.760  1.00  0.00    -0.191 NA
HETATM    9  C9  UNL     1      25.706   2.216  53.847  1.00  0.00     0.055 A 
HETATM   10  C10 UNL     1      24.599   2.790  53.258  1.00  0.00     0.060 A 
HETATM   11  N3  UNL     1      24.368   4.179  53.346  1.00  0.00    -0.361 N 
HETATM   12  C11 UNL     1      23.281   4.958  52.797  1.00  0.00     0.242 A 
HETATM   13  H9  UNL     1      25.001   4.828  53.854  1.00  0.00     0.162 HD
ENDROOT
BRANCH  12  14
HETATM   14  N4  UNL     1      23.748   6.018  51.939  1.00  0.00    -0.331 N 
HETATM   15  C12 UNL     1      24.607   5.970  50.813  1.00  0.00     0.242 C 
HETATM   16  O2  UNL     1      25.021   4.835  50.523  1.00  0.00    -0.269 OA
HETATM   17  H11 UNL     1      23.324   6.899  52.301  1.00  0.00     0.165 HD
BRANCH  15  18
HETATM   18  C13 UNL     1      24.952   7.181  50.082  1.00  0.00     0.072 C 
HETATM   19  C14 UNL     1      26.141   7.716  50.099  1.00  0.00     0.008 C 
BRANCH  19  20
HETATM   20  C15 UNL     1      26.586   8.925  49.404  1.00  0.00     0.299 C 
BRANCH  20  21
HETATM   21  N5  UNL     1      27.381   8.659  48.227  1.00  0.00     0.083 N 
HETATM   22  C16 UNL     1      26.589   8.535  47.033  1.00  0.00     0.309 C 
HETATM   23  C17 UNL     1      28.325   7.597  48.421  1.00  0.00     0.309 C 
ENDBRANCH  20  21
ENDBRANCH  19  20
ENDBRANCH  15  18
ENDBRANCH  12  14
BRANCH   1  24
HETATM   24  O1  UNL     1      21.359   4.782  51.576  1.00  0.00    -0.352 OA
BRANCH  24  25
HETATM   25  C2  UNL     1      20.824   4.690  50.292  1.00  0.00     0.171 C 
HETATM   26  C1  UNL     1      20.833   6.060  49.654  1.00  0.00     0.034 C 
ENDBRANCH  24  25
ENDBRANCH   1  24
TORSDOF 6
ENDMDL
MODEL 5
REMARK VINA RESULT:      -6.6      2.943      5.626
REMARK  6 active torsions:
REMARK  status: ('A' for Active; 'I' for Inactive)
REMARK    1  A    between atoms: C2_2  and  O1_3 
REMARK    2  A    between atoms: O1_3  and  C3_4 
REMARK    3  A    between atoms: C11_15  and  N4_16 
REMARK       I    between atoms: N4_16  and  C12_17 
REMARK    4  A    between atoms: C12_17  and  C13_19 
REMARK    5  A    between atoms: C14_20  and  C15_21 
REMARK    6  A    between atoms: C15_21  and  N5_22 
ROOT
HETATM    1  C3  UNL     1      23.444   2.011  52.746  1.00  0.00     0.090 A 
HETATM    2  C4  UNL     1      23.749   0.739  52.650  1.00  0.00     0.070 A 
HETATM    3  C5  UNL     1      25.133   0.415  52.910  1.00  0.00     0.085 A 
HETATM    4  N1  UNL     1      25.504  -0.892  52.821  1.00  0.00    -0.257 NA
HETATM    5  C6  UNL     1      26.796  -1.218  53.058  1.00  0.00     0.140 A 
HETATM    6  C7  UNL     1      27.775  -0.309  53.389  1.00  0.00     0.064 A 
HETATM    7  C8  UNL     1      29.145  -0.713  53.632  1.00  0.00     0.101 C 
HETATM    8  N2  UNL     1      30.248  -1.020  53.836  1.00  0.00    -0.191 NA
HETATM    9  C9  UNL     1      27.437   1.025  53.489  1.00  0.00     0.055 A 
HETATM   10  C10 UNL     1      26.115   1.326  53.241  1.00  0.00     0.060 A 
HETATM   11  N3  UNL     1      25.647   2.656  53.310  1.00  0.00    -0.361 N 
HETATM   12  C11 UNL     1      24.314   3.166  53.082  1.00  0.00     0.242 A 
HETATM   13  H9  UNL     1      26.260   3.460  53.552  1.00  0.00     0.162 HD
ENDROOT
BRANCH  12  14
HETATM   14  N4  UNL     1      24.285   4.178  52.056  1.00  0.00    -0.331 N 
HETATM   15  C12 UNL     1      24.843   4.175  50.753  1.00  0.00     0.242 C 
HETATM   16  O2  UNL     1      25.452   3.134  50.451  1.00  0.00    -0.269 OA
HETATM   17  H11 UNL     1      23.748   4.981  52.449  1.00  0.00     0.165 HD
BRANCH  15  18
HETATM   18  C13 UNL     1      24.691   5.322  49.870  1.00  0.00     0.072 C 
HETATM   19  C14 UNL     1      24.008   6.387  50.187  1.00  0.00     0.008 C 
BRANCH  19  20
HETATM   20  C15 UNL     1      23.796   7.586  49.375  1.00  0.00     0.299 C 
BRANCH  20  21
HETATM   21  N5  UNL     1      22.667   8.382  49.798  1.00  0.00     0.083 N 
HETATM   22  C16 UNL     1      21.644   7.604  50.445  1.00  0.00     0.309 C 
HETATM   23  C17 UNL     1      22.181   9.252  48.767  1.00  0.00     0.309 C 
ENDBRANCH  20  21
ENDBRANCH  19  20
ENDBRANCH  15  18
ENDBRANCH  12  14
BRANCH   1  24
HETATM   24  O1  UNL     1      22.192   2.518  52.539  1.00  0.00    -0.352 OA
BRANCH  24  25
HETATM   25  C2  UNL     1      21.241   2.022  51.648  1.00  0.00     0.171 C 
HETATM   26  C1  UNL     1      21.521   2.571  50.269  1.00  0.00     0.034 C 
ENDBRANCH  24  25
ENDBRANCH   1  24
TORSDOF 6
ENDMDL
MODEL 6
REMARK VINA RESULT:      -6.5      3.410      7.963
REMARK  6 active torsions:
REMARK  status: ('A' for Active; 'I' for Inactive)
REMARK    1  A    between atoms: C2_2  and  O1_3 
REMARK    2  A    between atoms: O1_3  and  C3_4 
REMARK    3  A    between atoms: C11_15  and  N4_16 
REMARK       I    between atoms: N4_16  and  C12_17 
REMARK    4  A    between atoms: C12_17  and  C13_19 
REMARK    5  A    between atoms: C14_20  and  C15_21 
REMARK    6  A    between atoms: C15_21  and  N5_22 
ROOT
HETATM    1  C3  UNL     1      25.284   1.056  52.336  1.00  0.00     0.090 A 
HETATM    2  C4  UNL     1      24.843   0.257  53.278  1.00  0.00     0.070 A 
HETATM    3  C5  UNL     1      23.416   0.028  53.274  1.00  0.00     0.085 A 
HETATM    4  N1  UNL     1      22.905  -0.791  54.233  1.00  0.00    -0.257 NA
HETATM    5  C6  UNL     1      21.571  -1.018  54.251  1.00  0.00     0.140 A 
HETATM    6  C7  UNL     1      20.681  -0.472  53.353  1.00  0.00     0.064 A 
HETATM    7  C8  UNL     1      19.261  -0.749  53.418  1.00  0.00     0.101 C 
HETATM    8  N2  UNL     1      18.119  -0.963  53.451  1.00  0.00    -0.191 NA
HETATM    9  C9  UNL     1      21.162   0.363  52.366  1.00  0.00     0.055 A 
HETATM   10  C10 UNL     1      22.525   0.576  52.374  1.00  0.00     0.060 A 
HETATM   11  N3  UNL     1      23.136   1.413  51.416  1.00  0.00    -0.361 N 
HETATM   12  C11 UNL     1      24.531   1.759  51.266  1.00  0.00     0.242 A 
HETATM   13  H9  UNL     1      22.604   1.898  50.667  1.00  0.00     0.162 HD
ENDROOT
BRANCH  12  14
HETATM   14  N4  UNL     1      24.747   3.184  51.304  1.00  0.00    -0.331 N 
HETATM   15  C12 UNL     1      24.256   4.205  50.452  1.00  0.00     0.242 C 
HETATM   16  O2  UNL     1      23.527   3.805  49.528  1.00  0.00    -0.269 OA
HETATM   17  H11 UNL     1      25.369   3.366  52.120  1.00  0.00     0.165 HD
BRANCH  15  18
HETATM   18  C13 UNL     1      24.605   5.600  50.677  1.00  0.00     0.072 C 
HETATM   19  C14 UNL     1      25.536   6.224  50.011  1.00  0.00     0.008 C 
BRANCH  19  20
HETATM   20  C15 UNL     1      25.961   7.617  50.162  1.00  0.00     0.299 C 
BRANCH  20  21
HETATM   21  N5  UNL     1      27.122   7.959  49.372  1.00  0.00     0.083 N 
HETATM   22  C16 UNL     1      27.557   9.315  49.574  1.00  0.00     0.309 C 
HETATM   23  C17 UNL     1      26.990   7.582  47.995  1.00  0.00     0.309 C 
ENDBRANCH  20  21
ENDBRANCH  19  20
ENDBRANCH  15  18
ENDBRANCH  12  14
BRANCH   1  24
HETATM   24  O1  UNL     1      26.597   1.396  52.170  1.00  0.00    -0.352 OA
BRANCH  24  25
HETATM   25  C2  UNL     1      27.649   1.054  53.019  1.00  0.00     0.171 C 
HETATM   26  C1  UNL     1      28.310   2.316  53.521  1.00  0.00     0.034 C 
ENDBRANCH  24  25
ENDBRANCH   1  24
TORSDOF 6
ENDMDL
MODEL 7
REMARK VINA RESULT:      -6.5      4.918      8.445
REMARK  6 active torsions:
REMARK  status: ('A' for Active; 'I' for Inactive)
REMARK    1  A    between atoms: C2_2  and  O1_3 
REMARK    2  A    between atoms: O1_3  and  C3_4 
REMARK    3  A    between atoms: C11_15  and  N4_16 
REMARK       I    between atoms: N4_16  and  C12_17 
REMARK    4  A    between atoms: C12_17  and  C13_19 
REMARK    5  A    between atoms: C14_20  and  C15_21 
REMARK    6  A    between atoms: C15_21  and  N5_22 
ROOT
HETATM    1  C3  UNL     1      23.720   4.768  49.655  1.00  0.00     0.090 A 
HETATM    2  C4  UNL     1      22.991   3.678  49.665  1.00  0.00     0.070 A 
HETATM    3  C5  UNL     1      23.297   2.741  50.722  1.00  0.00     0.085 A 
HETATM    4  N1  UNL     1      22.572   1.591  50.777  1.00  0.00    -0.257 NA
HETATM    5  C6  UNL     1      22.844   0.697  51.756  1.00  0.00     0.140 A 
HETATM    6  C7  UNL     1      23.816   0.873  52.716  1.00  0.00     0.064 A 
HETATM    7  C8  UNL     1      24.065  -0.118  53.742  1.00  0.00     0.101 C 
HETATM    8  N2  UNL     1      24.276  -0.899  54.578  1.00  0.00    -0.191 NA
HETATM    9  C9  UNL     1      24.571   2.026  52.692  1.00  0.00     0.055 A 
HETATM   10  C10 UNL     1      24.272   2.917  51.683  1.00  0.00     0.060 A 
HETATM   11  N3  UNL     1      24.978   4.132  51.553  1.00  0.00    -0.361 N 
HETATM   12  C11 UNL     1      24.815   5.179  50.569  1.00  0.00     0.242 A 
HETATM   13  H9  UNL     1      25.739   4.417  52.199  1.00  0.00     0.162 HD
ENDROOT
BRANCH  12  14
HETATM   14  N4  UNL     1      26.038   5.453  49.857  1.00  0.00    -0.331 N 
HETATM   15  C12 UNL     1      26.930   4.569  49.199  1.00  0.00     0.242 C 
HETATM   16  O2  UNL     1      26.604   3.371  49.248  1.00  0.00    -0.269 OA
HETATM   17  H11 UNL     1      26.179   6.485  49.900  1.00  0.00     0.165 HD
BRANCH  15  18
HETATM   18  C13 UNL     1      28.123   5.069  48.533  1.00  0.00     0.072 C 
HETATM   19  C14 UNL     1      28.276   6.312  48.169  1.00  0.00     0.008 C 
BRANCH  19  20
HETATM   20  C15 UNL     1      29.431   6.910  47.497  1.00  0.00     0.299 C 
BRANCH  20  21
HETATM   21  N5  UNL     1      30.076   7.950  48.265  1.00  0.00     0.083 N 
HETATM   22  C16 UNL     1      31.171   7.461  49.060  1.00  0.00     0.309 C 
HETATM   23  C17 UNL     1      29.146   8.769  48.985  1.00  0.00     0.309 C 
ENDBRANCH  20  21
ENDBRANCH  19  20
ENDBRANCH  15  18
ENDBRANCH  12  14
BRANCH   1  24
HETATM   24  O1  UNL     1      23.584   5.774  48.740  1.00  0.00    -0.352 OA
BRANCH  24  25
HETATM   25  C2  UNL     1      22.390   6.208  48.166  1.00  0.00     0.171 C 
HETATM   26  C1  UNL     1      22.394   5.865  46.695  1.00  0.00     0.034 C 
ENDBRANCH  24  25
ENDBRANCH   1  24
TORSDOF 6
ENDMDL
MODEL 8
REMARK VINA RESULT:      -6.3      8.187      9.650
REMARK  6 active torsions:
REMARK  status: ('A' for Active; 'I' for Inactive)
REMARK    1  A    between atoms: C2_2  and  O1_3 
REMARK    2  A    between atoms: O1_3  and  C3_4 
REMARK    3  A    between atoms: C11_15  and  N4_16 
REMARK       I    between atoms: N4_16  and  C12_17 
REMARK    4  A    between atoms: C12_17  and  C13_19 
REMARK    5  A    between atoms: C14_20  and  C15_21 
REMARK    6  A    between atoms: C15_21  and  N5_22 
ROOT
HETATM    1  C3  UNL     1      30.314   8.167  48.809  1.00  0.00     0.090 A 
HETATM    2  C4  UNL     1      31.540   7.930  49.210  1.00  0.00     0.070 A 
HETATM    3  C5  UNL     1      32.296   7.023  48.376  1.00  0.00     0.085 A 
HETATM    4  N1  UNL     1      33.575   6.740  48.748  1.00  0.00    -0.257 NA
HETATM    5  C6  UNL     1      34.301   5.891  47.985  1.00  0.00     0.140 A 
HETATM    6  C7  UNL     1      33.831   5.285  46.840  1.00  0.00     0.064 A 
HETATM    7  C8  UNL     1      34.653   4.382  46.060  1.00  0.00     0.101 C 
HETATM    8  N2  UNL     1      35.299   3.660  45.418  1.00  0.00    -0.191 NA
HETATM    9  C9  UNL     1      32.540   5.547  46.432  1.00  0.00     0.055 A 
HETATM   10  C10 UNL     1      31.825   6.415  47.230  1.00  0.00     0.060 A 
HETATM   11  N3  UNL     1      30.493   6.760  46.918  1.00  0.00    -0.361 N 
HETATM   12  C11 UNL     1      29.589   7.638  47.626  1.00  0.00     0.242 A 
HETATM   13  H9  UNL     1      29.993   6.391  46.085  1.00  0.00     0.162 HD
ENDROOT
BRANCH  12  14
HETATM   14  N4  UNL     1      28.363   6.975  47.997  1.00  0.00    -0.331 N 
HETATM   15  C12 UNL     1      28.139   5.644  48.429  1.00  0.00     0.242 C 
HETATM   16  O2  UNL     1      29.161   4.940  48.496  1.00  0.00    -0.269 OA
HETATM   17  H11 UNL     1      27.603   7.681  47.891  1.00  0.00     0.165 HD
BRANCH  15  18
HETATM   18  C13 UNL     1      26.799   5.179  48.756  1.00  0.00     0.072 C 
HETATM   19  C14 UNL     1      26.560   4.201  49.585  1.00  0.00     0.008 C 
BRANCH  19  20
HETATM   20  C15 UNL     1      25.258   3.661  49.978  1.00  0.00     0.299 C 
BRANCH  20  21
HETATM   21  N5  UNL     1      25.305   2.832  51.160  1.00  0.00     0.083 N 
HETATM   22  C16 UNL     1      26.583   2.202  51.352  1.00  0.00     0.309 C 
HETATM   23  C17 UNL     1      24.187   1.939  51.259  1.00  0.00     0.309 C 
ENDBRANCH  20  21
ENDBRANCH  19  20
ENDBRANCH  15  18
ENDBRANCH  12  14
BRANCH   1  24
HETATM   24  O1  UNL     1      29.441   8.994  49.458  1.00  0.00    -0.352 OA
BRANCH  24  25
HETATM   25  C2  UNL     1      29.125  10.303  49.096  1.00  0.00     0.171 C 
HETATM   26  C1  UNL     1      27.625  10.437  48.983  1.00  0.00     0.034 C 
ENDBRANCH  24  25
ENDBRANCH   1  24
TORSDOF 6
ENDMDL
MODEL 9
REMARK VINA RESULT:      -6.3      5.770      8.458
REMARK  6 active torsions:
REMARK  status: ('A' for Active; 'I' for Inactive)
REMARK    1  A    between atoms: C2_2  and  O1_3 
REMARK    2  A    between atoms: O1_3  and  C3_4 
REMARK    3  A    between atoms: C11_15  and  N4_16 
REMARK       I    between atoms: N4_16  and  C12_17 
REMARK    4  A    between atoms: C12_17  and  C13_19 
REMARK    5  A    between atoms: C14_20  and  C15_21 
REMARK    6  A    between atoms: C15_21  and  N5_22 
ROOT
HETATM    1  C3  UNL     1      24.823   6.894  49.709  1.00  0.00     0.090 A 
HETATM    2  C4  UNL     1      24.944   8.198  49.780  1.00  0.00     0.070 A 
HETATM    3  C5  UNL     1      26.265   8.711  49.498  1.00  0.00     0.085 A 
HETATM    4  N1  UNL     1      26.446  10.059  49.561  1.00  0.00    -0.257 NA
HETATM    5  C6  UNL     1      27.676  10.562  49.304  1.00  0.00     0.140 A 
HETATM    6  C7  UNL     1      28.773   9.796  48.978  1.00  0.00     0.064 A 
HETATM    7  C8  UNL     1      30.068  10.388  48.713  1.00  0.00     0.101 C 
HETATM    8  N2  UNL     1      31.114  10.845  48.491  1.00  0.00    -0.191 NA
HETATM    9  C9  UNL     1      28.628   8.427  48.905  1.00  0.00     0.055 A 
HETATM   10  C10 UNL     1      27.364   7.944  49.172  1.00  0.00     0.060 A 
HETATM   11  N3  UNL     1      27.091   6.560  49.131  1.00  0.00    -0.361 N 
HETATM   12  C11 UNL     1      25.847   5.869  49.383  1.00  0.00     0.242 A 
HETATM   13  H9  UNL     1      27.811   5.847  48.896  1.00  0.00     0.162 HD
ENDROOT
BRANCH  12  14
HETATM   14  N4  UNL     1      25.972   4.882  50.426  1.00  0.00    -0.331 N 
HETATM   15  C12 UNL     1      25.599   3.514  50.441  1.00  0.00     0.242 C 
HETATM   16  O2  UNL     1      25.082   3.106  49.387  1.00  0.00    -0.269 OA
HETATM   17  H11 UNL     1      26.417   5.365  51.236  1.00  0.00     0.165 HD
BRANCH  15  18
HETATM   18  C13 UNL     1      25.822   2.690  51.619  1.00  0.00     0.072 C 
HETATM   19  C14 UNL     1      26.676   1.705  51.657  1.00  0.00     0.008 C 
BRANCH  19  20
HETATM   20  C15 UNL     1      26.970   0.822  52.786  1.00  0.00     0.299 C 
BRANCH  20  21
HETATM   21  N5  UNL     1      28.288   1.016  53.347  1.00  0.00     0.083 N 
HETATM   22  C16 UNL     1      28.545   0.168  54.480  1.00  0.00     0.309 C 
HETATM   23  C17 UNL     1      28.604   2.398  53.561  1.00  0.00     0.309 C 
ENDBRANCH  20  21
ENDBRANCH  19  20
ENDBRANCH  15  18
ENDBRANCH  12  14
BRANCH   1  24
HETATM   24  O1  UNL     1      23.659   6.217  49.939  1.00  0.00    -0.352 OA
BRANCH  24  25
HETATM   25  C2  UNL     1      22.746   6.475  50.960  1.00  0.00     0.171 C 
HETATM   26  C1  UNL     1      22.564   5.224  51.788  1.00  0.00     0.034 C 
ENDBRANCH  24  25
ENDBRANCH   1  24
TORSDOF 6
ENDMDL
