MODEL 1
REMARK VINA RESULT:      -9.0      0.000      0.000
REMARK  3 active torsions:
REMARK  status: ('A' for Active; 'I' for Inactive)
REMARK    1  A    between atoms: C4_5  and  C5_6 
REMARK    2  A    between atoms: C5_6  and  N1_7 
REMARK    3  A    between atoms: N1_7  and  C6_8 
ROOT
HETATM    1  C6  UNL     1      26.843   1.863  52.994  1.00  0.00     0.045 A 
HETATM    2  C7  UNL     1      28.133   2.031  53.176  1.00  0.00     0.055 A 
HETATM    3  P1  UNL     1      29.010   0.831  54.235  1.00  0.00    -0.002 P 
HETATM    4  N2  UNL     1      27.765  -0.338  54.777  1.00  0.00    -0.344 N 
HETATM    5  C8  UNL     1      26.440  -0.138  54.325  1.00  0.00     0.161 A 
HETATM    6  O1  UNL     1      25.417  -0.902  54.631  1.00  0.00    -0.292 OA
HETATM    7  C9  UNL     1      24.312  -0.510  54.092  1.00  0.00     0.089 A 
HETATM    8  C10 UNL     1      23.024  -1.014  54.150  1.00  0.00     0.038 A 
HETATM    9  C11 UNL     1      22.004  -0.385  53.464  1.00  0.00     0.003 A 
HETATM   10  C12 UNL     1      22.308   0.758  52.721  1.00  0.00     0.001 A 
HETATM   11  C13 UNL     1      23.595   1.247  52.673  1.00  0.00     0.015 A 
HETATM   12  C14 UNL     1      24.600   0.619  53.355  1.00  0.00     0.015 A 
HETATM   13  C15 UNL     1      25.949   0.848  53.509  1.00  0.00     0.055 A 
HETATM   14  H7  UNL     1      29.673   1.477  55.351  1.00  0.00     0.084 HD
HETATM   15  H8  UNL     1      28.054  -1.110  55.396  1.00  0.00     0.166 HD
ENDROOT
BRANCH   1  16
HETATM   16  N1  UNL     1      26.263   2.850  52.154  1.00  0.00    -0.385 N 
HETATM   17  H5  UNL     1      25.760   3.646  52.625  1.00  0.00     0.160 HD
BRANCH  16  18
HETATM   18  C5  UNL     1      26.489   2.555  50.737  1.00  0.00     0.158 C 
BRANCH  18  19
HETATM   19  C4  UNL     1      26.312   3.809  49.937  1.00  0.00    -0.041 A 
HETATM   20  C3  UNL     1      27.281   4.467  49.212  1.00  0.00     0.010 A 
HETATM   21  C2  UNL     1      26.956   5.614  48.528  1.00  0.00     0.024 A 
HETATM   22  C1  UNL     1      25.689   6.160  48.524  1.00  0.00     0.034 A 
HETATM   23 CL1  UNL     1      25.341   7.620  47.635  1.00  0.00    -0.084 Cl
HETATM   24  C17 UNL     1      24.744   5.476  49.260  1.00  0.00     0.024 A 
HETATM   25  C16 UNL     1      25.020   4.311  49.970  1.00  0.00     0.010 A 
ENDBRANCH  18  19
ENDBRANCH  16  18
ENDBRANCH   1  16
TORSDOF 3
ENDMDL
MODEL 2
REMARK VINA RESULT:      -9.0      2.098      3.649
REMARK  3 active torsions:
REMARK  status: ('A' for Active; 'I' for Inactive)
REMARK    1  A    between atoms: C4_5  and  C5_6 
REMARK    2  A    between atoms: C5_6  and  N1_7 
REMARK    3  A    between atoms: N1_7  and  C6_8 
ROOT
HETATM    1  C6  UNL     1      24.348   2.002  52.772  1.00  0.00     0.045 A 
HETATM    2  C7  UNL     1      23.071   1.777  52.558  1.00  0.00     0.055 A 
HETATM    3  P1  UNL     1      22.379   0.185  53.120  1.00  0.00    -0.002 P 
HETATM    4  N2  UNL     1      23.744  -0.701  53.867  1.00  0.00    -0.344 N 
HETATM    5  C8  UNL     1      25.006  -0.063  53.886  1.00  0.00     0.161 A 
HETATM    6  O1  UNL     1      26.101  -0.577  54.394  1.00  0.00    -0.292 OA
HETATM    7  C9  UNL     1      27.124   0.204  54.289  1.00  0.00     0.089 A 
HETATM    8  C10 UNL     1      28.443   0.060  54.683  1.00  0.00     0.038 A 
HETATM    9  C11 UNL     1      29.351   1.071  54.442  1.00  0.00     0.003 A 
HETATM   10  C12 UNL     1      28.903   2.227  53.798  1.00  0.00     0.001 A 
HETATM   11  C13 UNL     1      27.587   2.355  53.413  1.00  0.00     0.015 A 
HETATM   12  C14 UNL     1      26.694   1.350  53.654  1.00  0.00     0.015 A 
HETATM   13  C15 UNL     1      25.352   1.172  53.403  1.00  0.00     0.055 A 
HETATM   14  H7  UNL     1      21.777  -0.559  52.030  1.00  0.00     0.084 HD
HETATM   15  H8  UNL     1      23.566  -1.641  54.255  1.00  0.00     0.166 HD
ENDROOT
BRANCH   1  16
HETATM   16  N1  UNL     1      24.781   3.268  52.296  1.00  0.00    -0.385 N 
HETATM   17  H5  UNL     1      25.400   3.834  52.932  1.00  0.00     0.160 HD
BRANCH  16  18
HETATM   18  C5  UNL     1      24.259   3.549  50.956  1.00  0.00     0.158 C 
BRANCH  18  19
HETATM   19  C4  UNL     1      25.321   4.224  50.145  1.00  0.00    -0.041 A 
HETATM   20  C3  UNL     1      26.476   3.651  49.660  1.00  0.00     0.010 A 
HETATM   21  C2  UNL     1      27.356   4.412  48.927  1.00  0.00     0.024 A 
HETATM   22  C1  UNL     1      27.147   5.744  48.640  1.00  0.00     0.034 A 
HETATM   23 CL1  UNL     1      28.304   6.654  47.703  1.00  0.00    -0.084 Cl
HETATM   24  C17 UNL     1      25.982   6.286  49.140  1.00  0.00     0.024 A 
HETATM   25  C16 UNL     1      25.058   5.561  49.887  1.00  0.00     0.010 A 
ENDBRANCH  18  19
ENDBRANCH  16  18
ENDBRANCH   1  16
TORSDOF 3
ENDMDL
MODEL 3
REMARK VINA RESULT:      -8.5      2.632      3.145
REMARK  3 active torsions:
REMARK  status: ('A' for Active; 'I' for Inactive)
REMARK    1  A    between atoms: C4_5  and  C5_6 
REMARK    2  A    between atoms: C5_6  and  N1_7 
REMARK    3  A    between atoms: N1_7  and  C6_8 
ROOT
HETATM    1  C6  UNL     1      26.331   0.923  52.647  1.00  0.00     0.045 A 
HETATM    2  C7  UNL     1      27.592   1.288  52.585  1.00  0.00     0.055 A 
HETATM    3  P1  UNL     1      28.689   0.806  53.962  1.00  0.00    -0.002 P 
HETATM    4  N2  UNL     1      27.657  -0.106  55.107  1.00  0.00    -0.344 N 
HETATM    5  C8  UNL     1      26.294  -0.274  54.769  1.00  0.00     0.161 A 
HETATM    6  O1  UNL     1      25.411  -0.914  55.498  1.00  0.00    -0.292 OA
HETATM    7  C9  UNL     1      24.232  -0.929  54.972  1.00  0.00     0.089 A 
HETATM    8  C10 UNL     1      23.036  -1.480  55.396  1.00  0.00     0.038 A 
HETATM    9  C11 UNL     1      21.900  -1.345  54.623  1.00  0.00     0.003 A 
HETATM   10  C12 UNL     1      21.995  -0.646  53.417  1.00  0.00     0.001 A 
HETATM   11  C13 UNL     1      23.194  -0.103  53.010  1.00  0.00     0.015 A 
HETATM   12  C14 UNL     1      24.314  -0.240  53.780  1.00  0.00     0.015 A 
HETATM   13  C15 UNL     1      25.623   0.171  53.660  1.00  0.00     0.055 A 
HETATM   14  H7  UNL     1      29.313   1.956  54.586  1.00  0.00     0.084 HD
HETATM   15  H8  UNL     1      28.088  -0.474  55.969  1.00  0.00     0.166 HD
ENDROOT
BRANCH   1  16
HETATM   16  N1  UNL     1      25.570   1.350  51.526  1.00  0.00    -0.385 N 
HETATM   17  H5  UNL     1      25.300   0.615  50.822  1.00  0.00     0.160 HD
BRANCH  16  18
HETATM   18  C5  UNL     1      25.297   2.789  51.574  1.00  0.00     0.158 C 
BRANCH  18  19
HETATM   19  C4  UNL     1      23.828   3.018  51.404  1.00  0.00    -0.041 A 
HETATM   20  C3  UNL     1      23.023   2.504  50.411  1.00  0.00     0.010 A 
HETATM   21  C2  UNL     1      21.684   2.812  50.395  1.00  0.00     0.024 A 
HETATM   22  C1  UNL     1      21.082   3.624  51.334  1.00  0.00     0.034 A 
HETATM   23 CL1  UNL     1      19.375   3.977  51.257  1.00  0.00    -0.084 Cl
HETATM   24  C17 UNL     1      21.916   4.121  52.313  1.00  0.00     0.024 A 
HETATM   25  C16 UNL     1      23.278   3.841  52.375  1.00  0.00     0.010 A 
ENDBRANCH  18  19
ENDBRANCH  16  18
ENDBRANCH   1  16
TORSDOF 3
ENDMDL
MODEL 4
REMARK VINA RESULT:      -8.3      4.100      5.666
REMARK  3 active torsions:
REMARK  status: ('A' for Active; 'I' for Inactive)
REMARK    1  A    between atoms: C4_5  and  C5_6 
REMARK    2  A    between atoms: C5_6  and  N1_7 
REMARK    3  A    between atoms: N1_7  and  C6_8 
ROOT
HETATM    1  C6  UNL     1      23.386   2.641  51.693  1.00  0.00     0.045 A 
HETATM    2  C7  UNL     1      23.506   3.822  51.130  1.00  0.00     0.055 A 
HETATM    3  P1  UNL     1      22.049   4.921  51.131  1.00  0.00    -0.002 P 
HETATM    4  N2  UNL     1      20.754   4.008  51.967  1.00  0.00    -0.344 N 
HETATM    5  C8  UNL     1      21.067   2.711  52.436  1.00  0.00     0.161 A 
HETATM    6  O1  UNL     1      20.233   1.917  53.065  1.00  0.00    -0.292 OA
HETATM    7  C9  UNL     1      20.758   0.784  53.392  1.00  0.00     0.089 A 
HETATM    8  C10 UNL     1      20.245  -0.319  54.050  1.00  0.00     0.038 A 
HETATM    9  C11 UNL     1      21.041  -1.424  54.273  1.00  0.00     0.003 A 
HETATM   10  C12 UNL     1      22.362  -1.395  53.819  1.00  0.00     0.001 A 
HETATM   11  C13 UNL     1      22.858  -0.288  53.164  1.00  0.00     0.015 A 
HETATM   12  C14 UNL     1      22.063   0.802  52.947  1.00  0.00     0.015 A 
HETATM   13  C15 UNL     1      22.250   2.026  52.344  1.00  0.00     0.055 A 
HETATM   14  H7  UNL     1      21.662   5.310  49.789  1.00  0.00     0.084 HD
HETATM   15  H8  UNL     1      19.831   4.456  52.077  1.00  0.00     0.166 HD
ENDROOT
BRANCH   1  16
HETATM   16  N1  UNL     1      24.578   1.871  51.636  1.00  0.00    -0.385 N 
HETATM   17  H5  UNL     1      24.481   0.856  51.371  1.00  0.00     0.160 HD
BRANCH  16  18
HETATM   18  C5  UNL     1      25.757   2.673  51.970  1.00  0.00     0.158 C 
BRANCH  18  19
HETATM   19  C4  UNL     1      26.836   1.774  52.489  1.00  0.00    -0.041 A 
HETATM   20  C3  UNL     1      27.982   2.158  53.149  1.00  0.00     0.010 A 
HETATM   21  C2  UNL     1      28.879   1.203  53.564  1.00  0.00     0.024 A 
HETATM   22  C1  UNL     1      28.696  -0.148  53.357  1.00  0.00     0.034 A 
HETATM   23 CL1  UNL     1      29.874  -1.311  53.910  1.00  0.00    -0.084 Cl
HETATM   24  C17 UNL     1      27.538  -0.498  52.694  1.00  0.00     0.024 A 
HETATM   25  C16 UNL     1      26.598   0.428  52.252  1.00  0.00     0.010 A 
ENDBRANCH  18  19
ENDBRANCH  16  18
ENDBRANCH   1  16
TORSDOF 3
ENDMDL
MODEL 5
REMARK VINA RESULT:      -8.3      3.926      6.645
REMARK  3 active torsions:
REMARK  status: ('A' for Active; 'I' for Inactive)
REMARK    1  A    between atoms: C4_5  and  C5_6 
REMARK    2  A    between atoms: C5_6  and  N1_7 
REMARK    3  A    between atoms: N1_7  and  C6_8 
ROOT
HETATM    1  C6  UNL     1      22.690   1.147  52.823  1.00  0.00     0.045 A 
HETATM    2  C7  UNL     1      21.501   0.736  53.202  1.00  0.00     0.055 A 
HETATM    3  P1  UNL     1      20.086   1.086  52.104  1.00  0.00    -0.002 P 
HETATM    4  N2  UNL     1      20.768   1.965  50.700  1.00  0.00    -0.344 N 
HETATM    5  C8  UNL     1      22.161   2.209  50.695  1.00  0.00     0.161 A 
HETATM    6  O1  UNL     1      22.811   2.837  49.744  1.00  0.00    -0.292 OA
HETATM    7  C9  UNL     1      24.078   2.932  49.972  1.00  0.00     0.089 A 
HETATM    8  C10 UNL     1      25.109   3.504  49.247  1.00  0.00     0.038 A 
HETATM    9  C11 UNL     1      26.400   3.464  49.733  1.00  0.00     0.003 A 
HETATM   10  C12 UNL     1      26.631   2.839  50.961  1.00  0.00     0.001 A 
HETATM   11  C13 UNL     1      25.593   2.275  51.670  1.00  0.00     0.015 A 
HETATM   12  C14 UNL     1      24.317   2.318  51.183  1.00  0.00     0.015 A 
HETATM   13  C15 UNL     1      23.098   1.863  51.633  1.00  0.00     0.055 A 
HETATM   14  H7  UNL     1      19.054   1.851  52.777  1.00  0.00     0.084 HD
HETATM   15  H8  UNL     1      20.126   2.262  49.948  1.00  0.00     0.166 HD
ENDROOT
BRANCH   1  16
HETATM   16  N1  UNL     1      23.716   0.822  53.749  1.00  0.00    -0.385 N 
HETATM   17  H5  UNL     1      24.042   1.589  54.393  1.00  0.00     0.160 HD
BRANCH  16  18
HETATM   18  C5  UNL     1      24.137  -0.576  53.623  1.00  0.00     0.158 C 
BRANCH  18  19
HETATM   19  C4  UNL     1      25.631  -0.637  53.548  1.00  0.00    -0.041 A 
HETATM   20  C3  UNL     1      26.381  -1.338  52.630  1.00  0.00     0.010 A 
HETATM   21  C2  UNL     1      27.753  -1.291  52.697  1.00  0.00     0.024 A 
HETATM   22  C1  UNL     1      28.441  -0.567  53.649  1.00  0.00     0.034 A 
HETATM   23 CL1  UNL     1      30.185  -0.548  53.679  1.00  0.00    -0.084 Cl
HETATM   24  C17 UNL     1      27.659   0.123  54.551  1.00  0.00     0.024 A 
HETATM   25  C16 UNL     1      26.267   0.109  54.528  1.00  0.00     0.010 A 
ENDBRANCH  18  19
ENDBRANCH  16  18
ENDBRANCH   1  16
TORSDOF 3
ENDMDL
MODEL 6
REMARK VINA RESULT:      -8.2      2.850      4.052
REMARK  3 active torsions:
REMARK  status: ('A' for Active; 'I' for Inactive)
REMARK    1  A    between atoms: C4_5  and  C5_6 
REMARK    2  A    between atoms: C5_6  and  N1_7 
REMARK    3  A    between atoms: N1_7  and  C6_8 
ROOT
HETATM    1  C6  UNL     1      22.367   2.261  51.903  1.00  0.00     0.045 A 
HETATM    2  C7  UNL     1      21.124   2.242  51.477  1.00  0.00     0.055 A 
HETATM    3  P1  UNL     1      20.109   0.777  51.870  1.00  0.00    -0.002 P 
HETATM    4  N2  UNL     1      21.177  -0.317  52.803  1.00  0.00    -0.344 N 
HETATM    5  C8  UNL     1      22.502   0.113  53.047  1.00  0.00     0.161 A 
HETATM    6  O1  UNL     1      23.405  -0.569  53.711  1.00  0.00    -0.292 OA
HETATM    7  C9  UNL     1      24.539   0.040  53.798  1.00  0.00     0.089 A 
HETATM    8  C10 UNL     1      25.735  -0.313  54.397  1.00  0.00     0.038 A 
HETATM    9  C11 UNL     1      26.817   0.543  54.338  1.00  0.00     0.003 A 
HETATM   10  C12 UNL     1      26.668   1.758  53.666  1.00  0.00     0.001 A 
HETATM   11  C13 UNL     1      25.470   2.094  53.074  1.00  0.00     0.015 A 
HETATM   12  C14 UNL     1      24.404   1.242  53.137  1.00  0.00     0.015 A 
HETATM   13  C15 UNL     1      23.111   1.280  52.664  1.00  0.00     0.055 A 
HETATM   14  H7  UNL     1      19.588   0.142  50.675  1.00  0.00     0.084 HD
HETATM   15  H8  UNL     1      20.793  -1.218  53.128  1.00  0.00     0.166 HD
ENDROOT
BRANCH   1  16
HETATM   16  N1  UNL     1      23.064   3.444  51.543  1.00  0.00    -0.385 N 
HETATM   17  H5  UNL     1      23.510   3.995  52.322  1.00  0.00     0.160 HD
BRANCH  16  18
HETATM   18  C5  UNL     1      23.024   3.677  50.097  1.00  0.00     0.158 C 
BRANCH  18  19
HETATM   19  C4  UNL     1      24.354   4.192  49.643  1.00  0.00    -0.041 A 
HETATM   20  C3  UNL     1      24.617   5.432  49.103  1.00  0.00     0.010 A 
HETATM   21  C2  UNL     1      25.901   5.753  48.734  1.00  0.00     0.024 A 
HETATM   22  C1  UNL     1      26.968   4.891  48.875  1.00  0.00     0.034 A 
HETATM   23 CL1  UNL     1      28.576   5.360  48.387  1.00  0.00    -0.084 Cl
HETATM   24  C17 UNL     1      26.670   3.659  49.419  1.00  0.00     0.024 A 
HETATM   25  C16 UNL     1      25.388   3.283  49.809  1.00  0.00     0.010 A 
ENDBRANCH  18  19
ENDBRANCH  16  18
ENDBRANCH   1  16
TORSDOF 3
ENDMDL
MODEL 7
REMARK VINA RESULT:      -8.1      4.078      6.482
REMARK  3 active torsions:
REMARK  status: ('A' for Active; 'I' for Inactive)
REMARK    1  A    between atoms: C4_5  and  C5_6 
REMARK    2  A    between atoms: C5_6  and  N1_7 
REMARK    3  A    between atoms: N1_7  and  C6_8 
ROOT
HETATM    1  C6  UNL     1      23.824   3.022  51.210  1.00  0.00     0.045 A 
HETATM    2  C7  UNL     1      23.541   4.110  50.529  1.00  0.00     0.055 A 
HETATM    3  P1  UNL     1      24.928   5.063  49.824  1.00  0.00    -0.002 P 
HETATM    4  N2  UNL     1      26.413   4.178  50.295  1.00  0.00    -0.344 N 
HETATM    5  C8  UNL     1      26.256   3.001  51.063  1.00  0.00     0.161 A 
HETATM    6  O1  UNL     1      27.240   2.242  51.487  1.00  0.00    -0.292 OA
HETATM    7  C9  UNL     1      26.838   1.223  52.169  1.00  0.00     0.089 A 
HETATM    8  C10 UNL     1      27.526   0.193  52.786  1.00  0.00     0.038 A 
HETATM    9  C11 UNL     1      26.834  -0.790  53.465  1.00  0.00     0.003 A 
HETATM   10  C12 UNL     1      25.440  -0.714  53.508  1.00  0.00     0.001 A 
HETATM   11  C13 UNL     1      24.771   0.318  52.888  1.00  0.00     0.015 A 
HETATM   12  C14 UNL     1      25.462   1.288  52.218  1.00  0.00     0.015 A 
HETATM   13  C15 UNL     1      25.102   2.417  51.516  1.00  0.00     0.055 A 
HETATM   14  H7  UNL     1      24.938   6.434  50.295  1.00  0.00     0.084 HD
HETATM   15  H8  UNL     1      27.324   4.555  49.994  1.00  0.00     0.166 HD
ENDROOT
BRANCH   1  16
HETATM   16  N1  UNL     1      22.673   2.360  51.712  1.00  0.00    -0.385 N 
HETATM   17  H5  UNL     1      22.424   2.528  52.721  1.00  0.00     0.160 HD
BRANCH  16  18
HETATM   18  C5  UNL     1      22.029   1.539  50.683  1.00  0.00     0.158 C 
BRANCH  18  19
HETATM   19  C4  UNL     1      20.844   0.843  51.277  1.00  0.00    -0.041 A 
HETATM   20  C3  UNL     1      19.605   0.686  50.696  1.00  0.00     0.010 A 
HETATM   21  C2  UNL     1      18.616   0.017  51.377  1.00  0.00     0.024 A 
HETATM   22  C1  UNL     1      18.793  -0.520  52.635  1.00  0.00     0.034 A 
HETATM   23 CL1  UNL     1      17.496  -1.358  53.446  1.00  0.00    -0.084 Cl
HETATM   24  C17 UNL     1      20.045  -0.345  53.186  1.00  0.00     0.024 A 
HETATM   25  C16 UNL     1      21.080   0.324  52.540  1.00  0.00     0.010 A 
ENDBRANCH  18  19
ENDBRANCH  16  18
ENDBRANCH   1  16
TORSDOF 3
ENDMDL
MODEL 8
REMARK VINA RESULT:      -7.6      3.974      5.777
REMARK  3 active torsions:
REMARK  status: ('A' for Active; 'I' for Inactive)
REMARK    1  A    between atoms: C4_5  and  C5_6 
REMARK    2  A    between atoms: C5_6  and  N1_7 
REMARK    3  A    between atoms: N1_7  and  C6_8 
ROOT
HETATM    1  C6  UNL     1      24.605   4.273  50.446  1.00  0.00     0.045 A 
HETATM    2  C7  UNL     1      25.233   5.390  50.156  1.00  0.00     0.055 A 
HETATM    3  P1  UNL     1      24.462   6.962  50.671  1.00  0.00    -0.002 P 
HETATM    4  N2  UNL     1      22.938   6.508  51.496  1.00  0.00    -0.344 N 
HETATM    5  C8  UNL     1      22.632   5.130  51.592  1.00  0.00     0.161 A 
HETATM    6  O1  UNL     1      21.559   4.636  52.163  1.00  0.00    -0.292 OA
HETATM    7  C9  UNL     1      21.509   3.347  52.122  1.00  0.00     0.089 A 
HETATM    8  C10 UNL     1      20.576   2.441  52.593  1.00  0.00     0.038 A 
HETATM    9  C11 UNL     1      20.773   1.087  52.409  1.00  0.00     0.003 A 
HETATM   10  C12 UNL     1      21.927   0.666  51.744  1.00  0.00     0.001 A 
HETATM   11  C13 UNL     1      22.847   1.582  51.280  1.00  0.00     0.015 A 
HETATM   12  C14 UNL     1      22.645   2.921  51.465  1.00  0.00     0.015 A 
HETATM   13  C15 UNL     1      23.350   4.056  51.134  1.00  0.00     0.055 A 
HETATM   14  H7  UNL     1      24.230   7.846  49.545  1.00  0.00     0.084 HD
HETATM   15  H8  UNL     1      22.340   7.260  51.869  1.00  0.00     0.166 HD
ENDROOT
BRANCH   1  16
HETATM   16  N1  UNL     1      25.292   3.113  50.001  1.00  0.00    -0.385 N 
HETATM   17  H5  UNL     1      24.837   2.549  49.237  1.00  0.00     0.160 HD
BRANCH  16  18
HETATM   18  C5  UNL     1      26.552   2.919  50.724  1.00  0.00     0.158 C 
BRANCH  18  19
HETATM   19  C4  UNL     1      26.303   2.071  51.933  1.00  0.00    -0.041 A 
HETATM   20  C3  UNL     1      26.065   2.514  53.215  1.00  0.00     0.010 A 
HETATM   21  C2  UNL     1      25.853   1.600  54.220  1.00  0.00     0.024 A 
HETATM   22  C1  UNL     1      25.865   0.236  54.019  1.00  0.00     0.034 A 
HETATM   23 CL1  UNL     1      25.589  -0.871  55.338  1.00  0.00    -0.084 Cl
HETATM   24  C17 UNL     1      26.106  -0.172  52.724  1.00  0.00     0.024 A 
HETATM   25  C16 UNL     1      26.325   0.710  51.670  1.00  0.00     0.010 A 
ENDBRANCH  18  19
ENDBRANCH  16  18
ENDBRANCH   1  16
TORSDOF 3
ENDMDL
MODEL 9
REMARK VINA RESULT:      -7.6      3.230      4.347
REMARK  3 active torsions:
REMARK  status: ('A' for Active; 'I' for Inactive)
REMARK    1  A    between atoms: C4_5  and  C5_6 
REMARK    2  A    between atoms: C5_6  and  N1_7 
REMARK    3  A    between atoms: N1_7  and  C6_8 
ROOT
HETATM    1  C6  UNL     1      22.558   3.340  50.733  1.00  0.00     0.045 A 
HETATM    2  C7  UNL     1      21.454   3.976  50.413  1.00  0.00     0.055 A 
HETATM    3  P1  UNL     1      19.904   3.458  51.225  1.00  0.00    -0.002 P 
HETATM    4  N2  UNL     1      20.356   2.116  52.321  1.00  0.00    -0.344 N 
HETATM    5  C8  UNL     1      21.716   1.731  52.357  1.00  0.00     0.161 A 
HETATM    6  O1  UNL     1      22.206   0.769  53.104  1.00  0.00    -0.292 OA
HETATM    7  C9  UNL     1      23.479   0.612  52.958  1.00  0.00     0.089 A 
HETATM    8  C10 UNL     1      24.376  -0.267  53.539  1.00  0.00     0.038 A 
HETATM    9  C11 UNL     1      25.712  -0.219  53.195  1.00  0.00     0.003 A 
HETATM   10  C12 UNL     1      26.124   0.729  52.256  1.00  0.00     0.001 A 
HETATM   11  C13 UNL     1      25.218   1.597  51.687  1.00  0.00     0.015 A 
HETATM   12  C14 UNL     1      23.897   1.544  52.032  1.00  0.00     0.015 A 
HETATM   13  C15 UNL     1      22.774   2.248  51.657  1.00  0.00     0.055 A 
HETATM   14  H7  UNL     1      18.894   3.061  50.263  1.00  0.00     0.084 HD
HETATM   15  H8  UNL     1      19.614   1.671  52.884  1.00  0.00     0.166 HD
ENDROOT
BRANCH   1  16
HETATM   16  N1  UNL     1      23.701   3.823  50.044  1.00  0.00    -0.385 N 
HETATM   17  H5  UNL     1      23.982   3.316  49.165  1.00  0.00     0.160 HD
BRANCH  16  18
HETATM   18  C5  UNL     1      24.290   4.982  50.720  1.00  0.00     0.158 C 
BRANCH  18  19
HETATM   19  C4  UNL     1      25.473   5.462  49.937  1.00  0.00    -0.041 A 
HETATM   20  C3  UNL     1      25.807   6.771  49.669  1.00  0.00     0.010 A 
HETATM   21  C2  UNL     1      26.933   7.046  48.931  1.00  0.00     0.024 A 
HETATM   22  C1  UNL     1      27.769   6.070  48.430  1.00  0.00     0.034 A 
HETATM   23 CL1  UNL     1      29.184   6.486  47.500  1.00  0.00    -0.084 Cl
HETATM   24  C17 UNL     1      27.405   4.771  48.718  1.00  0.00     0.024 A 
HETATM   25  C16 UNL     1      26.276   4.437  49.460  1.00  0.00     0.010 A 
ENDBRANCH  18  19
ENDBRANCH  16  18
ENDBRANCH   1  16
TORSDOF 3
ENDMDL
