MODEL 1
REMARK VINA RESULT:      -8.6      0.000      0.000
REMARK  9 active torsions:
REMARK  status: ('A' for Active; 'I' for Inactive)
REMARK    1  A    between atoms: C5_5  and  N1_6 
REMARK       I    between atoms: N1_6  and  C6_7 
REMARK    2  A    between atoms: C6_7  and  C7_9 
REMARK    3  A    between atoms: C7_9  and  C8_10 
REMARK    4  A    between atoms: C7_9  and  C18_22 
REMARK    5  A    between atoms: N2_11  and  C9_12 
REMARK    6  A    between atoms: C9_12  and  S1_14 
REMARK    7  A    between atoms: S1_14  and  C11_15 
REMARK    8  A    between atoms: C11_15  and  C12_16 
REMARK    9  A    between atoms: C18_22  and  C19_23 
ROOT
HETATM    1  C7  UNL     1      25.381   0.257  53.458  1.00  0.00     0.124 C 
ENDROOT
BRANCH   1   2
HETATM    2  C6  UNL     1      25.195   1.586  52.729  1.00  0.00     0.231 C 
HETATM    3  N1  UNL     1      25.036   1.627  51.348  1.00  0.00    -0.327 N 
HETATM    4  H6  UNL     1      24.858   0.816  50.717  1.00  0.00     0.169 HD
HETATM    5  O1  UNL     1      25.165   2.772  53.183  1.00  0.00    -0.272 OA
BRANCH   3   6
HETATM    6  C5  UNL     1      25.086   2.998  50.944  1.00  0.00     0.034 A 
HETATM    7  C4  UNL     1      24.579   4.237  50.895  1.00  0.00     0.030 A 
HETATM    8  C3  UNL     1      25.091   5.248  50.154  1.00  0.00     0.009 A 
HETATM    9  C2  UNL     1      26.171   5.099  49.384  1.00  0.00    -0.062 A 
HETATM   10  C1  UNL     1      26.650   6.321  48.577  1.00  0.00     0.048 C 
HETATM   11  C25 UNL     1      26.816   3.914  49.323  1.00  0.00     0.009 A 
HETATM   12  C24 UNL     1      26.281   2.851  50.116  1.00  0.00     0.030 A 
ENDBRANCH   3   6
ENDBRANCH   1   2
BRANCH   1  13
HETATM   13  C8  UNL     1      24.112  -0.392  53.715  1.00  0.00     0.099 C 
HETATM   14  N2  UNL     1      23.043   0.073  53.044  1.00  0.00    -0.290 NA
BRANCH  14  15
HETATM   15  C9  UNL     1      21.771  -0.589  53.288  1.00  0.00     0.164 C 
HETATM   16  C10 UNL     1      21.557  -0.664  54.769  1.00  0.00     0.046 C 
BRANCH  15  17
HETATM   17  S1  UNL     1      20.483   0.305  52.410  1.00  0.00    -0.138 SA
BRANCH  17  18
HETATM   18  C11 UNL     1      20.918   2.064  52.172  1.00  0.00     0.114 C 
BRANCH  18  19
HETATM   19  C12 UNL     1      21.306   2.298  50.809  1.00  0.00    -0.049 A 
HETATM   20  C13 UNL     1      21.911   1.509  49.833  1.00  0.00     0.008 A 
HETATM   21  C14 UNL     1      22.296   1.822  48.551  1.00  0.00     0.001 A 
HETATM   22  C15 UNL     1      22.068   3.098  48.140  1.00  0.00     0.000 A 
HETATM   23  C16 UNL     1      21.465   3.977  49.021  1.00  0.00     0.001 A 
HETATM   24  C17 UNL     1      21.106   3.589  50.270  1.00  0.00     0.008 A 
ENDBRANCH  18  19
ENDBRANCH  17  18
ENDBRANCH  15  17
ENDBRANCH  14  15
ENDBRANCH   1  13
BRANCH   1  25
HETATM   25  C18 UNL     1      26.154  -0.556  52.384  1.00  0.00     0.084 C 
BRANCH  25  26
HETATM   26  C19 UNL     1      27.397  -1.104  52.922  1.00  0.00     0.054 C 
HETATM   27  C20 UNL     1      28.304  -0.312  53.367  1.00  0.00    -0.015 A 
HETATM   28  C21 UNL     1      29.375   0.490  53.884  1.00  0.00     0.002 A 
HETATM   29  C22 UNL     1      29.708  -0.846  53.677  1.00  0.00     0.047 A 
HETATM   30  C23 UNL     1      29.269  -2.241  53.294  1.00  0.00     0.195 C 
HETATM   31  O2  UNL     1      27.971  -2.260  53.163  1.00  0.00    -0.353 OA
ENDBRANCH  25  26
ENDBRANCH   1  25
TORSDOF 9
ENDMDL
MODEL 2
REMARK VINA RESULT:      -8.5      2.384      6.303
REMARK  9 active torsions:
REMARK  status: ('A' for Active; 'I' for Inactive)
REMARK    1  A    between atoms: C5_5  and  N1_6 
REMARK       I    between atoms: N1_6  and  C6_7 
REMARK    2  A    between atoms: C6_7  and  C7_9 
REMARK    3  A    between atoms: C7_9  and  C8_10 
REMARK    4  A    between atoms: C7_9  and  C18_22 
REMARK    5  A    between atoms: N2_11  and  C9_12 
REMARK    6  A    between atoms: C9_12  and  S1_14 
REMARK    7  A    between atoms: S1_14  and  C11_15 
REMARK    8  A    between atoms: C11_15  and  C12_16 
REMARK    9  A    between atoms: C18_22  and  C19_23 
ROOT
HETATM    1  C7  UNL     1      23.093   2.502  52.676  1.00  0.00     0.124 C 
ENDROOT
BRANCH   1   2
HETATM    2  C6  UNL     1      24.586   2.323  52.946  1.00  0.00     0.231 C 
HETATM    3  N1  UNL     1      25.432   1.810  51.968  1.00  0.00    -0.327 N 
HETATM    4  H6  UNL     1      25.205   1.666  50.961  1.00  0.00     0.169 HD
HETATM    5  O1  UNL     1      25.264   2.567  53.991  1.00  0.00    -0.272 OA
BRANCH   3   6
HETATM    6  C5  UNL     1      26.706   1.577  52.574  1.00  0.00     0.034 A 
HETATM    7  C4  UNL     1      27.877   2.001  53.067  1.00  0.00     0.030 A 
HETATM    8  C3  UNL     1      28.889   1.187  53.450  1.00  0.00     0.009 A 
HETATM    9  C2  UNL     1      28.814  -0.143  53.363  1.00  0.00    -0.062 A 
HETATM   10  C1  UNL     1      30.038  -0.961  53.817  1.00  0.00     0.048 C 
HETATM   11  C25 UNL     1      27.697  -0.741  52.895  1.00  0.00     0.009 A 
HETATM   12  C24 UNL     1      26.624   0.119  52.504  1.00  0.00     0.030 A 
ENDBRANCH   3   6
ENDBRANCH   1   2
BRANCH   1  13
HETATM   13  C8  UNL     1      22.851   3.517  51.672  1.00  0.00     0.099 C 
HETATM   14  N2  UNL     1      23.556   4.658  51.777  1.00  0.00    -0.290 NA
BRANCH  14  15
HETATM   15  C9  UNL     1      23.326   5.672  50.760  1.00  0.00     0.164 C 
HETATM   16  C10 UNL     1      23.979   6.945  51.210  1.00  0.00     0.046 C 
BRANCH  15  17
HETATM   17  S1  UNL     1      23.939   5.056  49.188  1.00  0.00    -0.138 SA
BRANCH  17  18
HETATM   18  C11 UNL     1      25.610   4.333  49.346  1.00  0.00     0.114 C 
BRANCH  18  19
HETATM   19  C12 UNL     1      26.597   5.258  48.863  1.00  0.00    -0.049 A 
HETATM   20  C13 UNL     1      26.553   6.598  48.481  1.00  0.00     0.008 A 
HETATM   21  C14 UNL     1      27.543   7.411  47.981  1.00  0.00     0.001 A 
HETATM   22  C15 UNL     1      28.769   6.849  47.816  1.00  0.00     0.000 A 
HETATM   23  C16 UNL     1      28.940   5.521  48.167  1.00  0.00     0.001 A 
HETATM   24  C17 UNL     1      27.914   4.786  48.662  1.00  0.00     0.008 A 
ENDBRANCH  18  19
ENDBRANCH  17  18
ENDBRANCH  15  17
ENDBRANCH  14  15
ENDBRANCH   1  13
BRANCH   1  25
HETATM   25  C18 UNL     1      22.738   1.112  52.081  1.00  0.00     0.084 C 
BRANCH  25  26
HETATM   26  C19 UNL     1      21.809   0.385  52.944  1.00  0.00     0.054 C 
HETATM   27  C20 UNL     1      22.263  -0.385  53.866  1.00  0.00    -0.015 A 
HETATM   28  C21 UNL     1      22.672  -1.266  54.921  1.00  0.00     0.002 A 
HETATM   29  C22 UNL     1      21.321  -1.354  54.591  1.00  0.00     0.047 A 
HETATM   30  C23 UNL     1      20.153  -0.835  53.784  1.00  0.00     0.195 C 
HETATM   31  O2  UNL     1      20.520   0.243  53.147  1.00  0.00    -0.353 OA
ENDBRANCH  25  26
ENDBRANCH   1  25
TORSDOF 9
ENDMDL
MODEL 3
REMARK VINA RESULT:      -8.5      1.988      5.510
REMARK  9 active torsions:
REMARK  status: ('A' for Active; 'I' for Inactive)
REMARK    1  A    between atoms: C5_5  and  N1_6 
REMARK       I    between atoms: N1_6  and  C6_7 
REMARK    2  A    between atoms: C6_7  and  C7_9 
REMARK    3  A    between atoms: C7_9  and  C8_10 
REMARK    4  A    between atoms: C7_9  and  C18_22 
REMARK    5  A    between atoms: N2_11  and  C9_12 
REMARK    6  A    between atoms: C9_12  and  S1_14 
REMARK    7  A    between atoms: S1_14  and  C11_15 
REMARK    8  A    between atoms: C11_15  and  C12_16 
REMARK    9  A    between atoms: C18_22  and  C19_23 
ROOT
HETATM    1  C7  UNL     1      23.996   2.794  52.872  1.00  0.00     0.124 C 
ENDROOT
BRANCH   1   2
HETATM    2  C6  UNL     1      25.431   2.357  53.160  1.00  0.00     0.231 C 
HETATM    3  N1  UNL     1      26.195   1.726  52.183  1.00  0.00    -0.327 N 
HETATM    4  H6  UNL     1      25.965   1.645  51.170  1.00  0.00     0.169 HD
HETATM    5  O1  UNL     1      26.121   2.459  54.221  1.00  0.00    -0.272 OA
BRANCH   3   6
HETATM    6  C5  UNL     1      27.399   1.267  52.803  1.00  0.00     0.034 A 
HETATM    7  C4  UNL     1      28.604   1.476  53.348  1.00  0.00     0.030 A 
HETATM    8  C3  UNL     1      29.468   0.495  53.703  1.00  0.00     0.009 A 
HETATM    9  C2  UNL     1      29.194  -0.800  53.533  1.00  0.00    -0.062 A 
HETATM   10  C1  UNL     1      30.264  -1.821  53.964  1.00  0.00     0.048 C 
HETATM   11  C25 UNL     1      28.015  -1.191  53.004  1.00  0.00     0.009 A 
HETATM   12  C24 UNL     1      27.098  -0.155  52.642  1.00  0.00     0.030 A 
ENDBRANCH   3   6
ENDBRANCH   1   2
BRANCH   1  13
HETATM   13  C8  UNL     1      23.956   3.966  52.021  1.00  0.00     0.099 C 
HETATM   14  N2  UNL     1      24.926   4.079  51.095  1.00  0.00    -0.290 NA
BRANCH  14  15
HETATM   15  C9  UNL     1      24.878   5.246  50.228  1.00  0.00     0.164 C 
HETATM   16  C10 UNL     1      25.870   5.051  49.122  1.00  0.00     0.046 C 
BRANCH  15  17
HETATM   17  S1  UNL     1      23.188   5.468  49.659  1.00  0.00    -0.138 SA
BRANCH  17  18
HETATM   18  C11 UNL     1      22.721   4.216  48.412  1.00  0.00     0.114 C 
BRANCH  18  19
HETATM   19  C12 UNL     1      21.871   3.221  49.004  1.00  0.00    -0.049 A 
HETATM   20  C13 UNL     1      20.851   3.269  49.952  1.00  0.00     0.008 A 
HETATM   21  C14 UNL     1      20.106   2.256  50.507  1.00  0.00     0.001 A 
HETATM   22  C15 UNL     1      20.386   0.993  50.090  1.00  0.00     0.000 A 
HETATM   23  C16 UNL     1      21.379   0.816  49.142  1.00  0.00     0.001 A 
HETATM   24  C17 UNL     1      22.066   1.870  48.636  1.00  0.00     0.008 A 
ENDBRANCH  18  19
ENDBRANCH  17  18
ENDBRANCH  15  17
ENDBRANCH  14  15
ENDBRANCH   1  13
BRANCH   1  25
HETATM   25  C18 UNL     1      23.476   1.571  52.068  1.00  0.00     0.084 C 
BRANCH  25  26
HETATM   26  C19 UNL     1      23.064   0.486  52.956  1.00  0.00     0.054 C 
HETATM   27  C20 UNL     1      21.903   0.515  53.503  1.00  0.00    -0.015 A 
HETATM   28  C21 UNL     1      20.629   0.459  54.161  1.00  0.00     0.002 A 
HETATM   29  C22 UNL     1      21.562  -0.459  54.637  1.00  0.00     0.047 A 
HETATM   30  C23 UNL     1      22.931  -1.090  54.517  1.00  0.00     0.195 C 
HETATM   31  O2  UNL     1      23.506  -0.656  53.429  1.00  0.00    -0.353 OA
ENDBRANCH  25  26
ENDBRANCH   1  25
TORSDOF 9
ENDMDL
MODEL 4
REMARK VINA RESULT:      -8.3      1.988      3.976
REMARK  9 active torsions:
REMARK  status: ('A' for Active; 'I' for Inactive)
REMARK    1  A    between atoms: C5_5  and  N1_6 
REMARK       I    between atoms: N1_6  and  C6_7 
REMARK    2  A    between atoms: C6_7  and  C7_9 
REMARK    3  A    between atoms: C7_9  and  C8_10 
REMARK    4  A    between atoms: C7_9  and  C18_22 
REMARK    5  A    between atoms: N2_11  and  C9_12 
REMARK    6  A    between atoms: C9_12  and  S1_14 
REMARK    7  A    between atoms: S1_14  and  C11_15 
REMARK    8  A    between atoms: C11_15  and  C12_16 
REMARK    9  A    between atoms: C18_22  and  C19_23 
ROOT
HETATM    1  C7  UNL     1      23.620   3.190  52.016  1.00  0.00     0.124 C 
ENDROOT
BRANCH   1   2
HETATM    2  C6  UNL     1      24.257   4.216  51.079  1.00  0.00     0.231 C 
HETATM    3  N1  UNL     1      24.792   3.829  49.855  1.00  0.00    -0.327 N 
HETATM    4  H6  UNL     1      24.674   2.905  49.388  1.00  0.00     0.169 HD
HETATM    5  O1  UNL     1      24.414   5.468  51.222  1.00  0.00    -0.272 OA
BRANCH   3   6
HETATM    6  C5  UNL     1      25.482   4.955  49.307  1.00  0.00     0.034 A 
HETATM    7  C4  UNL     1      25.509   6.195  48.802  1.00  0.00     0.030 A 
HETATM    8  C3  UNL     1      26.603   6.780  48.260  1.00  0.00     0.009 A 
HETATM    9  C2  UNL     1      27.781   6.159  48.172  1.00  0.00    -0.062 A 
HETATM   10  C1  UNL     1      28.949   6.925  47.521  1.00  0.00     0.048 C 
HETATM   11  C25 UNL     1      27.935   4.903  48.643  1.00  0.00     0.009 A 
HETATM   12  C24 UNL     1      26.781   4.291  49.228  1.00  0.00     0.030 A 
ENDBRANCH   3   6
ENDBRANCH   1   2
BRANCH   1  13
HETATM   13  C8  UNL     1      22.200   3.050  51.766  1.00  0.00     0.099 C 
HETATM   14  N2  UNL     1      21.823   2.835  50.493  1.00  0.00    -0.290 NA
BRANCH  14  15
HETATM   15  C9  UNL     1      20.399   2.677  50.243  1.00  0.00     0.164 C 
HETATM   16  C10 UNL     1      20.215   1.556  49.265  1.00  0.00     0.046 C 
BRANCH  15  17
HETATM   17  S1  UNL     1      19.568   2.416  51.814  1.00  0.00    -0.138 SA
BRANCH  17  18
HETATM   18  C11 UNL     1      19.302   0.640  52.156  1.00  0.00     0.114 C 
BRANCH  18  19
HETATM   19  C12 UNL     1      20.380   0.124  52.952  1.00  0.00    -0.049 A 
HETATM   20  C13 UNL     1      20.645   0.113  54.320  1.00  0.00     0.008 A 
HETATM   21  C14 UNL     1      21.733  -0.367  55.010  1.00  0.00     0.001 A 
HETATM   22  C15 UNL     1      22.729  -0.922  54.270  1.00  0.00     0.000 A 
HETATM   23  C16 UNL     1      22.578  -0.975  52.896  1.00  0.00     0.001 A 
HETATM   24  C17 UNL     1      21.469  -0.486  52.288  1.00  0.00     0.008 A 
ENDBRANCH  18  19
ENDBRANCH  17  18
ENDBRANCH  15  17
ENDBRANCH  14  15
ENDBRANCH   1  13
BRANCH   1  25
HETATM   25  C18 UNL     1      24.341   1.893  51.558  1.00  0.00     0.084 C 
BRANCH  25  26
HETATM   26  C19 UNL     1      25.309   1.442  52.556  1.00  0.00     0.054 C 
HETATM   27  C20 UNL     1      25.977   0.363  52.355  1.00  0.00    -0.015 A 
HETATM   28  C21 UNL     1      26.767  -0.826  52.222  1.00  0.00     0.002 A 
HETATM   29  C22 UNL     1      26.784  -0.266  53.497  1.00  0.00     0.047 A 
HETATM   30  C23 UNL     1      26.377   0.863  54.417  1.00  0.00     0.195 C 
HETATM   31  O2  UNL     1      25.814   1.806  53.711  1.00  0.00    -0.353 OA
ENDBRANCH  25  26
ENDBRANCH   1  25
TORSDOF 9
ENDMDL
MODEL 5
REMARK VINA RESULT:      -8.2      1.960      6.289
REMARK  9 active torsions:
REMARK  status: ('A' for Active; 'I' for Inactive)
REMARK    1  A    between atoms: C5_5  and  N1_6 
REMARK       I    between atoms: N1_6  and  C6_7 
REMARK    2  A    between atoms: C6_7  and  C7_9 
REMARK    3  A    between atoms: C7_9  and  C8_10 
REMARK    4  A    between atoms: C7_9  and  C18_22 
REMARK    5  A    between atoms: N2_11  and  C9_12 
REMARK    6  A    between atoms: C9_12  and  S1_14 
REMARK    7  A    between atoms: S1_14  and  C11_15 
REMARK    8  A    between atoms: C11_15  and  C12_16 
REMARK    9  A    between atoms: C18_22  and  C19_23 
ROOT
HETATM    1  C7  UNL     1      25.010   4.062  49.535  1.00  0.00     0.124 C 
ENDROOT
BRANCH   1   2
HETATM    2  C6  UNL     1      25.916   3.252  50.460  1.00  0.00     0.231 C 
HETATM    3  N1  UNL     1      25.383   2.495  51.498  1.00  0.00    -0.327 N 
HETATM    4  H6  UNL     1      24.377   2.265  51.648  1.00  0.00     0.169 HD
HETATM    5  O1  UNL     1      27.181   3.133  50.470  1.00  0.00    -0.272 OA
BRANCH   3   6
HETATM    6  C5  UNL     1      26.471   2.022  52.295  1.00  0.00     0.034 A 
HETATM    7  C4  UNL     1      27.544   2.221  53.072  1.00  0.00     0.030 A 
HETATM    8  C3  UNL     1      28.372   1.240  53.505  1.00  0.00     0.009 A 
HETATM    9  C2  UNL     1      28.193  -0.044  53.188  1.00  0.00    -0.062 A 
HETATM   10  C1  UNL     1      29.210  -1.065  53.731  1.00  0.00     0.048 C 
HETATM   11  C25 UNL     1      27.151  -0.425  52.418  1.00  0.00     0.009 A 
HETATM   12  C24 UNL     1      26.270   0.610  51.972  1.00  0.00     0.030 A 
ENDBRANCH   3   6
ENDBRANCH   1   2
BRANCH   1  13
HETATM   13  C8  UNL     1      23.610   3.850  49.840  1.00  0.00     0.099 C 
HETATM   14  N2  UNL     1      23.098   2.643  49.539  1.00  0.00    -0.290 NA
BRANCH  14  15
HETATM   15  C9  UNL     1      21.697   2.422  49.860  1.00  0.00     0.164 C 
HETATM   16  C10 UNL     1      21.347   1.012  49.492  1.00  0.00     0.046 C 
BRANCH  15  17
HETATM   17  S1  UNL     1      21.439   2.807  51.596  1.00  0.00    -0.138 SA
BRANCH  17  18
HETATM   18  C11 UNL     1      20.300   1.620  52.394  1.00  0.00     0.114 C 
BRANCH  18  19
HETATM   19  C12 UNL     1      21.046   0.648  53.144  1.00  0.00    -0.049 A 
HETATM   20  C13 UNL     1      20.684  -0.381  54.011  1.00  0.00     0.008 A 
HETATM   21  C14 UNL     1      21.467  -1.249  54.734  1.00  0.00     0.001 A 
HETATM   22  C15 UNL     1      22.813  -1.106  54.611  1.00  0.00     0.000 A 
HETATM   23  C16 UNL     1      23.296  -0.118  53.771  1.00  0.00     0.001 A 
HETATM   24  C17 UNL     1      22.457   0.696  53.083  1.00  0.00     0.008 A 
ENDBRANCH  18  19
ENDBRANCH  17  18
ENDBRANCH  15  17
ENDBRANCH  14  15
ENDBRANCH   1  13
BRANCH   1  25
HETATM   25  C18 UNL     1      25.400   5.509  49.943  1.00  0.00     0.084 C 
BRANCH  25  26
HETATM   26  C19 UNL     1      26.084   6.204  48.854  1.00  0.00     0.054 C 
HETATM   27  C20 UNL     1      27.316   5.940  48.603  1.00  0.00    -0.015 A 
HETATM   28  C21 UNL     1      28.687   5.716  48.247  1.00  0.00     0.002 A 
HETATM   29  C22 UNL     1      28.118   6.843  47.659  1.00  0.00     0.047 A 
HETATM   30  C23 UNL     1      26.893   7.696  47.421  1.00  0.00     0.195 C 
HETATM   31  O2  UNL     1      25.849   7.090  47.916  1.00  0.00    -0.353 OA
ENDBRANCH  25  26
ENDBRANCH   1  25
TORSDOF 9
ENDMDL
MODEL 6
REMARK VINA RESULT:      -8.0      1.626      2.230
REMARK  9 active torsions:
REMARK  status: ('A' for Active; 'I' for Inactive)
REMARK    1  A    between atoms: C5_5  and  N1_6 
REMARK       I    between atoms: N1_6  and  C6_7 
REMARK    2  A    between atoms: C6_7  and  C7_9 
REMARK    3  A    between atoms: C7_9  and  C8_10 
REMARK    4  A    between atoms: C7_9  and  C18_22 
REMARK    5  A    between atoms: N2_11  and  C9_12 
REMARK    6  A    between atoms: C9_12  and  S1_14 
REMARK    7  A    between atoms: S1_14  and  C11_15 
REMARK    8  A    between atoms: C11_15  and  C12_16 
REMARK    9  A    between atoms: C18_22  and  C19_23 
ROOT
HETATM    1  C7  UNL     1      24.985   0.351  53.434  1.00  0.00     0.124 C 
ENDROOT
BRANCH   1   2
HETATM    2  C6  UNL     1      24.682   1.466  52.434  1.00  0.00     0.231 C 
HETATM    3  N1  UNL     1      24.331   2.739  52.869  1.00  0.00    -0.327 N 
HETATM    4  H6  UNL     1      24.403   3.106  53.843  1.00  0.00     0.169 HD
HETATM    5  O1  UNL     1      24.679   1.448  51.164  1.00  0.00    -0.272 OA
BRANCH   3   6
HETATM    6  C5  UNL     1      23.920   3.492  51.725  1.00  0.00     0.034 A 
HETATM    7  C4  UNL     1      24.049   3.868  50.446  1.00  0.00     0.030 A 
HETATM    8  C3  UNL     1      23.328   4.851  49.858  1.00  0.00     0.009 A 
HETATM    9  C2  UNL     1      22.404   5.556  50.513  1.00  0.00    -0.062 A 
HETATM   10  C1  UNL     1      21.659   6.659  49.737  1.00  0.00     0.048 C 
HETATM   11  C25 UNL     1      22.136   5.301  51.812  1.00  0.00     0.009 A 
HETATM   12  C24 UNL     1      22.890   4.253  52.429  1.00  0.00     0.030 A 
ENDBRANCH   3   6
ENDBRANCH   1   2
BRANCH   1  13
HETATM   13  C8  UNL     1      23.846  -0.527  53.615  1.00  0.00     0.099 C 
HETATM   14  N2  UNL     1      22.639  -0.032  53.289  1.00  0.00    -0.290 NA
BRANCH  14  15
HETATM   15  C9  UNL     1      21.496  -0.917  53.453  1.00  0.00     0.164 C 
HETATM   16  C10 UNL     1      21.485  -1.412  54.869  1.00  0.00     0.046 C 
BRANCH  15  17
HETATM   17  S1  UNL     1      20.009  -0.027  52.981  1.00  0.00    -0.138 SA
BRANCH  17  18
HETATM   18  C11 UNL     1      20.375   1.694  52.488  1.00  0.00     0.114 C 
BRANCH  18  19
HETATM   19  C12 UNL     1      20.602   1.765  51.071  1.00  0.00    -0.049 A 
HETATM   20  C13 UNL     1      21.401   1.042  50.188  1.00  0.00     0.008 A 
HETATM   21  C14 UNL     1      21.600   1.201  48.837  1.00  0.00     0.001 A 
HETATM   22  C15 UNL     1      20.930   2.220  48.237  1.00  0.00     0.000 A 
HETATM   23  C16 UNL     1      20.097   3.008  49.011  1.00  0.00     0.001 A 
HETATM   24  C17 UNL     1      19.947   2.782  50.340  1.00  0.00     0.008 A 
ENDBRANCH  18  19
ENDBRANCH  17  18
ENDBRANCH  15  17
ENDBRANCH  14  15
ENDBRANCH   1  13
BRANCH   1  25
HETATM   25  C18 UNL     1      26.100  -0.421  52.677  1.00  0.00     0.084 C 
BRANCH  25  26
HETATM   26  C19 UNL     1      27.429   0.046  53.066  1.00  0.00     0.054 C 
HETATM   27  C20 UNL     1      28.386  -0.798  53.208  1.00  0.00    -0.015 A 
HETATM   28  C21 UNL     1      29.516  -1.662  53.394  1.00  0.00     0.002 A 
HETATM   29  C22 UNL     1      29.699  -0.368  53.874  1.00  0.00     0.047 A 
HETATM   30  C23 UNL     1      29.170   1.041  54.023  1.00  0.00     0.195 C 
HETATM   31  O2  UNL     1      28.072   1.160  53.328  1.00  0.00    -0.353 OA
ENDBRANCH  25  26
ENDBRANCH   1  25
TORSDOF 9
ENDMDL
MODEL 7
REMARK VINA RESULT:      -7.9      2.373      3.290
REMARK  9 active torsions:
REMARK  status: ('A' for Active; 'I' for Inactive)
REMARK    1  A    between atoms: C5_5  and  N1_6 
REMARK       I    between atoms: N1_6  and  C6_7 
REMARK    2  A    between atoms: C6_7  and  C7_9 
REMARK    3  A    between atoms: C7_9  and  C8_10 
REMARK    4  A    between atoms: C7_9  and  C18_22 
REMARK    5  A    between atoms: N2_11  and  C9_12 
REMARK    6  A    between atoms: C9_12  and  S1_14 
REMARK    7  A    between atoms: S1_14  and  C11_15 
REMARK    8  A    between atoms: C11_15  and  C12_16 
REMARK    9  A    between atoms: C18_22  and  C19_23 
ROOT
HETATM    1  C7  UNL     1      25.200   0.475  53.533  1.00  0.00     0.124 C 
ENDROOT
BRANCH   1   2
HETATM    2  C6  UNL     1      25.075   1.782  52.753  1.00  0.00     0.231 C 
HETATM    3  N1  UNL     1      24.886   1.776  51.375  1.00  0.00    -0.327 N 
HETATM    4  H6  UNL     1      24.647   0.951  50.783  1.00  0.00     0.169 HD
HETATM    5  O1  UNL     1      25.124   2.985  53.157  1.00  0.00    -0.272 OA
BRANCH   3   6
HETATM    6  C5  UNL     1      25.007   3.123  50.913  1.00  0.00     0.034 A 
HETATM    7  C4  UNL     1      24.546   4.373  50.775  1.00  0.00     0.030 A 
HETATM    8  C3  UNL     1      25.136   5.331  50.022  1.00  0.00     0.009 A 
HETATM    9  C2  UNL     1      26.254   5.112  49.326  1.00  0.00    -0.062 A 
HETATM   10  C1  UNL     1      26.822   6.278  48.496  1.00  0.00     0.048 C 
HETATM   11  C25 UNL     1      26.861   3.906  49.360  1.00  0.00     0.009 A 
HETATM   12  C24 UNL     1      26.244   2.899  50.167  1.00  0.00     0.030 A 
ENDBRANCH   3   6
ENDBRANCH   1   2
BRANCH   1  13
HETATM   13  C8  UNL     1      23.936  -0.230  53.598  1.00  0.00     0.099 C 
HETATM   14  N2  UNL     1      22.831   0.470  53.282  1.00  0.00    -0.290 NA
BRANCH  14  15
HETATM   15  C9  UNL     1      21.563  -0.241  53.330  1.00  0.00     0.164 C 
HETATM   16  C10 UNL     1      20.803   0.234  54.531  1.00  0.00     0.046 C 
BRANCH  15  17
HETATM   17  S1  UNL     1      20.703   0.017  51.774  1.00  0.00    -0.138 SA
BRANCH  17  18
HETATM   18  C11 UNL     1      19.126   0.911  52.010  1.00  0.00     0.114 C 
BRANCH  18  19
HETATM   19  C12 UNL     1      18.020  -0.000  51.905  1.00  0.00    -0.049 A 
HETATM   20  C13 UNL     1      16.923  -0.086  51.051  1.00  0.00     0.008 A 
HETATM   21  C14 UNL     1      15.872  -0.972  51.042  1.00  0.00     0.001 A 
HETATM   22  C15 UNL     1      15.869  -1.926  52.010  1.00  0.00     0.000 A 
HETATM   23  C16 UNL     1      16.913  -1.947  52.918  1.00  0.00     0.001 A 
HETATM   24  C17 UNL     1      17.920  -1.042  52.856  1.00  0.00     0.008 A 
ENDBRANCH  18  19
ENDBRANCH  17  18
ENDBRANCH  15  17
ENDBRANCH  14  15
ENDBRANCH   1  13
BRANCH   1  25
HETATM   25  C18 UNL     1      26.172  -0.317  52.618  1.00  0.00     0.084 C 
BRANCH  25  26
HETATM   26  C19 UNL     1      27.566  -0.060  52.971  1.00  0.00     0.054 C 
HETATM   27  C20 UNL     1      28.379  -1.044  53.118  1.00  0.00    -0.015 A 
HETATM   28  C21 UNL     1      29.360  -2.073  53.305  1.00  0.00     0.002 A 
HETATM   29  C22 UNL     1      29.757  -0.814  53.749  1.00  0.00     0.047 A 
HETATM   30  C23 UNL     1      29.463   0.663  53.873  1.00  0.00     0.195 C 
HETATM   31  O2  UNL     1      28.384   0.942  53.195  1.00  0.00    -0.353 OA
ENDBRANCH  25  26
ENDBRANCH   1  25
TORSDOF 9
ENDMDL
MODEL 8
REMARK VINA RESULT:      -7.8      2.073      4.889
REMARK  9 active torsions:
REMARK  status: ('A' for Active; 'I' for Inactive)
REMARK    1  A    between atoms: C5_5  and  N1_6 
REMARK       I    between atoms: N1_6  and  C6_7 
REMARK    2  A    between atoms: C6_7  and  C7_9 
REMARK    3  A    between atoms: C7_9  and  C8_10 
REMARK    4  A    between atoms: C7_9  and  C18_22 
REMARK    5  A    between atoms: N2_11  and  C9_12 
REMARK    6  A    between atoms: C9_12  and  S1_14 
REMARK    7  A    between atoms: S1_14  and  C11_15 
REMARK    8  A    between atoms: C11_15  and  C12_16 
REMARK    9  A    between atoms: C18_22  and  C19_23 
ROOT
HETATM    1  C7  UNL     1      26.342   1.250  51.911  1.00  0.00     0.124 C 
ENDROOT
BRANCH   1   2
HETATM    2  C6  UNL     1      24.874   0.927  52.185  1.00  0.00     0.231 C 
HETATM    3  N1  UNL     1      23.862   1.512  51.431  1.00  0.00    -0.327 N 
HETATM    4  H6  UNL     1      23.978   2.054  50.548  1.00  0.00     0.169 HD
HETATM    5  O1  UNL     1      24.352   0.164  53.055  1.00  0.00    -0.272 OA
BRANCH   3   6
HETATM    6  C5  UNL     1      22.615   1.176  52.043  1.00  0.00     0.034 A 
HETATM    7  C4  UNL     1      21.852   0.926  53.115  1.00  0.00     0.030 A 
HETATM    8  C3  UNL     1      20.575   0.476  53.061  1.00  0.00     0.009 A 
HETATM    9  C2  UNL     1      19.947   0.231  51.910  1.00  0.00    -0.062 A 
HETATM   10  C1  UNL     1      18.500  -0.291  51.979  1.00  0.00     0.048 C 
HETATM   11  C25 UNL     1      20.568   0.439  50.728  1.00  0.00     0.009 A 
HETATM   12  C24 UNL     1      21.911   0.927  50.786  1.00  0.00     0.030 A 
ENDBRANCH   3   6
ENDBRANCH   1   2
BRANCH   1  13
HETATM   13  C8  UNL     1      26.518   2.630  51.506  1.00  0.00     0.099 C 
HETATM   14  N2  UNL     1      26.093   2.961  50.273  1.00  0.00    -0.290 NA
BRANCH  14  15
HETATM   15  C9  UNL     1      26.252   4.350  49.871  1.00  0.00     0.164 C 
HETATM   16  C10 UNL     1      27.333   4.418  48.834  1.00  0.00     0.046 C 
BRANCH  15  17
HETATM   17  S1  UNL     1      24.663   4.969  49.307  1.00  0.00    -0.138 SA
BRANCH  17  18
HETATM   18  C11 UNL     1      23.598   5.479  50.703  1.00  0.00     0.114 C 
BRANCH  18  19
HETATM   19  C12 UNL     1      22.290   4.904  50.563  1.00  0.00    -0.049 A 
HETATM   20  C13 UNL     1      21.490   4.589  49.466  1.00  0.00     0.008 A 
HETATM   21  C14 UNL     1      20.216   4.076  49.414  1.00  0.00     0.001 A 
HETATM   22  C15 UNL     1      19.607   3.830  50.604  1.00  0.00     0.000 A 
HETATM   23  C16 UNL     1      20.305   4.097  51.769  1.00  0.00     0.001 A 
HETATM   24  C17 UNL     1      21.566   4.596  51.737  1.00  0.00     0.008 A 
ENDBRANCH  18  19
ENDBRANCH  17  18
ENDBRANCH  15  17
ENDBRANCH  14  15
ENDBRANCH   1  13
BRANCH   1  25
HETATM   25  C18 UNL     1      26.949   1.061  53.328  1.00  0.00     0.084 C 
BRANCH  25  26
HETATM   26  C19 UNL     1      28.107   0.170  53.298  1.00  0.00     0.054 C 
HETATM   27  C20 UNL     1      27.946  -1.076  53.029  1.00  0.00    -0.015 A 
HETATM   28  C21 UNL     1      27.868  -2.479  52.742  1.00  0.00     0.002 A 
HETATM   29  C22 UNL     1      29.094  -2.066  53.260  1.00  0.00     0.047 A 
HETATM   30  C23 UNL     1      29.988  -0.936  53.715  1.00  0.00     0.195 C 
HETATM   31  O2  UNL     1      29.411   0.202  53.441  1.00  0.00    -0.353 OA
ENDBRANCH  25  26
ENDBRANCH   1  25
TORSDOF 9
ENDMDL
MODEL 9
REMARK VINA RESULT:      -7.7      2.378      6.411
REMARK  9 active torsions:
REMARK  status: ('A' for Active; 'I' for Inactive)
REMARK    1  A    between atoms: C5_5  and  N1_6 
REMARK       I    between atoms: N1_6  and  C6_7 
REMARK    2  A    between atoms: C6_7  and  C7_9 
REMARK    3  A    between atoms: C7_9  and  C8_10 
REMARK    4  A    between atoms: C7_9  and  C18_22 
REMARK    5  A    between atoms: N2_11  and  C9_12 
REMARK    6  A    between atoms: C9_12  and  S1_14 
REMARK    7  A    between atoms: S1_14  and  C11_15 
REMARK    8  A    between atoms: C11_15  and  C12_16 
REMARK    9  A    between atoms: C18_22  and  C19_23 
ROOT
HETATM    1  C7  UNL     1      25.913   3.294  50.933  1.00  0.00     0.124 C 
ENDROOT
BRANCH   1   2
HETATM    2  C6  UNL     1      24.443   2.930  51.133  1.00  0.00     0.231 C 
HETATM    3  N1  UNL     1      23.605   2.719  50.043  1.00  0.00    -0.327 N 
HETATM    4  H6  UNL     1      23.894   2.614  49.046  1.00  0.00     0.169 HD
HETATM    5  O1  UNL     1      23.775   2.780  52.202  1.00  0.00    -0.272 OA
BRANCH   3   6
HETATM    6  C5  UNL     1      22.270   2.597  50.538  1.00  0.00     0.034 A 
HETATM    7  C4  UNL     1      21.280   2.942  51.372  1.00  0.00     0.030 A 
HETATM    8  C3  UNL     1      20.093   2.298  51.464  1.00  0.00     0.009 A 
HETATM    9  C2  UNL     1      19.794   1.232  50.720  1.00  0.00    -0.062 A 
HETATM   10  C1  UNL     1      18.415   0.577  50.926  1.00  0.00     0.048 C 
HETATM   11  C25 UNL     1      20.676   0.753  49.816  1.00  0.00     0.009 A 
HETATM   12  C24 UNL     1      21.925   1.443  49.710  1.00  0.00     0.030 A 
ENDBRANCH   3   6
ENDBRANCH   1   2
BRANCH   1  13
HETATM   13  C8  UNL     1      26.788   2.199  51.301  1.00  0.00     0.099 C 
HETATM   14  N2  UNL     1      26.878   1.905  52.610  1.00  0.00    -0.290 NA
BRANCH  14  15
HETATM   15  C9  UNL     1      27.742   0.795  52.980  1.00  0.00     0.164 C 
HETATM   16  C10 UNL     1      28.537   1.200  54.185  1.00  0.00     0.046 C 
BRANCH  15  17
HETATM   17  S1  UNL     1      26.724  -0.663  53.236  1.00  0.00    -0.138 SA
BRANCH  17  18
HETATM   18  C11 UNL     1      25.622  -0.477  54.683  1.00  0.00     0.114 C 
BRANCH  18  19
HETATM   19  C12 UNL     1      24.253  -0.663  54.290  1.00  0.00    -0.049 A 
HETATM   20  C13 UNL     1      23.539  -0.376  53.128  1.00  0.00     0.008 A 
HETATM   21  C14 UNL     1      22.206  -0.546  52.841  1.00  0.00     0.001 A 
HETATM   22  C15 UNL     1      21.431  -1.070  53.827  1.00  0.00     0.000 A 
HETATM   23  C16 UNL     1      22.029  -1.403  55.030  1.00  0.00     0.001 A 
HETATM   24  C17 UNL     1      23.356  -1.212  55.234  1.00  0.00     0.008 A 
ENDBRANCH  18  19
ENDBRANCH  17  18
ENDBRANCH  15  17
ENDBRANCH  14  15
ENDBRANCH   1  13
BRANCH   1  25
HETATM   25  C18 UNL     1      25.959   3.478  49.392  1.00  0.00     0.084 C 
BRANCH  25  26
HETATM   26  C19 UNL     1      26.349   4.839  49.029  1.00  0.00     0.054 C 
HETATM   27  C20 UNL     1      27.548   5.075  48.633  1.00  0.00    -0.015 A 
HETATM   28  C21 UNL     1      28.860   5.438  48.181  1.00  0.00     0.002 A 
HETATM   29  C22 UNL     1      28.047   6.520  48.513  1.00  0.00     0.047 A 
HETATM   30  C23 UNL     1      26.691   7.032  48.940  1.00  0.00     0.195 C 
HETATM   31  O2  UNL     1      25.839   6.044  48.931  1.00  0.00    -0.353 OA
ENDBRANCH  25  26
ENDBRANCH   1  25
TORSDOF 9
ENDMDL
