MODEL 1
REMARK VINA RESULT:      -7.8      0.000      0.000
REMARK  5 active torsions:
REMARK  status: ('A' for Active; 'I' for Inactive)
REMARK    1  A    between atoms: C13_14  and  C14_15 
REMARK    2  A    between atoms: C14_15  and  S1_16 
REMARK    3  A    between atoms: S1_16  and  N1_17 
REMARK    4  A    between atoms: N2_20  and  C17_21 
REMARK    5  A    between atoms: C18_23  and  O2_24 
ROOT
HETATM    1  C1  UNL     1      20.989  -0.028  54.566  1.00  0.00     0.000 C 
HETATM    2  O1  UNL     1      21.330   0.986  53.644  1.00  0.00     0.000 OA
HETATM    3  C2  UNL     1      22.666   0.965  53.168  1.00  0.00    -0.035 A 
HETATM    4  C3  UNL     1      22.113   2.130  52.758  1.00  0.00     0.054 A 
HETATM    5  C4  UNL     1      22.834   3.133  51.965  1.00  0.00    -0.022 C 
HETATM    6  C5  UNL     1      22.263   4.262  51.583  1.00  0.00    -0.005 C 
HETATM    7  C6  UNL     1      22.845   5.405  50.770  1.00  0.00     0.112 C 
HETATM    8  C7  UNL     1      24.136   5.860  51.352  1.00  0.00     0.058 C 
HETATM    9  C8  UNL     1      24.740   5.569  50.038  1.00  0.00     0.112 C 
HETATM   10  C9  UNL     1      25.943   4.692  50.049  1.00  0.00    -0.005 C 
HETATM   11  C10 UNL     1      26.801   3.668  50.265  1.00  0.00    -0.019 C 
HETATM   12  C11 UNL     1      26.231   2.510  51.082  1.00  0.00     0.043 C 
HETATM   13  C12 UNL     1      26.770   1.321  51.503  1.00  0.00    -0.001 C 
HETATM   14  C13 UNL     1      26.139   0.259  52.292  1.00  0.00    -0.002 C 
HETATM   15  C15 UNL     1      24.729   0.540  52.650  1.00  0.00     0.064 C 
HETATM   16  C16 UNL     1      23.734  -0.095  53.338  1.00  0.00    -0.012 C 
HETATM   17  N2  UNL     1      23.509   4.953  49.587  1.00  0.00    -0.344 N 
ENDROOT
BRANCH  17  18
HETATM   18  C17 UNL     1      22.800   4.165  48.542  1.00  0.00     0.172 A 
HETATM   19  N3  UNL     1      22.717   3.025  48.391  1.00  0.00    -0.200 NA
HETATM   20  C18 UNL     1      22.070   2.374  47.441  1.00  0.00     0.171 A 
HETATM   21  C19 UNL     1      21.410   3.186  46.514  1.00  0.00     0.111 A 
HETATM   22  S2  UNL     1      21.835   4.916  47.174  1.00  0.00    -0.060 SA
BRANCH  20  23
HETATM   23  O2  UNL     1      22.064   0.986  47.394  1.00  0.00    -0.344 OA
HETATM   24  H18 UNL     1      21.493   0.430  46.797  1.00  0.00     0.219 HD
ENDBRANCH  20  23
ENDBRANCH  17  18
BRANCH  14  25
HETATM   25  C14 UNL     1      27.010  -0.746  52.537  1.00  0.00    -0.053 C 
BRANCH  25  26
HETATM   26  S1  UNL     1      28.332  -1.545  53.072  1.00  0.00     0.047 SA
BRANCH  26  27
HETATM   27  N1  UNL     1      28.256  -3.131  52.881  1.00  0.00    -0.256 NA
HETATM   28  H15 UNL     1      27.357  -3.646  52.939  1.00  0.00     0.197 HD
ENDBRANCH  26  27
ENDBRANCH  25  26
ENDBRANCH  14  25
TORSDOF 5
ENDMDL
MODEL 2
REMARK VINA RESULT:      -7.1      3.479      4.821
REMARK  5 active torsions:
REMARK  status: ('A' for Active; 'I' for Inactive)
REMARK    1  A    between atoms: C13_14  and  C14_15 
REMARK    2  A    between atoms: C14_15  and  S1_16 
REMARK    3  A    between atoms: S1_16  and  N1_17 
REMARK    4  A    between atoms: N2_20  and  C17_21 
REMARK    5  A    between atoms: C18_23  and  O2_24 
ROOT
HETATM    1  C1  UNL     1      25.707   1.059  51.859  1.00  0.00     0.000 C 
HETATM    2  O1  UNL     1      24.757   1.992  51.386  1.00  0.00     0.000 OA
HETATM    3  C2  UNL     1      25.275   3.066  50.617  1.00  0.00    -0.035 A 
HETATM    4  C3  UNL     1      23.980   3.352  50.884  1.00  0.00     0.054 A 
HETATM    5  C4  UNL     1      23.309   4.572  50.422  1.00  0.00    -0.022 C 
HETATM    6  C5  UNL     1      22.041   4.821  50.702  1.00  0.00    -0.005 C 
HETATM    7  C6  UNL     1      21.189   6.018  50.316  1.00  0.00     0.112 C 
HETATM    8  C7  UNL     1      21.871   7.288  50.680  1.00  0.00     0.058 C 
HETATM    9  C8  UNL     1      21.764   7.661  49.256  1.00  0.00     0.112 C 
HETATM   10  C9  UNL     1      23.027   8.087  48.593  1.00  0.00    -0.005 C 
HETATM   11  C10 UNL     1      24.300   8.138  48.137  1.00  0.00    -0.019 C 
HETATM   12  C11 UNL     1      25.171   6.942  48.517  1.00  0.00     0.043 C 
HETATM   13  C12 UNL     1      26.481   6.630  48.254  1.00  0.00    -0.001 C 
HETATM   14  C13 UNL     1      27.239   5.445  48.666  1.00  0.00    -0.002 C 
HETATM   15  C15 UNL     1      26.447   4.476  49.458  1.00  0.00     0.064 C 
HETATM   16  C16 UNL     1      26.666   3.265  50.053  1.00  0.00    -0.012 C 
HETATM   17  N2  UNL     1      21.288   6.334  48.925  1.00  0.00    -0.344 N 
ENDROOT
BRANCH  17  18
HETATM   18  C17 UNL     1      20.929   5.349  47.869  1.00  0.00     0.172 A 
HETATM   19  N3  UNL     1      21.563   4.895  47.019  1.00  0.00    -0.200 NA
HETATM   20  C18 UNL     1      21.192   4.018  46.105  1.00  0.00     0.171 A 
HETATM   21  C19 UNL     1      19.861   3.600  46.193  1.00  0.00     0.111 A 
HETATM   22  S2  UNL     1      19.264   4.596  47.697  1.00  0.00    -0.060 SA
BRANCH  20  23
HETATM   23  O2  UNL     1      22.081   3.564  45.139  1.00  0.00    -0.344 OA
HETATM   24  H18 UNL     1      22.920   4.024  44.863  1.00  0.00     0.219 HD
ENDBRANCH  20  23
ENDBRANCH  17  18
BRANCH  14  25
HETATM   25  C14 UNL     1      28.520   5.517  48.239  1.00  0.00    -0.053 C 
BRANCH  25  26
HETATM   26  S1  UNL     1      30.141   5.730  48.256  1.00  0.00     0.047 SA
BRANCH  26  27
HETATM   27  N1  UNL     1      30.790   5.673  49.717  1.00  0.00    -0.256 NA
HETATM   28  H15 UNL     1      30.254   5.943  50.564  1.00  0.00     0.197 HD
ENDBRANCH  26  27
ENDBRANCH  25  26
ENDBRANCH  14  25
TORSDOF 5
ENDMDL
MODEL 3
REMARK VINA RESULT:      -6.9      3.254      5.084
REMARK  5 active torsions:
REMARK  status: ('A' for Active; 'I' for Inactive)
REMARK    1  A    between atoms: C13_14  and  C14_15 
REMARK    2  A    between atoms: C14_15  and  S1_16 
REMARK    3  A    between atoms: S1_16  and  N1_17 
REMARK    4  A    between atoms: N2_20  and  C17_21 
REMARK    5  A    between atoms: C18_23  and  O2_24 
ROOT
HETATM    1  C1  UNL     1      27.344   2.159  52.397  1.00  0.00     0.000 C 
HETATM    2  O1  UNL     1      26.339   2.656  51.537  1.00  0.00     0.000 OA
HETATM    3  C2  UNL     1      25.050   2.087  51.699  1.00  0.00    -0.035 A 
HETATM    4  C3  UNL     1      25.020   2.831  50.570  1.00  0.00     0.054 A 
HETATM    5  C4  UNL     1      23.828   2.973  49.726  1.00  0.00    -0.022 C 
HETATM    6  C5  UNL     1      23.835   3.707  48.626  1.00  0.00    -0.005 C 
HETATM    7  C6  UNL     1      22.711   3.967  47.638  1.00  0.00     0.112 C 
HETATM    8  C7  UNL     1      22.104   2.687  47.185  1.00  0.00     0.058 C 
HETATM    9  C8  UNL     1      20.818   3.213  47.684  1.00  0.00     0.112 C 
HETATM   10  C9  UNL     1      20.068   2.331  48.620  1.00  0.00    -0.005 C 
HETATM   11  C10 UNL     1      19.727   1.527  49.654  1.00  0.00    -0.019 C 
HETATM   12  C11 UNL     1      20.846   1.256  50.657  1.00  0.00     0.043 C 
HETATM   13  C12 UNL     1      20.897   0.512  51.809  1.00  0.00    -0.001 C 
HETATM   14  C13 UNL     1      22.029   0.308  52.717  1.00  0.00    -0.002 C 
HETATM   15  C15 UNL     1      23.258   1.028  52.309  1.00  0.00     0.064 C 
HETATM   16  C16 UNL     1      24.530   1.171  52.787  1.00  0.00    -0.012 C 
HETATM   17  N2  UNL     1      21.492   4.347  48.282  1.00  0.00    -0.344 N 
ENDROOT
BRANCH  17  18
HETATM   18  C17 UNL     1      21.410   5.546  49.161  1.00  0.00     0.172 A 
HETATM   19  N3  UNL     1      21.345   6.666  48.895  1.00  0.00    -0.200 NA
HETATM   20  C18 UNL     1      21.273   7.695  49.719  1.00  0.00     0.171 A 
HETATM   21  C19 UNL     1      21.278   7.365  51.078  1.00  0.00     0.111 A 
HETATM   22  S2  UNL     1      21.395   5.471  50.994  1.00  0.00    -0.060 SA
BRANCH  20  23
HETATM   23  O2  UNL     1      21.199   8.998  49.241  1.00  0.00    -0.344 OA
HETATM   24  H18 UNL     1      21.624   9.332  48.405  1.00  0.00     0.219 HD
ENDBRANCH  20  23
ENDBRANCH  17  18
BRANCH  14  25
HETATM   25  C14 UNL     1      21.695  -0.524  53.729  1.00  0.00    -0.053 C 
BRANCH  25  26
HETATM   26  S1  UNL     1      21.790  -1.732  54.828  1.00  0.00     0.047 SA
BRANCH  26  27
HETATM   27  N1  UNL     1      23.095  -1.670  55.751  1.00  0.00    -0.256 NA
HETATM   28  H15 UNL     1      23.721  -0.843  55.757  1.00  0.00     0.197 HD
ENDBRANCH  26  27
ENDBRANCH  25  26
ENDBRANCH  14  25
TORSDOF 5
ENDMDL
MODEL 4
REMARK VINA RESULT:      -6.9      3.710      5.733
REMARK  5 active torsions:
REMARK  status: ('A' for Active; 'I' for Inactive)
REMARK    1  A    between atoms: C13_14  and  C14_15 
REMARK    2  A    between atoms: C14_15  and  S1_16 
REMARK    3  A    between atoms: S1_16  and  N1_17 
REMARK    4  A    between atoms: N2_20  and  C17_21 
REMARK    5  A    between atoms: C18_23  and  O2_24 
ROOT
HETATM    1  C1  UNL     1      25.170  -0.130  54.141  1.00  0.00     0.000 C 
HETATM    2  O1  UNL     1      24.770   0.700  53.070  1.00  0.00     0.000 OA
HETATM    3  C2  UNL     1      23.401   0.621  52.705  1.00  0.00    -0.035 A 
HETATM    4  C3  UNL     1      24.030   1.341  51.748  1.00  0.00     0.054 A 
HETATM    5  C4  UNL     1      23.347   1.905  50.579  1.00  0.00    -0.022 C 
HETATM    6  C5  UNL     1      23.994   2.603  49.661  1.00  0.00    -0.005 C 
HETATM    7  C6  UNL     1      23.460   3.255  48.397  1.00  0.00     0.112 C 
HETATM    8  C7  UNL     1      22.680   2.277  47.591  1.00  0.00     0.058 C 
HETATM    9  C8  UNL     1      21.548   3.218  47.693  1.00  0.00     0.112 C 
HETATM   10  C9  UNL     1      20.264   2.647  48.186  1.00  0.00    -0.005 C 
HETATM   11  C10 UNL     1      19.327   2.003  48.920  1.00  0.00    -0.019 C 
HETATM   12  C11 UNL     1      19.847   1.342  50.195  1.00  0.00     0.043 C 
HETATM   13  C12 UNL     1      19.228   0.614  51.180  1.00  0.00    -0.001 C 
HETATM   14  C13 UNL     1      19.817   0.013  52.380  1.00  0.00    -0.002 C 
HETATM   15  C15 UNL     1      21.271   0.257  52.517  1.00  0.00     0.064 C 
HETATM   16  C16 UNL     1      22.252  -0.065  53.413  1.00  0.00    -0.012 C 
HETATM   17  N2  UNL     1      22.284   4.033  48.636  1.00  0.00    -0.344 N 
ENDROOT
BRANCH  17  18
HETATM   18  C17 UNL     1      22.280   5.173  49.593  1.00  0.00     0.172 A 
HETATM   19  N3  UNL     1      23.114   5.580  50.278  1.00  0.00    -0.200 NA
HETATM   20  C18 UNL     1      23.058   6.601  51.112  1.00  0.00     0.171 A 
HETATM   21  C19 UNL     1      21.825   7.258  51.158  1.00  0.00     0.111 A 
HETATM   22  S2  UNL     1      20.824   6.247  49.898  1.00  0.00    -0.060 SA
BRANCH  20  23
HETATM   23  O2  UNL     1      24.158   6.971  51.875  1.00  0.00    -0.344 OA
HETATM   24  H18 UNL     1      24.152   7.643  52.610  1.00  0.00     0.219 HD
ENDBRANCH  20  23
ENDBRANCH  17  18
BRANCH  14  25
HETATM   25  C14 UNL     1      18.884  -0.660  53.092  1.00  0.00    -0.053 C 
BRANCH  25  26
HETATM   26  S1  UNL     1      17.605  -1.617  53.443  1.00  0.00     0.047 SA
BRANCH  26  27
HETATM   27  N1  UNL     1      16.197  -0.858  53.409  1.00  0.00    -0.256 NA
HETATM   28  H15 UNL     1      15.333  -1.293  53.783  1.00  0.00     0.197 HD
ENDBRANCH  26  27
ENDBRANCH  25  26
ENDBRANCH  14  25
TORSDOF 5
ENDMDL
MODEL 5
REMARK VINA RESULT:      -6.7     10.107     13.160
REMARK  5 active torsions:
REMARK  status: ('A' for Active; 'I' for Inactive)
REMARK    1  A    between atoms: C13_14  and  C14_15 
REMARK    2  A    between atoms: C14_15  and  S1_16 
REMARK    3  A    between atoms: S1_16  and  N1_17 
REMARK    4  A    between atoms: N2_20  and  C17_21 
REMARK    5  A    between atoms: C18_23  and  O2_24 
ROOT
HETATM    1  C1  UNL     1      33.291   4.492  40.965  1.00  0.00     0.000 C 
HETATM    2  O1  UNL     1      33.174   4.559  42.371  1.00  0.00     0.000 OA
HETATM    3  C2  UNL     1      33.638   5.756  42.974  1.00  0.00    -0.035 A 
HETATM    4  C3  UNL     1      33.396   4.874  43.971  1.00  0.00     0.054 A 
HETATM    5  C4  UNL     1      33.600   5.182  45.390  1.00  0.00    -0.022 C 
HETATM    6  C5  UNL     1      33.354   4.294  46.339  1.00  0.00    -0.005 C 
HETATM    7  C6  UNL     1      33.506   4.430  47.844  1.00  0.00     0.112 C 
HETATM    8  C7  UNL     1      34.863   4.930  48.192  1.00  0.00     0.058 C 
HETATM    9  C8  UNL     1      34.188   6.046  48.882  1.00  0.00     0.112 C 
HETATM   10  C9  UNL     1      34.635   7.415  48.507  1.00  0.00    -0.005 C 
HETATM   11  C10 UNL     1      34.971   8.526  47.810  1.00  0.00    -0.019 C 
HETATM   12  C11 UNL     1      34.824   8.406  46.294  1.00  0.00     0.043 C 
HETATM   13  C12 UNL     1      35.058   9.286  45.269  1.00  0.00    -0.001 C 
HETATM   14  C13 UNL     1      34.886   9.079  43.828  1.00  0.00    -0.002 C 
HETATM   15  C15 UNL     1      34.380   7.732  43.476  1.00  0.00     0.064 C 
HETATM   16  C16 UNL     1      34.057   7.061  42.329  1.00  0.00    -0.012 C 
HETATM   17  N2  UNL     1      32.908   5.627  48.349  1.00  0.00    -0.344 N 
ENDROOT
BRANCH  17  18
HETATM   18  C17 UNL     1      31.461   5.921  48.159  1.00  0.00     0.172 A 
HETATM   19  N3  UNL     1      30.529   5.422  48.619  1.00  0.00    -0.200 NA
HETATM   20  C18 UNL     1      29.260   5.724  48.416  1.00  0.00     0.171 A 
HETATM   21  C19 UNL     1      29.039   6.784  47.531  1.00  0.00     0.111 A 
HETATM   22  S2  UNL     1      30.822   7.248  47.065  1.00  0.00    -0.060 SA
BRANCH  20  23
HETATM   23  O2  UNL     1      28.241   5.024  49.049  1.00  0.00    -0.344 OA
HETATM   24  H18 UNL     1      27.728   5.340  49.842  1.00  0.00     0.219 HD
ENDBRANCH  20  23
ENDBRANCH  17  18
BRANCH  14  25
HETATM   25  C14 UNL     1      35.257  10.178  43.132  1.00  0.00    -0.053 C 
BRANCH  25  26
HETATM   26  S1  UNL     1      36.193  11.361  42.501  1.00  0.00     0.047 SA
BRANCH  26  27
HETATM   27  N1  UNL     1      37.516  10.826  41.778  1.00  0.00    -0.256 NA
HETATM   28  H15 UNL     1      37.784  11.142  40.826  1.00  0.00     0.197 HD
ENDBRANCH  26  27
ENDBRANCH  25  26
ENDBRANCH  14  25
TORSDOF 5
ENDMDL
MODEL 6
REMARK VINA RESULT:      -6.7      4.498      7.606
REMARK  5 active torsions:
REMARK  status: ('A' for Active; 'I' for Inactive)
REMARK    1  A    between atoms: C13_14  and  C14_15 
REMARK    2  A    between atoms: C14_15  and  S1_16 
REMARK    3  A    between atoms: S1_16  and  N1_17 
REMARK    4  A    between atoms: N2_20  and  C17_21 
REMARK    5  A    between atoms: C18_23  and  O2_24 
ROOT
HETATM    1  C1  UNL     1      30.106   4.977  47.761  1.00  0.00     0.000 C 
HETATM    2  O1  UNL     1      28.754   4.745  48.100  1.00  0.00     0.000 OA
HETATM    3  C2  UNL     1      28.003   5.890  48.468  1.00  0.00    -0.035 A 
HETATM    4  C3  UNL     1      27.249   4.806  48.760  1.00  0.00     0.054 A 
HETATM    5  C4  UNL     1      25.907   4.888  49.347  1.00  0.00    -0.022 C 
HETATM    6  C5  UNL     1      25.197   3.807  49.622  1.00  0.00    -0.005 C 
HETATM    7  C6  UNL     1      23.808   3.698  50.226  1.00  0.00     0.112 C 
HETATM    8  C7  UNL     1      23.717   4.489  51.482  1.00  0.00     0.058 C 
HETATM    9  C8  UNL     1      22.601   5.217  50.848  1.00  0.00     0.112 C 
HETATM   10  C9  UNL     1      22.706   6.703  50.844  1.00  0.00    -0.005 C 
HETATM   11  C10 UNL     1      23.148   7.972  50.688  1.00  0.00    -0.019 C 
HETATM   12  C11 UNL     1      24.544   8.100  50.082  1.00  0.00     0.043 C 
HETATM   13  C12 UNL     1      25.324   9.186  49.772  1.00  0.00    -0.001 C 
HETATM   14  C13 UNL     1      26.667   9.211  49.187  1.00  0.00    -0.002 C 
HETATM   15  C15 UNL     1      27.214   7.866  48.893  1.00  0.00     0.064 C 
HETATM   16  C16 UNL     1      28.367   7.356  48.364  1.00  0.00    -0.012 C 
HETATM   17  N2  UNL     1      22.863   4.559  49.585  1.00  0.00    -0.344 N 
ENDROOT
BRANCH  17  18
HETATM   18  C17 UNL     1      22.573   4.459  48.129  1.00  0.00     0.172 A 
HETATM   19  N3  UNL     1      22.602   5.262  47.302  1.00  0.00    -0.200 NA
HETATM   20  C18 UNL     1      22.334   5.118  46.017  1.00  0.00     0.171 A 
HETATM   21  C19 UNL     1      21.972   3.824  45.630  1.00  0.00     0.111 A 
HETATM   22  S2  UNL     1      22.069   2.906  47.291  1.00  0.00    -0.060 SA
BRANCH  20  23
HETATM   23  O2  UNL     1      22.415   6.191  45.139  1.00  0.00    -0.344 OA
HETATM   24  H18 UNL     1      23.173   6.376  44.520  1.00  0.00     0.219 HD
ENDBRANCH  20  23
ENDBRANCH  17  18
BRANCH  14  25
HETATM   25  C14 UNL     1      27.120  10.479  49.065  1.00  0.00    -0.053 C 
BRANCH  25  26
HETATM   26  S1  UNL     1      27.423  11.954  48.427  1.00  0.00     0.047 SA
BRANCH  26  27
HETATM   27  N1  UNL     1      28.317  12.896  49.361  1.00  0.00    -0.256 NA
HETATM   28  H15 UNL     1      27.896  13.492  50.099  1.00  0.00     0.197 HD
ENDBRANCH  26  27
ENDBRANCH  25  26
ENDBRANCH  14  25
TORSDOF 5
ENDMDL
MODEL 7
REMARK VINA RESULT:      -6.7      8.615     11.276
REMARK  5 active torsions:
REMARK  status: ('A' for Active; 'I' for Inactive)
REMARK    1  A    between atoms: C13_14  and  C14_15 
REMARK    2  A    between atoms: C14_15  and  S1_16 
REMARK    3  A    between atoms: S1_16  and  N1_17 
REMARK    4  A    between atoms: N2_20  and  C17_21 
REMARK    5  A    between atoms: C18_23  and  O2_24 
ROOT
HETATM    1  C1  UNL     1      29.467  12.236  48.941  1.00  0.00     0.000 C 
HETATM    2  O1  UNL     1      30.439  11.348  48.431  1.00  0.00     0.000 OA
HETATM    3  C2  UNL     1      30.057   9.983  48.369  1.00  0.00    -0.035 A 
HETATM    4  C3  UNL     1      31.384  10.039  48.113  1.00  0.00     0.054 A 
HETATM    5  C4  UNL     1      32.205   8.856  47.830  1.00  0.00    -0.022 C 
HETATM    6  C5  UNL     1      33.501   8.947  47.587  1.00  0.00    -0.005 C 
HETATM    7  C6  UNL     1      34.500   7.845  47.279  1.00  0.00     0.112 C 
HETATM    8  C7  UNL     1      34.423   6.767  48.300  1.00  0.00     0.058 C 
HETATM    9  C8  UNL     1      34.148   5.840  47.185  1.00  0.00     0.112 C 
HETATM   10  C9  UNL     1      32.937   4.985  47.327  1.00  0.00    -0.005 C 
HETATM   11  C10 UNL     1      31.671   4.550  47.524  1.00  0.00    -0.019 C 
HETATM   12  C11 UNL     1      30.653   5.646  47.835  1.00  0.00     0.043 C 
HETATM   13  C12 UNL     1      29.306   5.612  48.090  1.00  0.00    -0.001 C 
HETATM   14  C13 UNL     1      28.402   6.729  48.382  1.00  0.00    -0.002 C 
HETATM   15  C15 UNL     1      29.068   8.052  48.377  1.00  0.00     0.064 C 
HETATM   16  C16 UNL     1      28.696   9.352  48.575  1.00  0.00    -0.012 C 
HETATM   17  N2  UNL     1      34.035   6.952  46.264  1.00  0.00    -0.344 N 
ENDROOT
BRANCH  17  18
HETATM   18  C17 UNL     1      33.680   7.432  44.901  1.00  0.00     0.172 A 
HETATM   19  N3  UNL     1      34.351   7.767  44.025  1.00  0.00    -0.200 NA
HETATM   20  C18 UNL     1      33.982   8.186  42.828  1.00  0.00     0.171 A 
HETATM   21  C19 UNL     1      32.600   8.221  42.616  1.00  0.00     0.111 A 
HETATM   22  S2  UNL     1      31.956   7.600  44.293  1.00  0.00    -0.060 SA
BRANCH  20  23
HETATM   23  O2  UNL     1      34.919   8.557  41.873  1.00  0.00    -0.344 OA
HETATM   24  H18 UNL     1      35.096   9.488  41.567  1.00  0.00     0.219 HD
ENDBRANCH  20  23
ENDBRANCH  17  18
BRANCH  14  25
HETATM   25  C14 UNL     1      27.145   6.288  48.614  1.00  0.00    -0.053 C 
BRANCH  25  26
HETATM   26  S1  UNL     1      25.887   5.514  49.316  1.00  0.00     0.047 SA
BRANCH  26  27
HETATM   27  N1  UNL     1      26.321   4.356  50.331  1.00  0.00    -0.256 NA
HETATM   28  H15 UNL     1      27.259   4.341  50.774  1.00  0.00     0.197 HD
ENDBRANCH  26  27
ENDBRANCH  25  26
ENDBRANCH  14  25
TORSDOF 5
ENDMDL
MODEL 8
REMARK VINA RESULT:      -6.6      6.679      9.279
REMARK  5 active torsions:
REMARK  status: ('A' for Active; 'I' for Inactive)
REMARK    1  A    between atoms: C13_14  and  C14_15 
REMARK    2  A    between atoms: C14_15  and  S1_16 
REMARK    3  A    between atoms: S1_16  and  N1_17 
REMARK    4  A    between atoms: N2_20  and  C17_21 
REMARK    5  A    between atoms: C18_23  and  O2_24 
ROOT
HETATM    1  C1  UNL     1      32.013   6.013  47.172  1.00  0.00     0.000 C 
HETATM    2  O1  UNL     1      31.040   6.953  46.765  1.00  0.00     0.000 OA
HETATM    3  C2  UNL     1      29.722   6.721  47.236  1.00  0.00    -0.035 A 
HETATM    4  C3  UNL     1      29.648   7.702  46.308  1.00  0.00     0.054 A 
HETATM    5  C4  UNL     1      28.394   8.356  45.919  1.00  0.00    -0.022 C 
HETATM    6  C5  UNL     1      28.359   9.311  45.005  1.00  0.00    -0.005 C 
HETATM    7  C6  UNL     1      27.168  10.093  44.479  1.00  0.00     0.112 C 
HETATM    8  C7  UNL     1      26.084   9.171  44.046  1.00  0.00     0.058 C 
HETATM    9  C8  UNL     1      25.210   9.876  45.003  1.00  0.00     0.112 C 
HETATM   10  C9  UNL     1      24.479   9.020  45.977  1.00  0.00    -0.005 C 
HETATM   11  C10 UNL     1      24.170   8.105  46.925  1.00  0.00    -0.019 C 
HETATM   12  C11 UNL     1      25.357   7.309  47.465  1.00  0.00     0.043 C 
HETATM   13  C12 UNL     1      25.455   6.318  48.408  1.00  0.00    -0.001 C 
HETATM   14  C13 UNL     1      26.651   5.605  48.865  1.00  0.00    -0.002 C 
HETATM   15  C15 UNL     1      27.900   6.054  48.208  1.00  0.00     0.064 C 
HETATM   16  C16 UNL     1      29.228   5.735  48.273  1.00  0.00    -0.012 C 
HETATM   17  N2  UNL     1      26.344  10.609  45.528  1.00  0.00    -0.344 N 
ENDROOT
BRANCH  17  18
HETATM   18  C17 UNL     1      26.882  11.531  46.565  1.00  0.00     0.172 A 
HETATM   19  N3  UNL     1      27.331  11.311  47.604  1.00  0.00    -0.200 NA
HETATM   20  C18 UNL     1      27.797  12.172  48.489  1.00  0.00     0.171 A 
HETATM   21  C19 UNL     1      27.727  13.514  48.101  1.00  0.00     0.111 A 
HETATM   22  S2  UNL     1      26.941  13.356  46.379  1.00  0.00    -0.060 SA
BRANCH  20  23
HETATM   23  O2  UNL     1      28.311  11.747  49.708  1.00  0.00    -0.344 OA
HETATM   24  H18 UNL     1      29.278  11.711  49.946  1.00  0.00     0.219 HD
ENDBRANCH  20  23
ENDBRANCH  17  18
BRANCH  14  25
HETATM   25  C14 UNL     1      26.335   4.666  49.786  1.00  0.00    -0.053 C 
BRANCH  25  26
HETATM   26  S1  UNL     1      26.163   3.208  50.506  1.00  0.00     0.047 SA
BRANCH  26  27
HETATM   27  N1  UNL     1      27.270   2.898  51.618  1.00  0.00    -0.256 NA
HETATM   28  H15 UNL     1      28.275   3.107  51.463  1.00  0.00     0.197 HD
ENDBRANCH  26  27
ENDBRANCH  25  26
ENDBRANCH  14  25
TORSDOF 5
ENDMDL
MODEL 9
REMARK VINA RESULT:      -6.4      8.048     11.049
REMARK  5 active torsions:
REMARK  status: ('A' for Active; 'I' for Inactive)
REMARK    1  A    between atoms: C13_14  and  C14_15 
REMARK    2  A    between atoms: C14_15  and  S1_16 
REMARK    3  A    between atoms: S1_16  and  N1_17 
REMARK    4  A    between atoms: N2_20  and  C17_21 
REMARK    5  A    between atoms: C18_23  and  O2_24 
ROOT
HETATM    1  C1  UNL     1      16.558   1.880  48.877  1.00  0.00     0.000 C 
HETATM    2  O1  UNL     1      15.868   0.766  49.406  1.00  0.00     0.000 OA
HETATM    3  C2  UNL     1      16.515   0.087  50.470  1.00  0.00    -0.035 A 
HETATM    4  C3  UNL     1      15.466  -0.677  50.087  1.00  0.00     0.054 A 
HETATM    5  C4  UNL     1      15.127  -1.960  50.713  1.00  0.00    -0.022 C 
HETATM    6  C5  UNL     1      14.095  -2.682  50.311  1.00  0.00    -0.005 C 
HETATM    7  C6  UNL     1      13.598  -4.019  50.832  1.00  0.00     0.112 C 
HETATM    8  C7  UNL     1      14.706  -5.010  50.878  1.00  0.00     0.058 C 
HETATM    9  C8  UNL     1      14.411  -5.154  52.317  1.00  0.00     0.112 C 
HETATM   10  C9  UNL     1      15.567  -4.990  53.242  1.00  0.00    -0.005 C 
HETATM   11  C10 UNL     1      16.660  -4.514  53.882  1.00  0.00    -0.019 C 
HETATM   12  C11 UNL     1      17.173  -3.170  53.370  1.00  0.00     0.043 C 
HETATM   13  C12 UNL     1      18.228  -2.377  53.747  1.00  0.00    -0.001 C 
HETATM   14  C13 UNL     1      18.648  -1.088  53.190  1.00  0.00    -0.002 C 
HETATM   15  C15 UNL     1      17.785  -0.606  52.086  1.00  0.00     0.064 C 
HETATM   16  C16 UNL     1      17.739   0.487  51.267  1.00  0.00    -0.012 C 
HETATM   17  N2  UNL     1      13.484  -4.043  52.258  1.00  0.00    -0.344 N 
ENDROOT
BRANCH  17  18
HETATM   18  C17 UNL     1      12.612  -3.086  52.991  1.00  0.00     0.172 A 
HETATM   19  N3  UNL     1      12.881  -2.166  53.632  1.00  0.00    -0.200 NA
HETATM   20  C18 UNL     1      12.063  -1.345  54.264  1.00  0.00     0.171 A 
HETATM   21  C19 UNL     1      10.704  -1.644  54.127  1.00  0.00     0.111 A 
HETATM   22  S2  UNL     1      10.780  -3.188  53.021  1.00  0.00    -0.060 SA
BRANCH  20  23
HETATM   23  O2  UNL     1      12.545  -0.272  55.002  1.00  0.00    -0.344 OA
HETATM   24  H18 UNL     1      12.718  -0.276  55.983  1.00  0.00     0.219 HD
ENDBRANCH  20  23
ENDBRANCH  17  18
BRANCH  14  25
HETATM   25  C14 UNL     1      19.761  -0.632  53.808  1.00  0.00    -0.053 C 
BRANCH  25  26
HETATM   26  S1  UNL     1      21.309  -0.540  54.327  1.00  0.00     0.047 SA
BRANCH  26  27
HETATM   27  N1  UNL     1      21.815  -1.849  55.096  1.00  0.00    -0.256 NA
HETATM   28  H15 UNL     1      21.561  -2.803  54.777  1.00  0.00     0.197 HD
ENDBRANCH  26  27
ENDBRANCH  25  26
ENDBRANCH  14  25
TORSDOF 5
ENDMDL
