MODEL 1
REMARK VINA RESULT:      -8.2      0.000      0.000
REMARK  5 active torsions:
REMARK  status: ('A' for Active; 'I' for Inactive)
REMARK    1  A    between atoms: O1_2  and  C2_3 
REMARK    2  A    between atoms: C3_4  and  C4_5 
REMARK    3  A    between atoms: C6_7  and  N1_8 
REMARK    4  A    between atoms: N1_8  and  C7_9 
REMARK    5  A    between atoms: C16_22  and  C17_23 
ROOT
HETATM    1  C4  UNL     1      23.118   1.259  53.091  1.00  0.00    -0.019 A 
HETATM    2  C5  UNL     1      24.068   1.801  52.819  1.00  0.00     0.083 A 
HETATM    3  C6  UNL     1      24.831   2.408  51.904  1.00  0.00     0.049 A 
HETATM    4  C13 UNL     1      24.924   2.780  50.591  1.00  0.00     0.085 A 
HETATM    5  C14 UNL     1      26.096   3.463  50.190  1.00  0.00     0.103 C 
HETATM    6  N2  UNL     1      27.026   4.012  49.851  1.00  0.00    -0.191 NA
HETATM    7  C15 UNL     1      23.847   2.436  49.819  1.00  0.00     0.136 A 
HETATM    8  N3  UNL     1      22.786   1.786  50.312  1.00  0.00    -0.282 NA
HETATM    9  C16 UNL     1      22.894   1.483  51.748  1.00  0.00     0.111 A 
ENDROOT
BRANCH   3  10
HETATM   10  N1  UNL     1      25.790   2.622  52.972  1.00  0.00    -0.357 N 
HETATM   11  H4  UNL     1      25.912   3.383  53.695  1.00  0.00     0.166 HD
BRANCH  10  12
HETATM   12  C7  UNL     1      26.799   1.595  53.086  1.00  0.00     0.034 A 
HETATM   13  C8  UNL     1      28.083   1.935  53.516  1.00  0.00     0.032 A 
HETATM   14  C9  UNL     1      29.092   1.003  53.647  1.00  0.00     0.046 A 
HETATM   15  C10 UNL     1      28.836  -0.322  53.345  1.00  0.00     0.138 A 
HETATM   16  F1  UNL     1      29.774  -1.280  53.451  1.00  0.00    -0.204 F 
HETATM   17  C11 UNL     1      27.577  -0.697  52.916  1.00  0.00     0.074 A 
HETATM   18 CL1  UNL     1      27.156  -2.351  52.511  1.00  0.00    -0.081 Cl
HETATM   19  C12 UNL     1      26.602   0.266  52.800  1.00  0.00     0.056 A 
ENDBRANCH  10  12
ENDBRANCH   3  10
BRANCH   1  20
HETATM   20  C3  UNL     1      22.249   0.768  53.318  1.00  0.00    -0.008 A 
HETATM   21  C2  UNL     1      21.316   0.214  53.565  1.00  0.00     0.065 A 
HETATM   22  C17 UNL     1      22.642  -0.575  53.412  1.00  0.00     0.115 A 
BRANCH  21  23
HETATM   23  O1  UNL     1      20.224  -0.432  53.853  1.00  0.00    -0.359 OA
HETATM   24  C1  UNL     1      19.033  -0.552  53.113  1.00  0.00     0.209 C 
ENDBRANCH  21  23
ENDBRANCH   1  20
TORSDOF 5
ENDMDL
MODEL 2
REMARK VINA RESULT:      -7.8      2.776      4.959
REMARK  5 active torsions:
REMARK  status: ('A' for Active; 'I' for Inactive)
REMARK    1  A    between atoms: O1_2  and  C2_3 
REMARK    2  A    between atoms: C3_4  and  C4_5 
REMARK    3  A    between atoms: C6_7  and  N1_8 
REMARK    4  A    between atoms: N1_8  and  C7_9 
REMARK    5  A    between atoms: C16_22  and  C17_23 
ROOT
HETATM    1  C4  UNL     1      25.112   3.446  50.875  1.00  0.00    -0.019 A 
HETATM    2  C5  UNL     1      24.657   2.726  51.613  1.00  0.00     0.083 A 
HETATM    3  C6  UNL     1      23.721   1.821  51.919  1.00  0.00     0.049 A 
HETATM    4  C13 UNL     1      22.626   1.143  51.459  1.00  0.00     0.085 A 
HETATM    5  C14 UNL     1      22.010   0.226  52.344  1.00  0.00     0.103 C 
HETATM    6  N2  UNL     1      21.505  -0.512  53.037  1.00  0.00    -0.191 NA
HETATM    7  C15 UNL     1      22.260   1.445  50.175  1.00  0.00     0.136 A 
HETATM    8  N3  UNL     1      22.923   2.336  49.429  1.00  0.00    -0.282 NA
HETATM    9  C16 UNL     1      24.070   2.948  50.118  1.00  0.00     0.111 A 
ENDROOT
BRANCH   3  10
HETATM   10  N1  UNL     1      24.359   1.729  53.219  1.00  0.00    -0.357 N 
HETATM   11  H4  UNL     1      24.103   2.090  54.179  1.00  0.00     0.166 HD
BRANCH  10  12
HETATM   12  C7  UNL     1      25.604   0.998  53.226  1.00  0.00     0.034 A 
HETATM   13  C8  UNL     1      25.648  -0.296  52.704  1.00  0.00     0.032 A 
HETATM   14  C9  UNL     1      26.805  -1.047  52.680  1.00  0.00     0.046 A 
HETATM   15  C10 UNL     1      27.974  -0.511  53.188  1.00  0.00     0.138 A 
HETATM   16  F1  UNL     1      29.135  -1.189  53.196  1.00  0.00    -0.204 F 
HETATM   17  C11 UNL     1      27.970   0.768  53.714  1.00  0.00     0.074 A 
HETATM   18 CL1  UNL     1      29.401   1.534  54.380  1.00  0.00    -0.081 Cl
HETATM   19  C12 UNL     1      26.794   1.480  53.717  1.00  0.00     0.056 A 
ENDBRANCH  10  12
ENDBRANCH   3  10
BRANCH   1  20
HETATM   20  C3  UNL     1      25.510   4.093  50.190  1.00  0.00    -0.008 A 
HETATM   21  C2  UNL     1      25.959   4.781  49.439  1.00  0.00     0.065 A 
HETATM   22  C17 UNL     1      26.573   3.369  49.629  1.00  0.00     0.115 A 
BRANCH  21  23
HETATM   23  O1  UNL     1      26.484   5.586  48.561  1.00  0.00    -0.359 OA
HETATM   24  C1  UNL     1      27.089   6.842  48.748  1.00  0.00     0.209 C 
ENDBRANCH  21  23
ENDBRANCH   1  20
TORSDOF 5
ENDMDL
MODEL 3
REMARK VINA RESULT:      -7.8      3.639      5.936
REMARK  5 active torsions:
REMARK  status: ('A' for Active; 'I' for Inactive)
REMARK    1  A    between atoms: O1_2  and  C2_3 
REMARK    2  A    between atoms: C3_4  and  C4_5 
REMARK    3  A    between atoms: C6_7  and  N1_8 
REMARK    4  A    between atoms: N1_8  and  C7_9 
REMARK    5  A    between atoms: C16_22  and  C17_23 
ROOT
HETATM    1  C4  UNL     1      24.877   3.745  49.840  1.00  0.00    -0.019 A 
HETATM    2  C5  UNL     1      23.964   3.238  50.262  1.00  0.00     0.083 A 
HETATM    3  C6  UNL     1      22.814   3.306  50.941  1.00  0.00     0.049 A 
HETATM    4  C13 UNL     1      21.954   4.135  51.608  1.00  0.00     0.085 A 
HETATM    5  C14 UNL     1      20.789   3.553  52.162  1.00  0.00     0.103 C 
HETATM    6  N2  UNL     1      19.851   3.106  52.611  1.00  0.00    -0.191 NA
HETATM    7  C15 UNL     1      22.340   5.447  51.655  1.00  0.00     0.136 A 
HETATM    8  N3  UNL     1      23.472   5.884  51.090  1.00  0.00    -0.282 NA
HETATM    9  C16 UNL     1      24.248   4.826  50.424  1.00  0.00     0.111 A 
ENDROOT
BRANCH   3  10
HETATM   10  N1  UNL     1      22.696   1.878  50.714  1.00  0.00    -0.357 N 
HETATM   11  H4  UNL     1      22.370   1.299  49.891  1.00  0.00     0.166 HD
BRANCH  10  12
HETATM   12  C7  UNL     1      23.098   1.057  51.832  1.00  0.00     0.034 A 
HETATM   13  C8  UNL     1      24.439   1.035  52.223  1.00  0.00     0.032 A 
HETATM   14  C9  UNL     1      24.888   0.274  53.282  1.00  0.00     0.046 A 
HETATM   15  C10 UNL     1      23.989  -0.501  53.993  1.00  0.00     0.138 A 
HETATM   16  F1  UNL     1      24.362  -1.266  55.034  1.00  0.00    -0.204 F 
HETATM   17  C11 UNL     1      22.654  -0.505  53.635  1.00  0.00     0.074 A 
HETATM   18 CL1  UNL     1      21.440  -1.452  54.474  1.00  0.00    -0.081 Cl
HETATM   19  C12 UNL     1      22.251   0.270  52.572  1.00  0.00     0.056 A 
ENDBRANCH  10  12
ENDBRANCH   3  10
BRANCH   1  20
HETATM   20  C3  UNL     1      25.700   4.225  49.465  1.00  0.00    -0.008 A 
HETATM   21  C2  UNL     1      26.607   4.726  49.061  1.00  0.00     0.065 A 
HETATM   22  C17 UNL     1      26.713   3.259  49.551  1.00  0.00     0.115 A 
BRANCH  21  23
HETATM   23  O1  UNL     1      27.668   5.314  48.588  1.00  0.00    -0.359 OA
HETATM   24  C1  UNL     1      27.842   6.646  48.170  1.00  0.00     0.209 C 
ENDBRANCH  21  23
ENDBRANCH   1  20
TORSDOF 5
ENDMDL
MODEL 4
REMARK VINA RESULT:      -7.8      3.718      6.331
REMARK  5 active torsions:
REMARK  status: ('A' for Active; 'I' for Inactive)
REMARK    1  A    between atoms: O1_2  and  C2_3 
REMARK    2  A    between atoms: C3_4  and  C4_5 
REMARK    3  A    between atoms: C6_7  and  N1_8 
REMARK    4  A    between atoms: N1_8  and  C7_9 
REMARK    5  A    between atoms: C16_22  and  C17_23 
ROOT
HETATM    1  C4  UNL     1      24.512   0.035  53.205  1.00  0.00    -0.019 A 
HETATM    2  C5  UNL     1      23.522   0.195  52.691  1.00  0.00     0.083 A 
HETATM    3  C6  UNL     1      22.190   0.082  52.688  1.00  0.00     0.049 A 
HETATM    4  C13 UNL     1      21.100  -0.348  53.394  1.00  0.00     0.085 A 
HETATM    5  C14 UNL     1      19.829  -0.175  52.797  1.00  0.00     0.103 C 
HETATM    6  N2  UNL     1      18.803  -0.042  52.337  1.00  0.00    -0.191 NA
HETATM    7  C15 UNL     1      21.387  -0.902  54.612  1.00  0.00     0.136 A 
HETATM    8  N3  UNL     1      22.638  -1.014  55.075  1.00  0.00    -0.282 NA
HETATM    9  C16 UNL     1      23.658  -0.488  54.155  1.00  0.00     0.111 A 
ENDROOT
BRANCH   3  10
HETATM   10  N1  UNL     1      22.227   0.709  51.380  1.00  0.00    -0.357 N 
HETATM   11  H4  UNL     1      22.092   0.344  50.397  1.00  0.00     0.166 HD
BRANCH  10  12
HETATM   12  C7  UNL     1      22.507   2.125  51.401  1.00  0.00     0.034 A 
HETATM   13  C8  UNL     1      21.720   2.973  52.184  1.00  0.00     0.032 A 
HETATM   14  C9  UNL     1      21.936   4.334  52.250  1.00  0.00     0.046 A 
HETATM   15  C10 UNL     1      22.968   4.895  51.518  1.00  0.00     0.138 A 
HETATM   16  F1  UNL     1      23.231   6.213  51.537  1.00  0.00    -0.204 F 
HETATM   17  C11 UNL     1      23.768   4.088  50.731  1.00  0.00     0.074 A 
HETATM   18 CL1  UNL     1      25.099   4.705  49.769  1.00  0.00    -0.081 Cl
HETATM   19  C12 UNL     1      23.516   2.736  50.697  1.00  0.00     0.056 A 
ENDBRANCH  10  12
ENDBRANCH   3  10
BRANCH   1  20
HETATM   20  C3  UNL     1      25.401  -0.120  53.688  1.00  0.00    -0.008 A 
HETATM   21  C2  UNL     1      26.375  -0.301  54.196  1.00  0.00     0.065 A 
HETATM   22  C17 UNL     1      26.126  -0.925  52.798  1.00  0.00     0.115 A 
BRANCH  21  23
HETATM   23  O1  UNL     1      27.513  -0.513  54.790  1.00  0.00    -0.359 OA
HETATM   24  C1  UNL     1      28.679   0.273  54.795  1.00  0.00     0.209 C 
ENDBRANCH  21  23
ENDBRANCH   1  20
TORSDOF 5
ENDMDL
MODEL 5
REMARK VINA RESULT:      -7.6      4.192      6.794
REMARK  5 active torsions:
REMARK  status: ('A' for Active; 'I' for Inactive)
REMARK    1  A    between atoms: O1_2  and  C2_3 
REMARK    2  A    between atoms: C3_4  and  C4_5 
REMARK    3  A    between atoms: C6_7  and  N1_8 
REMARK    4  A    between atoms: N1_8  and  C7_9 
REMARK    5  A    between atoms: C16_22  and  C17_23 
ROOT
HETATM    1  C4  UNL     1      25.380  -0.297  53.141  1.00  0.00    -0.019 A 
HETATM    2  C5  UNL     1      24.298  -0.143  52.869  1.00  0.00     0.083 A 
HETATM    3  C6  UNL     1      23.001  -0.244  53.182  1.00  0.00     0.049 A 
HETATM    4  C13 UNL     1      22.107  -0.643  54.136  1.00  0.00     0.085 A 
HETATM    5  C14 UNL     1      20.732  -0.475  53.850  1.00  0.00     0.103 C 
HETATM    6  N2  UNL     1      19.627  -0.347  53.639  1.00  0.00    -0.191 NA
HETATM    7  C15 UNL     1      22.671  -1.164  55.270  1.00  0.00     0.136 A 
HETATM    8  N3  UNL     1      23.995  -1.274  55.429  1.00  0.00    -0.282 NA
HETATM    9  C16 UNL     1      24.772  -0.785  54.280  1.00  0.00     0.111 A 
ENDROOT
BRANCH   3  10
HETATM   10  N1  UNL     1      22.731   0.344  51.883  1.00  0.00    -0.357 N 
HETATM   11  H4  UNL     1      22.711  -0.046  50.900  1.00  0.00     0.166 HD
BRANCH  10  12
HETATM   12  C7  UNL     1      22.429   1.756  51.915  1.00  0.00     0.034 A 
HETATM   13  C8  UNL     1      23.409   2.662  52.323  1.00  0.00     0.032 A 
HETATM   14  C9  UNL     1      23.185   4.023  52.375  1.00  0.00     0.046 A 
HETATM   15  C10 UNL     1      21.947   4.522  52.012  1.00  0.00     0.138 A 
HETATM   16  F1  UNL     1      21.663   5.836  52.041  1.00  0.00    -0.204 F 
HETATM   17  C11 UNL     1      20.951   3.655  51.603  1.00  0.00     0.074 A 
HETATM   18 CL1  UNL     1      19.351   4.192  51.124  1.00  0.00    -0.081 Cl
HETATM   19  C12 UNL     1      21.220   2.307  51.567  1.00  0.00     0.056 A 
ENDBRANCH  10  12
ENDBRANCH   3  10
BRANCH   1  20
HETATM   20  C3  UNL     1      26.357  -0.446  53.407  1.00  0.00    -0.008 A 
HETATM   21  C2  UNL     1      27.420  -0.627  53.682  1.00  0.00     0.065 A 
HETATM   22  C17 UNL     1      26.708  -1.623  52.730  1.00  0.00     0.115 A 
BRANCH  21  23
HETATM   23  O1  UNL     1      28.663  -0.839  54.006  1.00  0.00    -0.359 OA
HETATM   24  C1  UNL     1      29.804  -0.064  53.729  1.00  0.00     0.209 C 
ENDBRANCH  21  23
ENDBRANCH   1  20
TORSDOF 5
ENDMDL
MODEL 6
REMARK VINA RESULT:      -7.5      2.409      4.208
REMARK  5 active torsions:
REMARK  status: ('A' for Active; 'I' for Inactive)
REMARK    1  A    between atoms: O1_2  and  C2_3 
REMARK    2  A    between atoms: C3_4  and  C4_5 
REMARK    3  A    between atoms: C6_7  and  N1_8 
REMARK    4  A    between atoms: N1_8  and  C7_9 
REMARK    5  A    between atoms: C16_22  and  C17_23 
ROOT
HETATM    1  C4  UNL     1      23.348   2.337  50.841  1.00  0.00    -0.019 A 
HETATM    2  C5  UNL     1      23.494   1.881  51.861  1.00  0.00     0.083 A 
HETATM    3  C6  UNL     1      23.147   0.978  52.783  1.00  0.00     0.049 A 
HETATM    4  C13 UNL     1      22.305  -0.060  53.075  1.00  0.00     0.085 A 
HETATM    5  C14 UNL     1      22.440  -0.671  54.343  1.00  0.00     0.103 C 
HETATM    6  N2  UNL     1      22.536  -1.174  55.353  1.00  0.00    -0.191 NA
HETATM    7  C15 UNL     1      21.421  -0.379  52.079  1.00  0.00     0.136 A 
HETATM    8  N3  UNL     1      21.385   0.275  50.913  1.00  0.00    -0.282 NA
HETATM    9  C16 UNL     1      22.377   1.356  50.809  1.00  0.00     0.111 A 
ENDROOT
BRANCH   3  10
HETATM   10  N1  UNL     1      24.189   1.554  53.613  1.00  0.00    -0.357 N 
HETATM   11  H4  UNL     1      24.199   2.331  54.330  1.00  0.00     0.166 HD
BRANCH  10  12
HETATM   12  C7  UNL     1      25.493   0.958  53.438  1.00  0.00     0.034 A 
HETATM   13  C8  UNL     1      26.637   1.727  53.657  1.00  0.00     0.032 A 
HETATM   14  C9  UNL     1      27.911   1.219  53.509  1.00  0.00     0.046 A 
HETATM   15  C10 UNL     1      28.077  -0.101  53.128  1.00  0.00     0.138 A 
HETATM   16  F1  UNL     1      29.290  -0.658  52.965  1.00  0.00    -0.204 F 
HETATM   17  C11 UNL     1      26.967  -0.894  52.902  1.00  0.00     0.074 A 
HETATM   18 CL1  UNL     1      27.075  -2.576  52.419  1.00  0.00    -0.081 Cl
HETATM   19  C12 UNL     1      25.716  -0.344  53.063  1.00  0.00     0.056 A 
ENDBRANCH  10  12
ENDBRANCH   3  10
BRANCH   1  20
HETATM   20  C3  UNL     1      23.199   2.737  49.911  1.00  0.00    -0.008 A 
HETATM   21  C2  UNL     1      23.053   3.189  48.904  1.00  0.00     0.065 A 
HETATM   22  C17 UNL     1      24.044   3.856  49.893  1.00  0.00     0.115 A 
BRANCH  21  23
HETATM   23  O1  UNL     1      22.881   3.717  47.727  1.00  0.00    -0.359 OA
HETATM   24  C1  UNL     1      21.840   3.520  46.801  1.00  0.00     0.209 C 
ENDBRANCH  21  23
ENDBRANCH   1  20
TORSDOF 5
ENDMDL
MODEL 7
REMARK VINA RESULT:      -7.5      3.753      6.124
REMARK  5 active torsions:
REMARK  status: ('A' for Active; 'I' for Inactive)
REMARK    1  A    between atoms: O1_2  and  C2_3 
REMARK    2  A    between atoms: C3_4  and  C4_5 
REMARK    3  A    between atoms: C6_7  and  N1_8 
REMARK    4  A    between atoms: N1_8  and  C7_9 
REMARK    5  A    between atoms: C16_22  and  C17_23 
ROOT
HETATM    1  C4  UNL     1      25.262   0.601  52.966  1.00  0.00    -0.019 A 
HETATM    2  C5  UNL     1      24.427   1.349  52.860  1.00  0.00     0.083 A 
HETATM    3  C6  UNL     1      23.118   1.625  52.830  1.00  0.00     0.049 A 
HETATM    4  C13 UNL     1      21.860   1.097  52.923  1.00  0.00     0.085 A 
HETATM    5  C14 UNL     1      20.769   1.989  52.795  1.00  0.00     0.103 C 
HETATM    6  N2  UNL     1      19.884   2.688  52.696  1.00  0.00    -0.191 NA
HETATM    7  C15 UNL     1      21.818  -0.255  53.133  1.00  0.00     0.136 A 
HETATM    8  N3  UNL     1      22.924  -1.001  53.238  1.00  0.00    -0.282 NA
HETATM    9  C16 UNL     1      24.171  -0.232  53.108  1.00  0.00     0.111 A 
ENDROOT
BRANCH   3  10
HETATM   10  N1  UNL     1      23.503   3.007  52.614  1.00  0.00    -0.357 N 
HETATM   11  H4  UNL     1      23.861   3.768  53.254  1.00  0.00     0.166 HD
BRANCH  10  12
HETATM   12  C7  UNL     1      23.374   3.459  51.248  1.00  0.00     0.034 A 
HETATM   13  C8  UNL     1      23.555   4.811  50.949  1.00  0.00     0.032 A 
HETATM   14  C9  UNL     1      23.447   5.307  49.667  1.00  0.00     0.046 A 
HETATM   15  C10 UNL     1      23.147   4.445  48.627  1.00  0.00     0.138 A 
HETATM   16  F1  UNL     1      23.027   4.864  47.355  1.00  0.00    -0.204 F 
HETATM   17  C11 UNL     1      22.960   3.099  48.884  1.00  0.00     0.074 A 
HETATM   18 CL1  UNL     1      22.579   1.930  47.634  1.00  0.00    -0.081 Cl
HETATM   19  C12 UNL     1      23.078   2.650  50.179  1.00  0.00     0.056 A 
ENDBRANCH  10  12
ENDBRANCH   3  10
BRANCH   1  20
HETATM   20  C3  UNL     1      26.007  -0.094  53.066  1.00  0.00    -0.008 A 
HETATM   21  C2  UNL     1      26.824  -0.845  53.152  1.00  0.00     0.065 A 
HETATM   22  C17 UNL     1      26.683  -0.032  51.838  1.00  0.00     0.115 A 
BRANCH  21  23
HETATM   23  O1  UNL     1      27.778  -1.724  53.253  1.00  0.00    -0.359 OA
HETATM   24  C1  UNL     1      29.157  -1.528  53.453  1.00  0.00     0.209 C 
ENDBRANCH  21  23
ENDBRANCH   1  20
TORSDOF 5
ENDMDL
MODEL 8
REMARK VINA RESULT:      -7.5      4.119      6.643
REMARK  5 active torsions:
REMARK  status: ('A' for Active; 'I' for Inactive)
REMARK    1  A    between atoms: O1_2  and  C2_3 
REMARK    2  A    between atoms: C3_4  and  C4_5 
REMARK    3  A    between atoms: C6_7  and  N1_8 
REMARK    4  A    between atoms: N1_8  and  C7_9 
REMARK    5  A    between atoms: C16_22  and  C17_23 
ROOT
HETATM    1  C4  UNL     1      26.609   5.372  48.983  1.00  0.00    -0.019 A 
HETATM    2  C5  UNL     1      25.828   4.762  49.520  1.00  0.00     0.083 A 
HETATM    3  C6  UNL     1      24.784   4.696  50.352  1.00  0.00     0.049 A 
HETATM    4  C13 UNL     1      23.935   5.419  51.144  1.00  0.00     0.085 A 
HETATM    5  C14 UNL     1      22.934   4.706  51.845  1.00  0.00     0.103 C 
HETATM    6  N2  UNL     1      22.125   4.152  52.412  1.00  0.00    -0.191 NA
HETATM    7  C15 UNL     1      24.168   6.768  51.155  1.00  0.00     0.136 A 
HETATM    8  N3  UNL     1      25.152   7.333  50.446  1.00  0.00    -0.282 NA
HETATM    9  C16 UNL     1      25.945   6.372  49.664  1.00  0.00     0.111 A 
ENDROOT
BRANCH   3  10
HETATM   10  N1  UNL     1      24.802   3.263  50.122  1.00  0.00    -0.357 N 
HETATM   11  H4  UNL     1      24.500   2.655  49.312  1.00  0.00     0.166 HD
BRANCH  10  12
HETATM   12  C7  UNL     1      25.338   2.487  51.216  1.00  0.00     0.034 A 
HETATM   13  C8  UNL     1      24.595   1.426  51.737  1.00  0.00     0.032 A 
HETATM   14  C9  UNL     1      25.049   0.646  52.781  1.00  0.00     0.046 A 
HETATM   15  C10 UNL     1      26.285   0.913  53.341  1.00  0.00     0.138 A 
HETATM   16  F1  UNL     1      26.786   0.191  54.360  1.00  0.00    -0.204 F 
HETATM   17  C11 UNL     1      27.049   1.955  52.852  1.00  0.00     0.074 A 
HETATM   18 CL1  UNL     1      28.627   2.370  53.496  1.00  0.00    -0.081 Cl
HETATM   19  C12 UNL     1      26.556   2.707  51.811  1.00  0.00     0.056 A 
ENDBRANCH  10  12
ENDBRANCH   3  10
BRANCH   1  20
HETATM   20  C3  UNL     1      27.310   5.944  48.505  1.00  0.00    -0.008 A 
HETATM   21  C2  UNL     1      28.088   6.547  47.986  1.00  0.00     0.065 A 
HETATM   22  C17 UNL     1      28.422   5.094  48.411  1.00  0.00     0.115 A 
BRANCH  21  23
HETATM   23  O1  UNL     1      28.997   7.254  47.379  1.00  0.00    -0.359 OA
HETATM   24  C1  UNL     1      29.420   8.572  47.629  1.00  0.00     0.209 C 
ENDBRANCH  21  23
ENDBRANCH   1  20
TORSDOF 5
ENDMDL
MODEL 9
REMARK VINA RESULT:      -7.4      3.447      5.767
REMARK  5 active torsions:
REMARK  status: ('A' for Active; 'I' for Inactive)
REMARK    1  A    between atoms: O1_2  and  C2_3 
REMARK    2  A    between atoms: C3_4  and  C4_5 
REMARK    3  A    between atoms: C6_7  and  N1_8 
REMARK    4  A    between atoms: N1_8  and  C7_9 
REMARK    5  A    between atoms: C16_22  and  C17_23 
ROOT
HETATM    1  C4  UNL     1      25.800   1.361  53.050  1.00  0.00    -0.019 A 
HETATM    2  C5  UNL     1      25.020   2.110  52.735  1.00  0.00     0.083 A 
HETATM    3  C6  UNL     1      24.594   3.044  51.877  1.00  0.00     0.049 A 
HETATM    4  C13 UNL     1      24.888   3.729  50.730  1.00  0.00     0.085 A 
HETATM    5  C14 UNL     1      23.945   4.686  50.285  1.00  0.00     0.103 C 
HETATM    6  N2  UNL     1      23.202   5.455  49.913  1.00  0.00    -0.191 NA
HETATM    7  C15 UNL     1      26.080   3.392  50.149  1.00  0.00     0.136 A 
HETATM    8  N3  UNL     1      26.895   2.465  50.664  1.00  0.00    -0.282 NA
HETATM    9  C16 UNL     1      26.387   1.852  51.901  1.00  0.00     0.111 A 
ENDROOT
BRANCH   3  10
HETATM   10  N1  UNL     1      23.422   3.162  52.723  1.00  0.00    -0.357 N 
HETATM   11  H4  UNL     1      23.172   3.796  53.532  1.00  0.00     0.166 HD
BRANCH  10  12
HETATM   12  C7  UNL     1      22.364   2.228  52.417  1.00  0.00     0.034 A 
HETATM   13  C8  UNL     1      21.559   2.442  51.296  1.00  0.00     0.032 A 
HETATM   14  C9  UNL     1      20.533   1.588  50.947  1.00  0.00     0.046 A 
HETATM   15  C10 UNL     1      20.281   0.474  51.728  1.00  0.00     0.138 A 
HETATM   16  F1  UNL     1      19.297  -0.398  51.444  1.00  0.00    -0.204 F 
HETATM   17  C11 UNL     1      21.057   0.229  52.845  1.00  0.00     0.074 A 
HETATM   18 CL1  UNL     1      20.816  -1.156  53.894  1.00  0.00    -0.081 Cl
HETATM   19  C12 UNL     1      22.069   1.107  53.154  1.00  0.00     0.056 A 
ENDBRANCH  10  12
ENDBRANCH   3  10
BRANCH   1  20
HETATM   20  C3  UNL     1      26.520   0.685  53.320  1.00  0.00    -0.008 A 
HETATM   21  C2  UNL     1      27.292  -0.066  53.600  1.00  0.00     0.065 A 
HETATM   22  C17 UNL     1      26.109  -0.502  52.697  1.00  0.00     0.115 A 
BRANCH  21  23
HETATM   23  O1  UNL     1      28.195  -0.943  53.929  1.00  0.00    -0.359 OA
HETATM   24  C1  UNL     1      29.588  -0.908  53.739  1.00  0.00     0.209 C 
ENDBRANCH  21  23
ENDBRANCH   1  20
TORSDOF 5
ENDMDL
