MODEL 1
REMARK VINA RESULT:      -9.0      0.000      0.000
REMARK  1 active torsions:
REMARK  status: ('A' for Active; 'I' for Inactive)
REMARK    1  A    between atoms: C2_2  and  C3_3 
ROOT
HETATM    1  C3  UNL     1      27.377  -0.699  53.709  1.00  0.00     0.003 C 
HETATM    2  C4  UNL     1      26.590   0.325  53.318  1.00  0.00    -0.054 C 
HETATM    3  C5  UNL     1      27.061   1.084  52.172  1.00  0.00     0.011 C 
HETATM    4  C6  UNL     1      26.807   2.056  51.349  1.00  0.00     0.053 C 
HETATM    5  C7  UNL     1      25.746   3.020  51.111  1.00  0.00     0.174 C 
HETATM    6  O1  UNL     1      25.687   3.970  50.274  1.00  0.00    -0.291 OA
HETATM    7  C8  UNL     1      24.410   3.539  51.431  1.00  0.00     0.185 C 
HETATM    8  C9  UNL     1      24.102   3.261  52.878  1.00  0.00     0.074 C 
HETATM    9  C10 UNL     1      23.807   1.777  53.027  1.00  0.00    -0.047 A 
HETATM   10  C11 UNL     1      22.615   1.835  52.350  1.00  0.00     0.037 A 
HETATM   11  C12 UNL     1      21.735   0.766  52.082  1.00  0.00     0.029 A 
HETATM   12  C13 UNL     1      22.135  -0.489  52.573  1.00  0.00     0.030 A 
HETATM   13  C14 UNL     1      23.357  -0.509  53.258  1.00  0.00     0.010 A 
HETATM   14  C15 UNL     1      24.183   0.548  53.495  1.00  0.00    -0.047 A 
HETATM   15  C16 UNL     1      25.430   0.531  54.220  1.00  0.00     0.077 C 
HETATM   16  N1  UNL     1      20.500   0.580  51.381  1.00  0.00    -0.372 N 
HETATM   17  C17 UNL     1      20.738   0.726  49.957  1.00  0.00     0.266 C 
HETATM   18  N2  UNL     1      21.331   1.979  49.599  1.00  0.00    -0.282 N 
HETATM   19  C18 UNL     1      21.088   2.616  48.534  1.00  0.00     0.195 A 
HETATM   20  N3  UNL     1      22.036   3.322  49.319  1.00  0.00    -0.161 NA
HETATM   21  C19 UNL     1      22.099   4.587  49.253  1.00  0.00     0.108 C 
HETATM   22  C20 UNL     1      23.155   5.131  50.154  1.00  0.00     0.125 C 
HETATM   23  N4  UNL     1      24.091   4.840  51.024  1.00  0.00    -0.287 NA
HETATM   24  H15 UNL     1      19.757   0.385  52.101  1.00  0.00     0.161 HD
ENDROOT
BRANCH   1  25
HETATM   25  C2  UNL     1      28.606  -1.043  53.083  1.00  0.00    -0.026 C 
HETATM   26  C1  UNL     1      29.858  -0.881  53.589  1.00  0.00     0.031 C 
ENDBRANCH   1  25
TORSDOF 1
ENDMDL
MODEL 2
REMARK VINA RESULT:      -8.4      2.498      6.696
REMARK  1 active torsions:
REMARK  status: ('A' for Active; 'I' for Inactive)
REMARK    1  A    between atoms: C2_2  and  C3_3 
ROOT
HETATM    1  C3  UNL     1      22.272   4.163  46.867  1.00  0.00     0.003 C 
HETATM    2  C4  UNL     1      22.288   3.661  48.119  1.00  0.00    -0.054 C 
HETATM    3  C5  UNL     1      21.688   2.347  48.282  1.00  0.00     0.011 C 
HETATM    4  C6  UNL     1      21.428   1.380  49.108  1.00  0.00     0.053 C 
HETATM    5  C7  UNL     1      21.654   1.066  50.509  1.00  0.00     0.174 C 
HETATM    6  O1  UNL     1      21.265   0.070  51.190  1.00  0.00    -0.291 OA
HETATM    7  C8  UNL     1      22.255   1.411  51.804  1.00  0.00     0.185 C 
HETATM    8  C9  UNL     1      22.367   2.908  51.917  1.00  0.00     0.074 C 
HETATM    9  C10 UNL     1      23.499   3.372  51.015  1.00  0.00    -0.047 A 
HETATM   10  C11 UNL     1      24.488   2.820  51.789  1.00  0.00     0.037 A 
HETATM   11  C12 UNL     1      25.877   2.855  51.549  1.00  0.00     0.029 A 
HETATM   12  C13 UNL     1      26.277   3.539  50.386  1.00  0.00     0.030 A 
HETATM   13  C14 UNL     1      25.239   4.088  49.622  1.00  0.00     0.010 A 
HETATM   14  C15 UNL     1      23.904   4.031  49.887  1.00  0.00    -0.047 A 
HETATM   15  C16 UNL     1      22.838   4.617  49.112  1.00  0.00     0.077 C 
HETATM   16  N1  UNL     1      27.058   2.331  52.166  1.00  0.00    -0.372 N 
HETATM   17  C17 UNL     1      27.078   0.889  52.002  1.00  0.00     0.266 C 
HETATM   18  N2  UNL     1      25.913   0.236  52.518  1.00  0.00    -0.282 N 
HETATM   19  C18 UNL     1      25.906  -0.903  53.068  1.00  0.00     0.195 A 
HETATM   20  N3  UNL     1      24.592  -0.369  53.035  1.00  0.00    -0.161 NA
HETATM   21  C19 UNL     1      23.755  -0.687  53.933  1.00  0.00     0.108 C 
HETATM   22  C20 UNL     1      22.439  -0.020  53.716  1.00  0.00     0.125 C 
HETATM   23  N4  UNL     1      21.749   0.792  52.954  1.00  0.00    -0.287 NA
HETATM   24  H15 UNL     1      27.589   3.146  52.570  1.00  0.00     0.161 HD
ENDROOT
BRANCH   1  25
HETATM   25  C2  UNL     1      21.702   3.496  45.748  1.00  0.00    -0.026 C 
HETATM   26  C1  UNL     1      21.192   4.068  44.625  1.00  0.00     0.031 C 
ENDBRANCH   1  25
TORSDOF 1
ENDMDL
MODEL 3
REMARK VINA RESULT:      -8.3      2.443      4.856
REMARK  1 active torsions:
REMARK  status: ('A' for Active; 'I' for Inactive)
REMARK    1  A    between atoms: C2_2  and  C3_3 
ROOT
HETATM    1  C3  UNL     1      27.495   1.679  52.469  1.00  0.00     0.003 C 
HETATM    2  C4  UNL     1      26.360   2.143  51.904  1.00  0.00    -0.054 C 
HETATM    3  C5  UNL     1      25.302   2.519  52.827  1.00  0.00     0.011 C 
HETATM    4  C6  UNL     1      24.108   3.014  52.948  1.00  0.00     0.053 C 
HETATM    5  C7  UNL     1      23.063   3.538  52.084  1.00  0.00     0.174 C 
HETATM    6  O1  UNL     1      21.895   3.935  52.373  1.00  0.00    -0.291 OA
HETATM    7  C8  UNL     1      22.603   3.927  50.744  1.00  0.00     0.185 C 
HETATM    8  C9  UNL     1      23.310   3.089  49.713  1.00  0.00     0.074 C 
HETATM    9  C10 UNL     1      24.746   3.574  49.605  1.00  0.00    -0.047 A 
HETATM   10  C11 UNL     1      24.414   4.768  49.017  1.00  0.00     0.037 A 
HETATM   11  C12 UNL     1      25.295   5.792  48.612  1.00  0.00     0.029 A 
HETATM   12  C13 UNL     1      26.660   5.546  48.840  1.00  0.00     0.030 A 
HETATM   13  C14 UNL     1      26.960   4.317  49.443  1.00  0.00     0.010 A 
HETATM   14  C15 UNL     1      26.079   3.352  49.822  1.00  0.00    -0.047 A 
HETATM   15  C16 UNL     1      26.390   2.077  50.422  1.00  0.00     0.077 C 
HETATM   16  N1  UNL     1      25.183   7.099  48.038  1.00  0.00    -0.372 N 
HETATM   17  C17 UNL     1      24.606   7.999  49.018  1.00  0.00     0.266 C 
HETATM   18  N2  UNL     1      23.337   7.565  49.520  1.00  0.00    -0.282 N 
HETATM   19  C18 UNL     1      22.383   8.332  49.836  1.00  0.00     0.195 A 
HETATM   20  N3  UNL     1      22.013   6.980  50.054  1.00  0.00    -0.161 NA
HETATM   21  C19 UNL     1      20.798   6.631  49.959  1.00  0.00     0.108 C 
HETATM   22  C20 UNL     1      20.625   5.173  50.223  1.00  0.00     0.125 C 
HETATM   23  N4  UNL     1      21.225   4.049  50.528  1.00  0.00    -0.287 NA
HETATM   24  H15 UNL     1      25.558   7.043  47.055  1.00  0.00     0.161 HD
ENDROOT
BRANCH   1  25
HETATM   25  C2  UNL     1      27.687   1.535  53.870  1.00  0.00    -0.026 C 
HETATM   26  C1  UNL     1      27.915   0.381  54.552  1.00  0.00     0.031 C 
ENDBRANCH   1  25
TORSDOF 1
ENDMDL
MODEL 4
REMARK VINA RESULT:      -8.2      2.981      4.963
REMARK  1 active torsions:
REMARK  status: ('A' for Active; 'I' for Inactive)
REMARK    1  A    between atoms: C2_2  and  C3_3 
ROOT
HETATM    1  C3  UNL     1      22.814  -0.113  53.136  1.00  0.00     0.003 C 
HETATM    2  C4  UNL     1      22.822   0.663  52.031  1.00  0.00    -0.054 C 
HETATM    3  C5  UNL     1      21.684   0.507  51.141  1.00  0.00     0.011 C 
HETATM    4  C6  UNL     1      21.108   0.918  50.052  1.00  0.00     0.053 C 
HETATM    5  C7  UNL     1      21.341   1.908  49.015  1.00  0.00     0.174 C 
HETATM    6  O1  UNL     1      20.687   2.141  47.954  1.00  0.00    -0.291 OA
HETATM    7  C8  UNL     1      22.134   3.025  48.483  1.00  0.00     0.185 C 
HETATM    8  C9  UNL     1      23.559   2.889  48.949  1.00  0.00     0.074 C 
HETATM    9  C10 UNL     1      23.618   3.254  50.423  1.00  0.00    -0.047 A 
HETATM   10  C11 UNL     1      23.372   4.588  50.213  1.00  0.00     0.037 A 
HETATM   11  C12 UNL     1      23.278   5.600  51.191  1.00  0.00     0.029 A 
HETATM   12  C13 UNL     1      23.460   5.181  52.521  1.00  0.00     0.030 A 
HETATM   13  C14 UNL     1      23.707   3.813  52.694  1.00  0.00     0.010 A 
HETATM   14  C15 UNL     1      23.790   2.863  51.723  1.00  0.00    -0.047 A 
HETATM   15  C16 UNL     1      24.068   1.458  51.900  1.00  0.00     0.077 C 
HETATM   16  N1  UNL     1      22.994   7.004  51.218  1.00  0.00    -0.372 N 
HETATM   17  C17 UNL     1      21.598   7.211  50.883  1.00  0.00     0.266 C 
HETATM   18  N2  UNL     1      21.219   6.650  49.622  1.00  0.00    -0.282 N 
HETATM   19  C18 UNL     1      20.373   7.156  48.830  1.00  0.00     0.195 A 
HETATM   20  N3  UNL     1      20.889   5.950  48.287  1.00  0.00    -0.161 NA
HETATM   21  C19 UNL     1      20.957   5.798  47.030  1.00  0.00     0.108 C 
HETATM   22  C20 UNL     1      21.528   4.468  46.670  1.00  0.00     0.125 C 
HETATM   23  N4  UNL     1      22.009   3.337  47.124  1.00  0.00    -0.287 NA
HETATM   24  H15 UNL     1      23.887   7.499  51.477  1.00  0.00     0.161 HD
ENDROOT
BRANCH   1  25
HETATM   25  C2  UNL     1      21.789  -1.048  53.446  1.00  0.00    -0.026 C 
HETATM   26  C1  UNL     1      21.541  -1.623  54.653  1.00  0.00     0.031 C 
ENDBRANCH   1  25
TORSDOF 1
ENDMDL
MODEL 5
REMARK VINA RESULT:      -7.7      4.570      7.106
REMARK  1 active torsions:
REMARK  status: ('A' for Active; 'I' for Inactive)
REMARK    1  A    between atoms: C2_2  and  C3_3 
ROOT
HETATM    1  C3  UNL     1      22.806   0.592  52.235  1.00  0.00     0.003 C 
HETATM    2  C4  UNL     1      21.495   0.402  51.976  1.00  0.00    -0.054 C 
HETATM    3  C5  UNL     1      20.744  -0.306  52.999  1.00  0.00     0.011 C 
HETATM    4  C6  UNL     1      19.578  -0.743  53.366  1.00  0.00     0.053 C 
HETATM    5  C7  UNL     1      18.214  -0.733  52.865  1.00  0.00     0.174 C 
HETATM    6  O1  UNL     1      17.173  -1.280  53.337  1.00  0.00    -0.291 OA
HETATM    7  C8  UNL     1      17.235  -0.292  51.863  1.00  0.00     0.185 C 
HETATM    8  C9  UNL     1      17.931  -0.091  50.543  1.00  0.00     0.074 C 
HETATM    9  C10 UNL     1      18.756   1.184  50.626  1.00  0.00    -0.047 A 
HETATM   10  C11 UNL     1      17.666   2.016  50.655  1.00  0.00     0.037 A 
HETATM   11  C12 UNL     1      17.672   3.424  50.734  1.00  0.00     0.029 A 
HETATM   12  C13 UNL     1      18.942   4.026  50.786  1.00  0.00     0.030 A 
HETATM   13  C14 UNL     1      20.030   3.143  50.756  1.00  0.00     0.010 A 
HETATM   14  C15 UNL     1      19.984   1.785  50.680  1.00  0.00    -0.047 A 
HETATM   15  C16 UNL     1      21.105   0.877  50.626  1.00  0.00     0.077 C 
HETATM   16  N1  UNL     1      16.697   4.470  50.821  1.00  0.00    -0.372 N 
HETATM   17  C17 UNL     1      16.053   4.411  52.120  1.00  0.00     0.266 C 
HETATM   18  N2  UNL     1      15.452   3.143  52.406  1.00  0.00    -0.282 N 
HETATM   19  C18 UNL     1      14.384   2.981  53.063  1.00  0.00     0.195 A 
HETATM   20  N3  UNL     1      14.899   1.725  52.653  1.00  0.00    -0.161 NA
HETATM   21  C19 UNL     1      14.112   0.753  52.445  1.00  0.00     0.108 C 
HETATM   22  C20 UNL     1      14.852  -0.471  52.022  1.00  0.00     0.125 C 
HETATM   23  N4  UNL     1      16.026  -0.991  51.766  1.00  0.00    -0.287 NA
HETATM   24  H15 UNL     1      16.722   4.998  49.910  1.00  0.00     0.161 HD
ENDROOT
BRANCH   1  25
HETATM   25  C2  UNL     1      23.461   0.135  53.411  1.00  0.00    -0.026 C 
HETATM   26  C1  UNL     1      24.705  -0.406  53.500  1.00  0.00     0.031 C 
ENDBRANCH   1  25
TORSDOF 1
ENDMDL
MODEL 6
REMARK VINA RESULT:      -7.7      8.739     11.957
REMARK  1 active torsions:
REMARK  status: ('A' for Active; 'I' for Inactive)
REMARK    1  A    between atoms: C2_2  and  C3_3 
ROOT
HETATM    1  C3  UNL     1      28.378  10.411  49.069  1.00  0.00     0.003 C 
HETATM    2  C4  UNL     1      29.224   9.363  48.979  1.00  0.00    -0.054 C 
HETATM    3  C5  UNL     1      28.636   8.113  48.526  1.00  0.00     0.011 C 
HETATM    4  C6  UNL     1      28.859   6.872  48.217  1.00  0.00     0.053 C 
HETATM    5  C7  UNL     1      29.991   5.964  48.142  1.00  0.00     0.174 C 
HETATM    6  O1  UNL     1      30.021   4.726  47.872  1.00  0.00    -0.291 OA
HETATM    7  C8  UNL     1      31.438   5.731  48.238  1.00  0.00     0.185 C 
HETATM    8  C9  UNL     1      32.035   6.709  49.214  1.00  0.00     0.074 C 
HETATM    9  C10 UNL     1      32.072   8.080  48.557  1.00  0.00    -0.047 A 
HETATM   10  C11 UNL     1      33.048   7.740  47.655  1.00  0.00     0.037 A 
HETATM   11  C12 UNL     1      33.617   8.568  46.665  1.00  0.00     0.029 A 
HETATM   12  C13 UNL     1      33.120   9.882  46.610  1.00  0.00     0.030 A 
HETATM   13  C14 UNL     1      32.124  10.190  47.546  1.00  0.00     0.010 A 
HETATM   14  C15 UNL     1      31.597   9.361  48.488  1.00  0.00    -0.047 A 
HETATM   15  C16 UNL     1      30.587   9.686  49.467  1.00  0.00     0.077 C 
HETATM   16  N1  UNL     1      34.583   8.430  45.616  1.00  0.00    -0.372 N 
HETATM   17  C17 UNL     1      34.033   7.580  44.575  1.00  0.00     0.266 C 
HETATM   18  N2  UNL     1      33.618   6.293  45.044  1.00  0.00    -0.282 N 
HETATM   19  C18 UNL     1      33.707   5.219  44.382  1.00  0.00     0.195 A 
HETATM   20  N3  UNL     1      33.133   4.962  45.654  1.00  0.00    -0.161 NA
HETATM   21  C19 UNL     1      33.296   3.832  46.207  1.00  0.00     0.108 C 
HETATM   22  C20 UNL     1      32.617   3.769  47.533  1.00  0.00     0.125 C 
HETATM   23  N4  UNL     1      31.887   4.416  48.408  1.00  0.00    -0.287 NA
HETATM   24  H15 UNL     1      35.430   8.990  45.894  1.00  0.00     0.161 HD
ENDROOT
BRANCH   1  25
HETATM   25  C2  UNL     1      26.990  10.344  48.768  1.00  0.00    -0.026 C 
HETATM   26  C1  UNL     1      26.211  11.338  48.265  1.00  0.00     0.031 C 
ENDBRANCH   1  25
TORSDOF 1
ENDMDL
MODEL 7
REMARK VINA RESULT:      -7.5      3.135      4.328
REMARK  1 active torsions:
REMARK  status: ('A' for Active; 'I' for Inactive)
REMARK    1  A    between atoms: C2_2  and  C3_3 
ROOT
HETATM    1  C3  UNL     1      25.793   3.244  50.715  1.00  0.00     0.003 C 
HETATM    2  C4  UNL     1      24.472   3.498  50.816  1.00  0.00    -0.054 C 
HETATM    3  C5  UNL     1      23.786   3.787  49.567  1.00  0.00     0.011 C 
HETATM    4  C6  UNL     1      22.646   4.051  49.004  1.00  0.00     0.053 C 
HETATM    5  C7  UNL     1      21.256   4.203  49.399  1.00  0.00     0.174 C 
HETATM    6  O1  UNL     1      20.248   4.535  48.706  1.00  0.00    -0.291 OA
HETATM    7  C8  UNL     1      20.218   4.136  50.436  1.00  0.00     0.185 C 
HETATM    8  C9  UNL     1      20.837   4.427  51.778  1.00  0.00     0.074 C 
HETATM    9  C10 UNL     1      21.654   3.216  52.200  1.00  0.00    -0.047 A 
HETATM   10  C11 UNL     1      20.560   2.415  52.409  1.00  0.00     0.037 A 
HETATM   11  C12 UNL     1      20.558   1.071  52.836  1.00  0.00     0.029 A 
HETATM   12  C13 UNL     1      21.824   0.505  53.073  1.00  0.00     0.030 A 
HETATM   13  C14 UNL     1      22.916   1.354  52.847  1.00  0.00     0.010 A 
HETATM   14  C15 UNL     1      22.877   2.650  52.432  1.00  0.00    -0.047 A 
HETATM   15  C16 UNL     1      24.001   3.530  52.222  1.00  0.00     0.077 C 
HETATM   16  N1  UNL     1      19.581   0.051  53.073  1.00  0.00    -0.372 N 
HETATM   17  C17 UNL     1      19.011  -0.363  51.804  1.00  0.00     0.266 C 
HETATM   18  N2  UNL     1      18.438   0.712  51.053  1.00  0.00    -0.282 N 
HETATM   19  C18 UNL     1      17.410   0.617  50.322  1.00  0.00     0.195 A 
HETATM   20  N3  UNL     1      17.913   1.943  50.286  1.00  0.00    -0.161 NA
HETATM   21  C19 UNL     1      17.123   2.916  50.091  1.00  0.00     0.108 C 
HETATM   22  C20 UNL     1      17.849   4.219  50.091  1.00  0.00     0.125 C 
HETATM   23  N4  UNL     1      19.012   4.811  50.210  1.00  0.00    -0.287 NA
HETATM   24  H15 UNL     1      19.549  -0.117  54.112  1.00  0.00     0.161 HD
ENDROOT
BRANCH   1  25
HETATM   25  C2  UNL     1      26.517   3.261  49.491  1.00  0.00    -0.026 C 
HETATM   26  C1  UNL     1      27.255   4.286  48.989  1.00  0.00     0.031 C 
ENDBRANCH   1  25
TORSDOF 1
ENDMDL
MODEL 8
REMARK VINA RESULT:      -7.3      4.492      7.361
REMARK  1 active torsions:
REMARK  status: ('A' for Active; 'I' for Inactive)
REMARK    1  A    between atoms: C2_2  and  C3_3 
ROOT
HETATM    1  C3  UNL     1      28.356   8.132  46.014  1.00  0.00     0.003 C 
HETATM    2  C4  UNL     1      27.397   8.043  46.960  1.00  0.00    -0.054 C 
HETATM    3  C5  UNL     1      26.069   8.474  46.557  1.00  0.00     0.011 C 
HETATM    4  C6  UNL     1      24.828   8.605  46.916  1.00  0.00     0.053 C 
HETATM    5  C7  UNL     1      24.006   8.330  48.082  1.00  0.00     0.174 C 
HETATM    6  O1  UNL     1      22.782   8.587  48.290  1.00  0.00    -0.291 OA
HETATM    7  C8  UNL     1      23.868   7.767  49.431  1.00  0.00     0.185 C 
HETATM    8  C9  UNL     1      25.194   7.841  50.139  1.00  0.00     0.074 C 
HETATM    9  C10 UNL     1      26.112   6.783  49.547  1.00  0.00    -0.047 A 
HETATM   10  C11 UNL     1      25.414   5.727  50.077  1.00  0.00     0.037 A 
HETATM   11  C12 UNL     1      25.706   4.355  49.930  1.00  0.00     0.029 A 
HETATM   12  C13 UNL     1      26.841   4.052  49.157  1.00  0.00     0.030 A 
HETATM   13  C14 UNL     1      27.526   5.157  48.633  1.00  0.00     0.010 A 
HETATM   14  C15 UNL     1      27.211   6.471  48.795  1.00  0.00    -0.047 A 
HETATM   15  C16 UNL     1      27.931   7.609  48.274  1.00  0.00     0.077 C 
HETATM   16  N1  UNL     1      25.119   3.113  50.336  1.00  0.00    -0.372 N 
HETATM   17  C17 UNL     1      23.879   2.915  49.610  1.00  0.00     0.266 C 
HETATM   18  N2  UNL     1      22.942   3.985  49.771  1.00  0.00    -0.282 N 
HETATM   19  C18 UNL     1      21.686   3.846  49.818  1.00  0.00     0.195 A 
HETATM   20  N3  UNL     1      22.030   5.217  49.945  1.00  0.00    -0.161 NA
HETATM   21  C19 UNL     1      21.282   6.000  50.604  1.00  0.00     0.108 C 
HETATM   22  C20 UNL     1      21.821   7.391  50.617  1.00  0.00     0.125 C 
HETATM   23  N4  UNL     1      22.784   8.182  50.214  1.00  0.00    -0.287 NA
HETATM   24  H15 UNL     1      25.760   2.683  51.054  1.00  0.00     0.161 HD
ENDROOT
BRANCH   1  25
HETATM   25  C2  UNL     1      28.134   8.624  44.698  1.00  0.00    -0.026 C 
HETATM   26  C1  UNL     1      28.789   9.644  44.082  1.00  0.00     0.031 C 
ENDBRANCH   1  25
TORSDOF 1
ENDMDL
MODEL 9
REMARK VINA RESULT:      -7.3      8.063     10.021
REMARK  1 active torsions:
REMARK  status: ('A' for Active; 'I' for Inactive)
REMARK    1  A    between atoms: C2_2  and  C3_3 
ROOT
HETATM    1  C3  UNL     1      32.968   4.307  46.872  1.00  0.00     0.003 C 
HETATM    2  C4  UNL     1      32.540   5.520  47.279  1.00  0.00    -0.054 C 
HETATM    3  C5  UNL     1      32.925   6.642  46.438  1.00  0.00     0.011 C 
HETATM    4  C6  UNL     1      32.832   7.923  46.248  1.00  0.00     0.053 C 
HETATM    5  C7  UNL     1      32.183   9.063  46.872  1.00  0.00     0.174 C 
HETATM    6  O1  UNL     1      32.252  10.295  46.581  1.00  0.00    -0.291 OA
HETATM    7  C8  UNL     1      31.278   9.603  47.895  1.00  0.00     0.185 C 
HETATM    8  C9  UNL     1      31.299   8.704  49.102  1.00  0.00     0.074 C 
HETATM    9  C10 UNL     1      30.528   7.436  48.768  1.00  0.00    -0.047 A 
HETATM   10  C11 UNL     1      29.306   8.059  48.732  1.00  0.00     0.037 A 
HETATM   11  C12 UNL     1      28.056   7.464  48.463  1.00  0.00     0.029 A 
HETATM   12  C13 UNL     1      28.081   6.082  48.207  1.00  0.00     0.030 A 
HETATM   13  C14 UNL     1      29.347   5.482  48.252  1.00  0.00     0.010 A 
HETATM   14  C15 UNL     1      30.535   6.092  48.515  1.00  0.00    -0.047 A 
HETATM   15  C16 UNL     1      31.836   5.469  48.584  1.00  0.00     0.077 C 
HETATM   16  N1  UNL     1      26.699   7.901  48.329  1.00  0.00    -0.372 N 
HETATM   17  C17 UNL     1      26.572   8.691  47.119  1.00  0.00     0.266 C 
HETATM   18  N2  UNL     1      27.464   9.810  47.067  1.00  0.00    -0.282 N 
HETATM   19  C18 UNL     1      27.191  10.928  46.543  1.00  0.00     0.195 A 
HETATM   20  N3  UNL     1      28.509  10.944  47.068  1.00  0.00    -0.161 NA
HETATM   21  C19 UNL     1      29.015  12.031  47.481  1.00  0.00     0.108 C 
HETATM   22  C20 UNL     1      30.402  11.830  47.992  1.00  0.00     0.125 C 
HETATM   23  N4  UNL     1      31.364  10.966  48.202  1.00  0.00    -0.287 NA
HETATM   24  H15 UNL     1      26.165   7.522  49.154  1.00  0.00     0.161 HD
ENDROOT
BRANCH   1  25
HETATM   25  C2  UNL     1      33.759   4.089  45.710  1.00  0.00    -0.026 C 
HETATM   26  C1  UNL     1      35.034   3.618  45.663  1.00  0.00     0.031 C 
ENDBRANCH   1  25
TORSDOF 1
ENDMDL
