MODEL 1
REMARK VINA RESULT:      -7.2      0.000      0.000
REMARK  6 active torsions:
REMARK  status: ('A' for Active; 'I' for Inactive)
REMARK    1  A    between atoms: C2_2  and  C3_3 
REMARK    2  A    between atoms: C4_4  and  C5_5 
REMARK    3  A    between atoms: C4_4  and  O2_21 
REMARK    4  A    between atoms: C8_8  and  N1_9 
REMARK    5  A    between atoms: N1_9  and  C9_10 
REMARK    6  A    between atoms: C12_13  and  O1_14 
ROOT
HETATM    1  C5  UNL     1      25.876   1.741  53.899  1.00  0.00     0.064 C 
HETATM    2  C6  UNL     1      25.362   2.423  52.860  1.00  0.00     0.045 A 
HETATM    3  C7  UNL     1      26.140   2.464  51.597  1.00  0.00     0.137 A 
HETATM    4  C8  UNL     1      25.348   3.275  50.619  1.00  0.00     0.111 A 
HETATM    5  N2  UNL     1      24.208   3.820  50.869  1.00  0.00    -0.228 NA
HETATM    6  C16 UNL     1      23.565   3.707  52.132  1.00  0.00     0.235 A 
HETATM    7  N3  UNL     1      24.105   3.045  53.088  1.00  0.00    -0.246 NA
ENDROOT
BRANCH   4   8
HETATM    8  N1  UNL     1      25.968   3.411  49.327  1.00  0.00    -0.346 N 
HETATM    9  H10 UNL     1      25.942   2.648  48.623  1.00  0.00     0.167 HD
BRANCH   8  10
HETATM   10  C9  UNL     1      26.635   4.639  49.025  1.00  0.00     0.030 A 
HETATM   11  C10 UNL     1      26.207   5.967  49.075  1.00  0.00     0.038 A 
HETATM   12  C11 UNL     1      27.464   6.344  48.638  1.00  0.00    -0.003 A 
HETATM   13  C12 UNL     1      28.696   6.813  48.203  1.00  0.00     0.073 A 
HETATM   14  C15 UNL     1      27.900   4.975  48.589  1.00  0.00     0.073 A 
HETATM   15  C14 UNL     1      29.104   5.492  48.160  1.00  0.00     0.033 A 
BRANCH  13  16
HETATM   16  O1  UNL     1      29.175   8.103  47.959  1.00  0.00    -0.356 OA
HETATM   17  C13 UNL     1      29.446   9.006  49.019  1.00  0.00     0.210 C 
ENDBRANCH  13  16
ENDBRANCH   8  10
ENDBRANCH   4   8
BRANCH   1  18
HETATM   18  C4  UNL     1      27.129   1.020  53.936  1.00  0.00     0.066 C 
HETATM   19  C3  UNL     1      27.315  -0.200  53.407  1.00  0.00     0.010 C 
BRANCH  19  20
HETATM   20  C2  UNL     1      26.418  -1.114  52.695  1.00  0.00     0.025 C 
HETATM   21  C1  UNL     1      27.166  -2.413  52.476  1.00  0.00     0.009 C 
ENDBRANCH  19  20
BRANCH  18  22
HETATM   22  O2  UNL     1      28.211   1.603  54.545  1.00  0.00    -0.356 OA
HETATM   23  C17 UNL     1      29.160   2.367  53.850  1.00  0.00     0.210 C 
ENDBRANCH  18  22
ENDBRANCH   1  18
TORSDOF 6
ENDMDL
MODEL 2
REMARK VINA RESULT:      -7.2      4.169      6.601
REMARK  6 active torsions:
REMARK  status: ('A' for Active; 'I' for Inactive)
REMARK    1  A    between atoms: C2_2  and  C3_3 
REMARK    2  A    between atoms: C4_4  and  C5_5 
REMARK    3  A    between atoms: C4_4  and  O2_21 
REMARK    4  A    between atoms: C8_8  and  N1_9 
REMARK    5  A    between atoms: N1_9  and  C9_10 
REMARK    6  A    between atoms: C12_13  and  O1_14 
ROOT
HETATM    1  C5  UNL     1      20.435   1.945  52.628  1.00  0.00     0.064 C 
HETATM    2  C6  UNL     1      21.519   2.655  52.269  1.00  0.00     0.045 A 
HETATM    3  C7  UNL     1      22.660   1.929  51.658  1.00  0.00     0.137 A 
HETATM    4  C8  UNL     1      23.716   2.946  51.355  1.00  0.00     0.111 A 
HETATM    5  N2  UNL     1      23.614   4.207  51.598  1.00  0.00    -0.228 NA
HETATM    6  C16 UNL     1      22.457   4.781  52.193  1.00  0.00     0.235 A 
HETATM    7  N3  UNL     1      21.453   4.052  52.518  1.00  0.00    -0.246 NA
ENDROOT
BRANCH   4   8
HETATM    8  N1  UNL     1      24.903   2.401  50.750  1.00  0.00    -0.346 N 
HETATM    9  H10 UNL     1      25.091   2.491  49.733  1.00  0.00     0.167 HD
BRANCH   8  10
HETATM   10  C9  UNL     1      25.837   1.718  51.592  1.00  0.00     0.030 A 
HETATM   11  C10 UNL     1      27.046   2.122  52.159  1.00  0.00     0.038 A 
HETATM   12  C11 UNL     1      27.148   0.866  52.731  1.00  0.00    -0.003 A 
HETATM   13  C12 UNL     1      27.333  -0.365  53.343  1.00  0.00     0.073 A 
HETATM   14  C15 UNL     1      25.901   0.456  52.144  1.00  0.00     0.073 A 
HETATM   15  C14 UNL     1      26.132  -0.749  52.773  1.00  0.00     0.033 A 
BRANCH  13  16
HETATM   16  O1  UNL     1      28.351  -0.862  54.161  1.00  0.00    -0.356 OA
HETATM   17  C13 UNL     1      29.717  -0.749  53.795  1.00  0.00     0.210 C 
ENDBRANCH  13  16
ENDBRANCH   8  10
ENDBRANCH   4   8
BRANCH   1  18
HETATM   18  C4  UNL     1      20.240   0.518  52.486  1.00  0.00     0.066 C 
HETATM   19  C3  UNL     1      20.664  -0.395  53.373  1.00  0.00     0.010 C 
BRANCH  19  20
HETATM   20  C2  UNL     1      21.387  -0.276  54.643  1.00  0.00     0.025 C 
HETATM   21  C1  UNL     1      22.780  -0.831  54.432  1.00  0.00     0.009 C 
ENDBRANCH  19  20
BRANCH  18  22
HETATM   22  O2  UNL     1      19.579   0.048  51.380  1.00  0.00    -0.356 OA
HETATM   23  C17 UNL     1      18.189  -0.131  51.338  1.00  0.00     0.210 C 
ENDBRANCH  18  22
ENDBRANCH   1  18
TORSDOF 6
ENDMDL
MODEL 3
REMARK VINA RESULT:      -7.1      2.668      6.961
REMARK  6 active torsions:
REMARK  status: ('A' for Active; 'I' for Inactive)
REMARK    1  A    between atoms: C2_2  and  C3_3 
REMARK    2  A    between atoms: C4_4  and  C5_5 
REMARK    3  A    between atoms: C4_4  and  O2_21 
REMARK    4  A    between atoms: C8_8  and  N1_9 
REMARK    5  A    between atoms: N1_9  and  C9_10 
REMARK    6  A    between atoms: C12_13  and  O1_14 
ROOT
HETATM    1  C5  UNL     1      23.634   4.350  48.786  1.00  0.00     0.064 C 
HETATM    2  C6  UNL     1      23.113   3.231  49.321  1.00  0.00     0.045 A 
HETATM    3  C7  UNL     1      23.372   2.955  50.756  1.00  0.00     0.137 A 
HETATM    4  C8  UNL     1      22.683   1.668  51.088  1.00  0.00     0.111 A 
HETATM    5  N2  UNL     1      22.004   0.961  50.252  1.00  0.00    -0.228 NA
HETATM    6  C16 UNL     1      21.831   1.339  48.892  1.00  0.00     0.235 A 
HETATM    7  N3  UNL     1      22.355   2.417  48.437  1.00  0.00    -0.246 NA
ENDROOT
BRANCH   4   8
HETATM    8  N1  UNL     1      22.835   1.254  52.458  1.00  0.00    -0.346 N 
HETATM    9  H10 UNL     1      22.117   1.464  53.178  1.00  0.00     0.167 HD
BRANCH   8  10
HETATM   10  C9  UNL     1      24.018   0.535  52.818  1.00  0.00     0.030 A 
HETATM   11  C10 UNL     1      24.262  -0.420  53.806  1.00  0.00     0.038 A 
HETATM   12  C11 UNL     1      25.573  -0.478  53.366  1.00  0.00    -0.003 A 
HETATM   13  C12 UNL     1      26.903  -0.602  52.992  1.00  0.00     0.073 A 
HETATM   14  C15 UNL     1      25.315   0.505  52.349  1.00  0.00     0.073 A 
HETATM   15  C14 UNL     1      26.644   0.345  52.017  1.00  0.00     0.033 A 
BRANCH  13  16
HETATM   16  O1  UNL     1      27.946  -1.391  53.484  1.00  0.00    -0.356 OA
HETATM   17  C13 UNL     1      29.209  -0.831  53.810  1.00  0.00     0.210 C 
ENDBRANCH  13  16
ENDBRANCH   8  10
ENDBRANCH   4   8
BRANCH   1  18
HETATM   18  C4  UNL     1      24.438   5.346  49.459  1.00  0.00     0.066 C 
HETATM   19  C3  UNL     1      25.765   5.251  49.639  1.00  0.00     0.010 C 
BRANCH  19  20
HETATM   20  C2  UNL     1      26.742   4.226  49.260  1.00  0.00     0.025 C 
HETATM   21  C1  UNL     1      27.872   4.918  48.526  1.00  0.00     0.009 C 
ENDBRANCH  19  20
BRANCH  18  22
HETATM   22  O2  UNL     1      23.824   6.469  49.953  1.00  0.00    -0.356 OA
HETATM   23  C17 UNL     1      24.116   7.007  51.214  1.00  0.00     0.210 C 
ENDBRANCH  18  22
ENDBRANCH   1  18
TORSDOF 6
ENDMDL
MODEL 4
REMARK VINA RESULT:      -7.0      3.089      4.197
REMARK  6 active torsions:
REMARK  status: ('A' for Active; 'I' for Inactive)
REMARK    1  A    between atoms: C2_2  and  C3_3 
REMARK    2  A    between atoms: C4_4  and  C5_5 
REMARK    3  A    between atoms: C4_4  and  O2_21 
REMARK    4  A    between atoms: C8_8  and  N1_9 
REMARK    5  A    between atoms: N1_9  and  C9_10 
REMARK    6  A    between atoms: C12_13  and  O1_14 
ROOT
HETATM    1  C5  UNL     1      27.080  -0.329  55.154  1.00  0.00     0.064 C 
HETATM    2  C6  UNL     1      25.789  -0.402  54.786  1.00  0.00     0.045 A 
HETATM    3  C7  UNL     1      25.381   0.268  53.526  1.00  0.00     0.137 A 
HETATM    4  C8  UNL     1      23.913   0.029  53.356  1.00  0.00     0.111 A 
HETATM    5  N2  UNL     1      23.177  -0.638  54.176  1.00  0.00    -0.228 NA
HETATM    6  C16 UNL     1      23.695  -1.234  55.359  1.00  0.00     0.235 A 
HETATM    7  N3  UNL     1      24.936  -1.128  55.661  1.00  0.00    -0.246 NA
ENDROOT
BRANCH   4   8
HETATM    8  N1  UNL     1      23.354   0.618  52.168  1.00  0.00    -0.346 N 
HETATM    9  H10 UNL     1      22.701   0.095  51.551  1.00  0.00     0.167 HD
BRANCH   8  10
HETATM   10  C9  UNL     1      23.721   1.961  51.843  1.00  0.00     0.030 A 
HETATM   11  C10 UNL     1      23.474   3.175  52.487  1.00  0.00     0.038 A 
HETATM   12  C11 UNL     1      24.177   3.805  51.476  1.00  0.00    -0.003 A 
HETATM   13  C12 UNL     1      24.866   4.521  50.507  1.00  0.00     0.073 A 
HETATM   14  C15 UNL     1      24.429   2.553  50.818  1.00  0.00     0.073 A 
HETATM   15  C14 UNL     1      25.102   3.309  49.882  1.00  0.00     0.033 A 
BRANCH  13  16
HETATM   16  O1  UNL     1      25.128   5.885  50.357  1.00  0.00    -0.356 OA
HETATM   17  C13 UNL     1      24.385   6.864  51.066  1.00  0.00     0.210 C 
ENDBRANCH  13  16
ENDBRANCH   8  10
ENDBRANCH   4   8
BRANCH   1  18
HETATM   18  C4  UNL     1      28.151   0.342  54.450  1.00  0.00     0.066 C 
HETATM   19  C3  UNL     1      29.086  -0.286  53.720  1.00  0.00     0.010 C 
BRANCH  19  20
HETATM   20  C2  UNL     1      29.316  -1.702  53.418  1.00  0.00     0.025 C 
HETATM   21  C1  UNL     1      28.113  -2.210  52.652  1.00  0.00     0.009 C 
ENDBRANCH  19  20
BRANCH  18  22
HETATM   22  O2  UNL     1      28.235   1.709  54.521  1.00  0.00    -0.356 OA
HETATM   23  C17 UNL     1      28.542   2.514  53.414  1.00  0.00     0.210 C 
ENDBRANCH  18  22
ENDBRANCH   1  18
TORSDOF 6
ENDMDL
MODEL 5
REMARK VINA RESULT:      -6.9      4.494      8.469
REMARK  6 active torsions:
REMARK  status: ('A' for Active; 'I' for Inactive)
REMARK    1  A    between atoms: C2_2  and  C3_3 
REMARK    2  A    between atoms: C4_4  and  C5_5 
REMARK    3  A    between atoms: C4_4  and  O2_21 
REMARK    4  A    between atoms: C8_8  and  N1_9 
REMARK    5  A    between atoms: N1_9  and  C9_10 
REMARK    6  A    between atoms: C12_13  and  O1_14 
ROOT
HETATM    1  C5  UNL     1      25.243   2.165  51.298  1.00  0.00     0.064 C 
HETATM    2  C6  UNL     1      25.455   1.108  52.103  1.00  0.00     0.045 A 
HETATM    3  C7  UNL     1      24.413   0.773  53.106  1.00  0.00     0.137 A 
HETATM    4  C8  UNL     1      24.895  -0.430  53.855  1.00  0.00     0.111 A 
HETATM    5  N2  UNL     1      26.014  -1.031  53.638  1.00  0.00    -0.228 NA
HETATM    6  C16 UNL     1      26.932  -0.605  52.639  1.00  0.00     0.235 A 
HETATM    7  N3  UNL     1      26.677   0.413  51.902  1.00  0.00    -0.246 NA
ENDROOT
BRANCH   4   8
HETATM    8  N1  UNL     1      23.991  -0.892  54.874  1.00  0.00    -0.346 N 
HETATM    9  H10 UNL     1      24.313  -1.106  55.838  1.00  0.00     0.167 HD
BRANCH   8  10
HETATM   10  C9  UNL     1      22.612  -1.055  54.529  1.00  0.00     0.030 A 
HETATM   11  C10 UNL     1      21.808  -2.191  54.420  1.00  0.00     0.038 A 
HETATM   12  C11 UNL     1      20.757  -1.360  54.073  1.00  0.00    -0.003 A 
HETATM   13  C12 UNL     1      19.648  -0.606  53.718  1.00  0.00     0.073 A 
HETATM   14  C15 UNL     1      21.590  -0.194  54.188  1.00  0.00     0.073 A 
HETATM   15  C14 UNL     1      20.458   0.510  53.831  1.00  0.00     0.033 A 
BRANCH  13  16
HETATM   16  O1  UNL     1      18.332  -0.961  53.406  1.00  0.00    -0.356 OA
HETATM   17  C13 UNL     1      17.696  -0.486  52.230  1.00  0.00     0.210 C 
ENDBRANCH  13  16
ENDBRANCH   8  10
ENDBRANCH   4   8
BRANCH   1  18
HETATM   18  C4  UNL     1      24.090   3.039  51.290  1.00  0.00     0.066 C 
HETATM   19  C3  UNL     1      22.981   2.820  50.566  1.00  0.00     0.010 C 
BRANCH  19  20
HETATM   20  C2  UNL     1      22.600   1.747  49.643  1.00  0.00     0.025 C 
HETATM   21  C1  UNL     1      21.613   0.851  50.362  1.00  0.00     0.009 C 
ENDBRANCH  19  20
BRANCH  18  22
HETATM   22  O2  UNL     1      24.110   4.169  52.066  1.00  0.00    -0.356 OA
HETATM   23  C17 UNL     1      22.955   4.897  52.388  1.00  0.00     0.210 C 
ENDBRANCH  18  22
ENDBRANCH   1  18
TORSDOF 6
ENDMDL
MODEL 6
REMARK VINA RESULT:      -6.8      2.619      7.123
REMARK  6 active torsions:
REMARK  status: ('A' for Active; 'I' for Inactive)
REMARK    1  A    between atoms: C2_2  and  C3_3 
REMARK    2  A    between atoms: C4_4  and  C5_5 
REMARK    3  A    between atoms: C4_4  and  O2_21 
REMARK    4  A    between atoms: C8_8  and  N1_9 
REMARK    5  A    between atoms: N1_9  and  C9_10 
REMARK    6  A    between atoms: C12_13  and  O1_14 
ROOT
HETATM    1  C5  UNL     1      24.035   3.895  49.203  1.00  0.00     0.064 C 
HETATM    2  C6  UNL     1      23.380   2.875  49.786  1.00  0.00     0.045 A 
HETATM    3  C7  UNL     1      23.745   2.515  51.179  1.00  0.00     0.137 A 
HETATM    4  C8  UNL     1      22.873   1.365  51.579  1.00  0.00     0.111 A 
HETATM    5  N2  UNL     1      21.986   0.818  50.822  1.00  0.00    -0.228 NA
HETATM    6  C16 UNL     1      21.733   1.260  49.494  1.00  0.00     0.235 A 
HETATM    7  N3  UNL     1      22.391   2.238  48.989  1.00  0.00    -0.246 NA
ENDROOT
BRANCH   4   8
HETATM    8  N1  UNL     1      23.100   0.891  52.919  1.00  0.00    -0.346 N 
HETATM    9  H10 UNL     1      22.404   1.034  53.676  1.00  0.00     0.167 HD
BRANCH   8  10
HETATM   10  C9  UNL     1      24.326   0.207  53.193  1.00  0.00     0.030 A 
HETATM   11  C10 UNL     1      24.718  -0.610  54.255  1.00  0.00     0.038 A 
HETATM   12  C11 UNL     1      25.948  -0.748  53.637  1.00  0.00    -0.003 A 
HETATM   13  C12 UNL     1      27.209  -0.943  53.092  1.00  0.00     0.073 A 
HETATM   14  C15 UNL     1      25.539   0.093  52.547  1.00  0.00     0.073 A 
HETATM   15  C14 UNL     1      26.804  -0.132  52.046  1.00  0.00     0.033 A 
BRANCH  13  16
HETATM   16  O1  UNL     1      28.317  -1.676  53.526  1.00  0.00    -0.356 OA
HETATM   17  C13 UNL     1      29.612  -1.101  53.576  1.00  0.00     0.210 C 
ENDBRANCH  13  16
ENDBRANCH   8  10
ENDBRANCH   4   8
BRANCH   1  18
HETATM   18  C4  UNL     1      25.079   4.709  49.786  1.00  0.00     0.066 C 
HETATM   19  C3  UNL     1      24.862   5.854  50.451  1.00  0.00     0.010 C 
BRANCH  19  20
HETATM   20  C2  UNL     1      23.637   6.589  50.779  1.00  0.00     0.025 C 
HETATM   21  C1  UNL     1      23.882   8.051  50.469  1.00  0.00     0.009 C 
ENDBRANCH  19  20
BRANCH  18  22
HETATM   22  O2  UNL     1      26.383   4.301  49.662  1.00  0.00    -0.356 OA
HETATM   23  C17 UNL     1      27.280   4.877  48.751  1.00  0.00     0.210 C 
ENDBRANCH  18  22
ENDBRANCH   1  18
TORSDOF 6
ENDMDL
MODEL 7
REMARK VINA RESULT:      -6.8      4.103      6.432
REMARK  6 active torsions:
REMARK  status: ('A' for Active; 'I' for Inactive)
REMARK    1  A    between atoms: C2_2  and  C3_3 
REMARK    2  A    between atoms: C4_4  and  C5_5 
REMARK    3  A    between atoms: C4_4  and  O2_21 
REMARK    4  A    between atoms: C8_8  and  N1_9 
REMARK    5  A    between atoms: N1_9  and  C9_10 
REMARK    6  A    between atoms: C12_13  and  O1_14 
ROOT
HETATM    1  C5  UNL     1      21.024   2.381  52.576  1.00  0.00     0.064 C 
HETATM    2  C6  UNL     1      22.113   3.070  52.188  1.00  0.00     0.045 A 
HETATM    3  C7  UNL     1      23.255   2.311  51.619  1.00  0.00     0.137 A 
HETATM    4  C8  UNL     1      24.316   3.309  51.273  1.00  0.00     0.111 A 
HETATM    5  N2  UNL     1      24.217   4.580  51.453  1.00  0.00    -0.228 NA
HETATM    6  C16 UNL     1      23.059   5.187  52.014  1.00  0.00     0.235 A 
HETATM    7  N3  UNL     1      22.051   4.478  52.368  1.00  0.00    -0.246 NA
ENDROOT
BRANCH   4   8
HETATM    8  N1  UNL     1      25.504   2.731  50.701  1.00  0.00    -0.346 N 
HETATM    9  H10 UNL     1      25.783   2.912  49.717  1.00  0.00     0.167 HD
BRANCH   8  10
HETATM   10  C9  UNL     1      26.308   1.886  51.529  1.00  0.00     0.030 A 
HETATM   11  C10 UNL     1      27.371   2.165  52.390  1.00  0.00     0.038 A 
HETATM   12  C11 UNL     1      27.440   0.813  52.674  1.00  0.00    -0.003 A 
HETATM   13  C12 UNL     1      27.582  -0.524  53.018  1.00  0.00     0.073 A 
HETATM   14  C15 UNL     1      26.345   0.531  51.786  1.00  0.00     0.073 A 
HETATM   15  C14 UNL     1      26.528  -0.783  52.160  1.00  0.00     0.033 A 
BRANCH  13  16
HETATM   16  O1  UNL     1      28.463  -1.182  53.880  1.00  0.00    -0.356 OA
HETATM   17  C13 UNL     1      29.805  -0.750  54.039  1.00  0.00     0.210 C 
ENDBRANCH  13  16
ENDBRANCH   8  10
ENDBRANCH   4   8
BRANCH   1  18
HETATM   18  C4  UNL     1      20.825   0.951  52.502  1.00  0.00     0.066 C 
HETATM   19  C3  UNL     1      20.253   0.319  51.466  1.00  0.00     0.010 C 
BRANCH  19  20
HETATM   20  C2  UNL     1      19.697   0.804  50.199  1.00  0.00     0.025 C 
HETATM   21  C1  UNL     1      20.854   1.041  49.250  1.00  0.00     0.009 C 
ENDBRANCH  19  20
BRANCH  18  22
HETATM   22  O2  UNL     1      21.242   0.170  53.550  1.00  0.00    -0.356 OA
HETATM   23  C17 UNL     1      20.725  -1.109  53.803  1.00  0.00     0.210 C 
ENDBRANCH  18  22
ENDBRANCH   1  18
TORSDOF 6
ENDMDL
MODEL 8
REMARK VINA RESULT:      -6.8      1.930      6.718
REMARK  6 active torsions:
REMARK  status: ('A' for Active; 'I' for Inactive)
REMARK    1  A    between atoms: C2_2  and  C3_3 
REMARK    2  A    between atoms: C4_4  and  C5_5 
REMARK    3  A    between atoms: C4_4  and  O2_21 
REMARK    4  A    between atoms: C8_8  and  N1_9 
REMARK    5  A    between atoms: N1_9  and  C9_10 
REMARK    6  A    between atoms: C12_13  and  O1_14 
ROOT
HETATM    1  C5  UNL     1      24.253   5.273  48.930  1.00  0.00     0.064 C 
HETATM    2  C6  UNL     1      23.983   4.276  49.793  1.00  0.00     0.045 A 
HETATM    3  C7  UNL     1      24.743   4.228  51.066  1.00  0.00     0.137 A 
HETATM    4  C8  UNL     1      24.248   3.039  51.829  1.00  0.00     0.111 A 
HETATM    5  N2  UNL     1      23.332   2.232  51.418  1.00  0.00    -0.228 NA
HETATM    6  C16 UNL     1      22.677   2.389  50.165  1.00  0.00     0.235 A 
HETATM    7  N3  UNL     1      22.979   3.359  49.382  1.00  0.00    -0.246 NA
ENDROOT
BRANCH   4   8
HETATM    8  N1  UNL     1      24.888   2.848  53.104  1.00  0.00    -0.346 N 
HETATM    9  H10 UNL     1      24.515   3.274  53.975  1.00  0.00     0.167 HD
BRANCH   8  10
HETATM   10  C9  UNL     1      26.070   2.045  53.151  1.00  0.00     0.030 A 
HETATM   11  C10 UNL     1      26.284   0.686  52.912  1.00  0.00     0.038 A 
HETATM   12  C11 UNL     1      27.623   0.891  53.192  1.00  0.00    -0.003 A 
HETATM   13  C12 UNL     1      28.980   1.003  53.457  1.00  0.00     0.073 A 
HETATM   14  C15 UNL     1      27.398   2.289  53.437  1.00  0.00     0.073 A 
HETATM   15  C14 UNL     1      28.752   2.347  53.690  1.00  0.00     0.033 A 
BRANCH  13  16
HETATM   16  O1  UNL     1      30.018   0.066  53.450  1.00  0.00    -0.356 OA
HETATM   17  C13 UNL     1      29.786  -1.298  53.765  1.00  0.00     0.210 C 
ENDBRANCH  13  16
ENDBRANCH   8  10
ENDBRANCH   4   8
BRANCH   1  18
HETATM   18  C4  UNL     1      25.221   6.335  49.100  1.00  0.00     0.066 C 
HETATM   19  C3  UNL     1      26.546   6.180  48.955  1.00  0.00     0.010 C 
BRANCH  19  20
HETATM   20  C2  UNL     1      27.373   5.018  48.616  1.00  0.00     0.025 C 
HETATM   21  C1  UNL     1      28.752   5.527  48.251  1.00  0.00     0.009 C 
ENDBRANCH  19  20
BRANCH  18  22
HETATM   22  O2  UNL     1      24.776   7.590  49.429  1.00  0.00    -0.356 OA
HETATM   23  C17 UNL     1      23.471   8.031  49.167  1.00  0.00     0.210 C 
ENDBRANCH  18  22
ENDBRANCH   1  18
TORSDOF 6
ENDMDL
MODEL 9
REMARK VINA RESULT:      -6.7      2.978      3.910
REMARK  6 active torsions:
REMARK  status: ('A' for Active; 'I' for Inactive)
REMARK    1  A    between atoms: C2_2  and  C3_3 
REMARK    2  A    between atoms: C4_4  and  C5_5 
REMARK    3  A    between atoms: C4_4  and  O2_21 
REMARK    4  A    between atoms: C8_8  and  N1_9 
REMARK    5  A    between atoms: N1_9  and  C9_10 
REMARK    6  A    between atoms: C12_13  and  O1_14 
ROOT
HETATM    1  C5  UNL     1      21.964   0.563  51.365  1.00  0.00     0.064 C 
HETATM    2  C6  UNL     1      22.265   1.410  50.364  1.00  0.00     0.045 A 
HETATM    3  C7  UNL     1      23.017   2.646  50.696  1.00  0.00     0.137 A 
HETATM    4  C8  UNL     1      23.220   3.394  49.415  1.00  0.00     0.111 A 
HETATM    5  N2  UNL     1      22.801   3.004  48.261  1.00  0.00    -0.228 NA
HETATM    6  C16 UNL     1      22.084   1.789  48.077  1.00  0.00     0.235 A 
HETATM    7  N3  UNL     1      21.823   1.022  49.071  1.00  0.00    -0.246 NA
ENDROOT
BRANCH   4   8
HETATM    8  N1  UNL     1      23.943   4.630  49.563  1.00  0.00    -0.346 N 
HETATM    9  H10 UNL     1      23.472   5.510  49.849  1.00  0.00     0.167 HD
BRANCH   8  10
HETATM   10  C9  UNL     1      25.349   4.624  49.301  1.00  0.00     0.030 A 
HETATM   11  C10 UNL     1      26.315   3.624  49.428  1.00  0.00     0.038 A 
HETATM   12  C11 UNL     1      27.253   4.533  48.972  1.00  0.00    -0.003 A 
HETATM   13  C12 UNL     1      28.261   5.374  48.523  1.00  0.00     0.073 A 
HETATM   14  C15 UNL     1      26.254   5.558  48.843  1.00  0.00     0.073 A 
HETATM   15  C14 UNL     1      27.291   6.354  48.402  1.00  0.00     0.033 A 
BRANCH  13  16
HETATM   16  O1  UNL     1      29.630   5.178  48.327  1.00  0.00    -0.356 OA
HETATM   17  C13 UNL     1      30.408   6.089  47.567  1.00  0.00     0.210 C 
ENDBRANCH  13  16
ENDBRANCH   8  10
ENDBRANCH   4   8
BRANCH   1  18
HETATM   18  C4  UNL     1      22.294   0.714  52.765  1.00  0.00     0.066 C 
HETATM   19  C3  UNL     1      23.513   0.498  53.282  1.00  0.00     0.010 C 
BRANCH  19  20
HETATM   20  C2  UNL     1      24.782   0.084  52.677  1.00  0.00     0.025 C 
HETATM   21  C1  UNL     1      25.659  -0.468  53.782  1.00  0.00     0.009 C 
ENDBRANCH  19  20
BRANCH  18  22
HETATM   22  O2  UNL     1      21.310   1.103  53.638  1.00  0.00    -0.356 OA
HETATM   23  C17 UNL     1      20.753   0.242  54.594  1.00  0.00     0.210 C 
ENDBRANCH  18  22
ENDBRANCH   1  18
TORSDOF 6
ENDMDL
