MODEL 1
REMARK VINA RESULT:      -8.8      0.000      0.000
REMARK  4 active torsions:
REMARK  status: ('A' for Active; 'I' for Inactive)
REMARK    1  A    between atoms: C3_5  and  C4_6 
REMARK    2  A    between atoms: C4_6  and  O2_7 
REMARK    3  A    between atoms: C5_8  and  C6_9 
REMARK    4  A    between atoms: C6_9  and  O3_10 
ROOT
HETATM    1  O1  UNL     1      20.647   2.080  52.471  1.00  0.00    -0.271 OA
HETATM    2  C1  UNL     1      21.822   2.462  52.215  1.00  0.00     0.248 C 
HETATM    3  N1  UNL     1      22.948   1.672  52.391  1.00  0.00    -0.226 NA
HETATM    4  C2  UNL     1      23.211   0.900  53.445  1.00  0.00     0.130 C 
HETATM    5  C3  UNL     1      24.529   0.195  53.339  1.00  0.00    -0.008 C 
HETATM    6  C5  UNL     1      25.531   0.339  52.483  1.00  0.00    -0.018 C 
HETATM    7  C7  UNL     1      25.411   1.762  51.956  1.00  0.00    -0.044 C 
HETATM    8  C8  UNL     1      24.690   2.891  52.125  1.00  0.00     0.028 C 
HETATM    9  C9  UNL     1      23.735   3.902  52.583  1.00  0.00     0.026 C 
HETATM   10  C10 UNL     1      22.543   3.699  51.692  1.00  0.00     0.098 C 
HETATM   11  C11 UNL     1      23.123   3.320  50.308  1.00  0.00     0.134 C 
HETATM   12  N2  UNL     1      24.125   4.215  49.841  1.00  0.00    -0.388 N 
HETATM   13  C12 UNL     1      25.106   4.999  49.268  1.00  0.00     0.038 A 
HETATM   14  C13 UNL     1      24.960   6.260  48.756  1.00  0.00     0.031 A 
HETATM   15  C14 UNL     1      26.010   6.961  48.246  1.00  0.00     0.021 A 
HETATM   16  C15 UNL     1      27.213   6.318  48.286  1.00  0.00     0.011 A 
HETATM   17 BR1  UNL     1      28.716   7.241  47.593  1.00  0.00    -0.051 Br
HETATM   18  C16 UNL     1      27.348   5.064  48.798  1.00  0.00     0.032 A 
HETATM   19  C17 UNL     1      26.328   4.296  49.326  1.00  0.00    -0.009 A 
HETATM   20  C18 UNL     1      26.640   2.960  49.785  1.00  0.00     0.014 C 
HETATM   21  C19 UNL     1      26.080   2.353  50.811  1.00  0.00     0.009 C 
HETATM   22  H14 UNL     1      24.153   4.871  50.649  1.00  0.00     0.159 HD
ENDROOT
BRANCH   5  23
HETATM   23  C4  UNL     1      24.793  -0.858  54.340  1.00  0.00     0.205 C 
BRANCH  23  24
HETATM   24  O2  UNL     1      25.831  -0.469  55.209  1.00  0.00    -0.396 OA
HETATM   25  H4  UNL     1      25.888  -1.103  55.963  1.00  0.00     0.209 HD
ENDBRANCH  23  24
ENDBRANCH   5  23
BRANCH   6  26
HETATM   26  C6  UNL     1      26.848  -0.159  52.097  1.00  0.00     0.204 C 
BRANCH  26  27
HETATM   27  O3  UNL     1      27.847   0.147  53.006  1.00  0.00    -0.396 OA
HETATM   28  H7  UNL     1      28.633  -0.446  52.977  1.00  0.00     0.209 HD
ENDBRANCH  26  27
ENDBRANCH   6  26
TORSDOF 4
ENDMDL
MODEL 2
REMARK VINA RESULT:      -8.6      4.262      6.892
REMARK  4 active torsions:
REMARK  status: ('A' for Active; 'I' for Inactive)
REMARK    1  A    between atoms: C3_5  and  C4_6 
REMARK    2  A    between atoms: C4_6  and  O2_7 
REMARK    3  A    between atoms: C5_8  and  C6_9 
REMARK    4  A    between atoms: C6_9  and  O3_10 
ROOT
HETATM    1  O1  UNL     1      23.517   4.915  50.694  1.00  0.00    -0.271 OA
HETATM    2  C1  UNL     1      23.196   3.742  51.035  1.00  0.00     0.248 C 
HETATM    3  N1  UNL     1      24.012   2.901  51.777  1.00  0.00    -0.226 NA
HETATM    4  C2  UNL     1      25.318   2.709  51.594  1.00  0.00     0.130 C 
HETATM    5  C3  UNL     1      25.901   1.712  52.548  1.00  0.00    -0.008 C 
HETATM    6  C5  UNL     1      25.323   0.879  53.403  1.00  0.00    -0.018 C 
HETATM    7  C7  UNL     1      23.921   0.645  52.857  1.00  0.00    -0.044 C 
HETATM    8  C8  UNL     1      23.141   0.944  51.796  1.00  0.00     0.028 C 
HETATM    9  C9  UNL     1      22.618   1.447  50.524  1.00  0.00     0.026 C 
HETATM   10  C10 UNL     1      22.025   2.779  50.883  1.00  0.00     0.098 C 
HETATM   11  C11 UNL     1      21.419   2.594  52.294  1.00  0.00     0.134 C 
HETATM   12  N2  UNL     1      20.564   1.464  52.409  1.00  0.00    -0.388 N 
HETATM   13  C12 UNL     1      19.714   0.405  52.660  1.00  0.00     0.038 A 
HETATM   14  C13 UNL     1      18.437   0.243  52.194  1.00  0.00     0.031 A 
HETATM   15  C14 UNL     1      17.699  -0.866  52.475  1.00  0.00     0.021 A 
HETATM   16  C15 UNL     1      18.324  -1.800  53.249  1.00  0.00     0.011 A 
HETATM   17 BR1  UNL     1      17.350  -3.369  53.674  1.00  0.00    -0.051 Br
HETATM   18  C16 UNL     1      19.594  -1.631  53.707  1.00  0.00     0.032 A 
HETATM   19  C17 UNL     1      20.398  -0.532  53.464  1.00  0.00    -0.009 A 
HETATM   20  C18 UNL     1      21.711  -0.494  54.069  1.00  0.00     0.014 C 
HETATM   21  C19 UNL     1      22.787   0.037  53.529  1.00  0.00     0.009 C 
HETATM   22  H14 UNL     1      20.643   1.095  51.438  1.00  0.00     0.159 HD
ENDROOT
BRANCH   5  23
HETATM   23  C4  UNL     1      27.373   1.613  52.577  1.00  0.00     0.205 C 
BRANCH  23  24
HETATM   24  O2  UNL     1      27.962   2.852  52.255  1.00  0.00    -0.396 OA
HETATM   25  H4  UNL     1      27.258   3.508  52.037  1.00  0.00     0.209 HD
ENDBRANCH  23  24
ENDBRANCH   5  23
BRANCH   6  26
HETATM   26  C6  UNL     1      25.565  -0.133  54.428  1.00  0.00     0.204 C 
BRANCH  26  27
HETATM   27  O3  UNL     1      26.089  -1.315  53.930  1.00  0.00    -0.396 OA
HETATM   28  H7  UNL     1      25.450  -1.879  53.437  1.00  0.00     0.209 HD
ENDBRANCH  26  27
ENDBRANCH   6  26
TORSDOF 4
ENDMDL
MODEL 3
REMARK VINA RESULT:      -8.3      3.550      6.347
REMARK  4 active torsions:
REMARK  status: ('A' for Active; 'I' for Inactive)
REMARK    1  A    between atoms: C3_5  and  C4_6 
REMARK    2  A    between atoms: C4_6  and  O2_7 
REMARK    3  A    between atoms: C5_8  and  C6_9 
REMARK    4  A    between atoms: C6_9  and  O3_10 
ROOT
HETATM    1  O1  UNL     1      21.389   6.594  51.181  1.00  0.00    -0.271 OA
HETATM    2  C1  UNL     1      22.227   5.679  50.947  1.00  0.00     0.248 C 
HETATM    3  N1  UNL     1      23.387   5.862  50.208  1.00  0.00    -0.226 NA
HETATM    4  C2  UNL     1      23.493   6.533  49.062  1.00  0.00     0.130 C 
HETATM    5  C3  UNL     1      24.883   6.519  48.504  1.00  0.00    -0.008 C 
HETATM    6  C5  UNL     1      25.959   5.827  48.853  1.00  0.00    -0.018 C 
HETATM    7  C7  UNL     1      25.429   4.577  49.544  1.00  0.00    -0.044 C 
HETATM    8  C8  UNL     1      24.272   3.947  49.837  1.00  0.00     0.028 C 
HETATM    9  C9  UNL     1      22.865   3.561  49.959  1.00  0.00     0.026 C 
HETATM   10  C10 UNL     1      22.429   4.199  51.247  1.00  0.00     0.098 C 
HETATM   11  C11 UNL     1      23.653   4.104  52.189  1.00  0.00     0.134 C 
HETATM   12  N2  UNL     1      24.209   2.797  52.279  1.00  0.00    -0.388 N 
HETATM   13  C12 UNL     1      24.845   1.586  52.460  1.00  0.00     0.038 A 
HETATM   14  C13 UNL     1      24.364   0.493  53.129  1.00  0.00     0.031 A 
HETATM   15  C14 UNL     1      25.066  -0.671  53.213  1.00  0.00     0.021 A 
HETATM   16  C15 UNL     1      26.275  -0.669  52.581  1.00  0.00     0.011 A 
HETATM   17 BR1  UNL     1      27.301  -2.260  52.659  1.00  0.00    -0.051 Br
HETATM   18  C16 UNL     1      26.744   0.423  51.918  1.00  0.00     0.032 A 
HETATM   19  C17 UNL     1      26.090   1.634  51.796  1.00  0.00    -0.009 A 
HETATM   20  C18 UNL     1      26.756   2.708  51.093  1.00  0.00     0.014 C 
HETATM   21  C19 UNL     1      26.164   3.618  50.347  1.00  0.00     0.009 C 
HETATM   22  H14 UNL     1      23.572   2.300  51.622  1.00  0.00     0.159 HD
ENDROOT
BRANCH   5  23
HETATM   23  C4  UNL     1      25.145   7.429  47.371  1.00  0.00     0.205 C 
BRANCH  23  24
HETATM   24  O2  UNL     1      25.901   8.542  47.789  1.00  0.00    -0.396 OA
HETATM   25  H4  UNL     1      26.863   8.341  47.704  1.00  0.00     0.209 HD
ENDBRANCH  23  24
ENDBRANCH   5  23
BRANCH   6  26
HETATM   26  C6  UNL     1      27.373   5.601  48.569  1.00  0.00     0.204 C 
BRANCH  26  27
HETATM   27  O3  UNL     1      28.196   6.634  48.985  1.00  0.00    -0.396 OA
HETATM   28  H7  UNL     1      27.812   7.221  49.676  1.00  0.00     0.209 HD
ENDBRANCH  26  27
ENDBRANCH   6  26
TORSDOF 4
ENDMDL
MODEL 4
REMARK VINA RESULT:      -8.0      4.533      7.016
REMARK  4 active torsions:
REMARK  status: ('A' for Active; 'I' for Inactive)
REMARK    1  A    between atoms: C3_5  and  C4_6 
REMARK    2  A    between atoms: C4_6  and  O2_7 
REMARK    3  A    between atoms: C5_8  and  C6_9 
REMARK    4  A    between atoms: C6_9  and  O3_10 
ROOT
HETATM    1  O1  UNL     1      24.027   4.152  51.948  1.00  0.00    -0.271 OA
HETATM    2  C1  UNL     1      23.243   3.166  51.864  1.00  0.00     0.248 C 
HETATM    3  N1  UNL     1      23.405   1.986  52.575  1.00  0.00    -0.226 NA
HETATM    4  C2  UNL     1      24.547   1.323  52.750  1.00  0.00     0.130 C 
HETATM    5  C3  UNL     1      24.376   0.065  53.546  1.00  0.00    -0.008 C 
HETATM    6  C5  UNL     1      23.286  -0.575  53.946  1.00  0.00    -0.018 C 
HETATM    7  C7  UNL     1      22.195  -0.170  52.964  1.00  0.00    -0.044 C 
HETATM    8  C8  UNL     1      22.009   0.541  51.831  1.00  0.00     0.028 C 
HETATM    9  C9  UNL     1      22.191   1.364  50.634  1.00  0.00     0.026 C 
HETATM   10  C10 UNL     1      21.971   2.766  51.127  1.00  0.00     0.098 C 
HETATM   11  C11 UNL     1      20.857   2.657  52.195  1.00  0.00     0.134 C 
HETATM   12  N2  UNL     1      19.706   1.947  51.755  1.00  0.00    -0.388 N 
HETATM   13  C12 UNL     1      18.532   1.284  51.460  1.00  0.00     0.038 A 
HETATM   14  C13 UNL     1      17.543   1.695  50.607  1.00  0.00     0.031 A 
HETATM   15  C14 UNL     1      16.439   0.938  50.360  1.00  0.00     0.021 A 
HETATM   16  C15 UNL     1      16.391  -0.256  51.019  1.00  0.00     0.011 A 
HETATM   17 BR1  UNL     1      14.880  -1.358  50.717  1.00  0.00    -0.051 Br
HETATM   18  C16 UNL     1      17.381  -0.656  51.865  1.00  0.00     0.032 A 
HETATM   19  C17 UNL     1      18.524   0.060  52.164  1.00  0.00    -0.009 A 
HETATM   20  C18 UNL     1      19.452  -0.495  53.123  1.00  0.00     0.014 C 
HETATM   21  C19 UNL     1      20.762  -0.365  53.085  1.00  0.00     0.009 C 
HETATM   22  H14 UNL     1      20.019   1.702  50.792  1.00  0.00     0.159 HD
ENDROOT
BRANCH   5  23
HETATM   23  C4  UNL     1      25.614  -0.605  53.989  1.00  0.00     0.205 C 
BRANCH  23  24
HETATM   24  O2  UNL     1      25.807  -0.432  55.374  1.00  0.00    -0.396 OA
HETATM   25  H4  UNL     1      26.728  -0.688  55.616  1.00  0.00     0.209 HD
ENDBRANCH  23  24
ENDBRANCH   5  23
BRANCH   6  26
HETATM   26  C6  UNL     1      22.787  -1.721  54.701  1.00  0.00     0.204 C 
BRANCH  26  27
HETATM   27  O3  UNL     1      23.139  -1.702  56.040  1.00  0.00    -0.396 OA
HETATM   28  H7  UNL     1      22.385  -1.625  56.669  1.00  0.00     0.209 HD
ENDBRANCH  26  27
ENDBRANCH   6  26
TORSDOF 4
ENDMDL
MODEL 5
REMARK VINA RESULT:      -8.0      2.029      3.989
REMARK  4 active torsions:
REMARK  status: ('A' for Active; 'I' for Inactive)
REMARK    1  A    between atoms: C3_5  and  C4_6 
REMARK    2  A    between atoms: C4_6  and  O2_7 
REMARK    3  A    between atoms: C5_8  and  C6_9 
REMARK    4  A    between atoms: C6_9  and  O3_10 
ROOT
HETATM    1  O1  UNL     1      27.143   0.551  54.954  1.00  0.00    -0.271 OA
HETATM    2  C1  UNL     1      26.374   0.916  54.022  1.00  0.00     0.248 C 
HETATM    3  N1  UNL     1      25.016   0.633  53.983  1.00  0.00    -0.226 NA
HETATM    4  C2  UNL     1      24.447  -0.537  54.268  1.00  0.00     0.130 C 
HETATM    5  C3  UNL     1      22.959  -0.520  54.100  1.00  0.00    -0.008 C 
HETATM    6  C5  UNL     1      22.150   0.383  53.563  1.00  0.00    -0.018 C 
HETATM    7  C7  UNL     1      23.012   1.166  52.581  1.00  0.00    -0.044 C 
HETATM    8  C8  UNL     1      24.256   1.188  52.058  1.00  0.00     0.028 C 
HETATM    9  C9  UNL     1      25.648   0.895  51.711  1.00  0.00     0.026 C 
HETATM   10  C10 UNL     1      26.441   1.688  52.710  1.00  0.00     0.098 C 
HETATM   11  C11 UNL     1      25.641   2.995  52.926  1.00  0.00     0.134 C 
HETATM   12  N2  UNL     1      25.288   3.659  51.718  1.00  0.00    -0.388 N 
HETATM   13  C12 UNL     1      24.882   4.405  50.630  1.00  0.00     0.038 A 
HETATM   14  C13 UNL     1      25.675   5.141  49.791  1.00  0.00     0.031 A 
HETATM   15  C14 UNL     1      25.169   5.811  48.719  1.00  0.00     0.021 A 
HETATM   16  C15 UNL     1      23.821   5.693  48.542  1.00  0.00     0.011 A 
HETATM   17 BR1  UNL     1      23.055   6.601  47.066  1.00  0.00    -0.051 Br
HETATM   18  C16 UNL     1      23.041   4.958  49.381  1.00  0.00     0.032 A 
HETATM   19  C17 UNL     1      23.485   4.258  50.487  1.00  0.00    -0.009 A 
HETATM   20  C18 UNL     1      22.510   3.566  51.300  1.00  0.00     0.014 C 
HETATM   21  C19 UNL     1      22.707   2.425  51.926  1.00  0.00     0.009 C 
HETATM   22  H14 UNL     1      25.701   2.992  51.034  1.00  0.00     0.159 HD
ENDROOT
BRANCH   5  23
HETATM   23  C4  UNL     1      22.226  -1.692  54.618  1.00  0.00     0.205 C 
BRANCH  23  24
HETATM   24  O2  UNL     1      22.806  -2.153  55.816  1.00  0.00    -0.396 OA
HETATM   25  H4  UNL     1      22.181  -2.761  56.276  1.00  0.00     0.209 HD
ENDBRANCH  23  24
ENDBRANCH   5  23
BRANCH   6  26
HETATM   26  C6  UNL     1      20.757   0.715  53.278  1.00  0.00     0.204 C 
BRANCH  26  27
HETATM   27  O3  UNL     1      20.208  -0.026  52.245  1.00  0.00    -0.396 OA
HETATM   28  H7  UNL     1      20.636   0.101  51.367  1.00  0.00     0.209 HD
ENDBRANCH  26  27
ENDBRANCH   6  26
TORSDOF 4
ENDMDL
MODEL 6
REMARK VINA RESULT:      -7.9      3.949      7.220
REMARK  4 active torsions:
REMARK  status: ('A' for Active; 'I' for Inactive)
REMARK    1  A    between atoms: C3_5  and  C4_6 
REMARK    2  A    between atoms: C4_6  and  O2_7 
REMARK    3  A    between atoms: C5_8  and  C6_9 
REMARK    4  A    between atoms: C6_9  and  O3_10 
ROOT
HETATM    1  O1  UNL     1      28.070   1.785  52.530  1.00  0.00    -0.271 OA
HETATM    2  C1  UNL     1      26.812   1.828  52.435  1.00  0.00     0.248 C 
HETATM    3  N1  UNL     1      26.135   2.442  51.391  1.00  0.00    -0.226 NA
HETATM    4  C2  UNL     1      26.419   3.630  50.859  1.00  0.00     0.130 C 
HETATM    5  C3  UNL     1      25.476   4.019  49.762  1.00  0.00    -0.008 C 
HETATM    6  C5  UNL     1      24.334   3.480  49.359  1.00  0.00    -0.018 C 
HETATM    7  C7  UNL     1      23.790   2.733  50.569  1.00  0.00    -0.044 C 
HETATM    8  C8  UNL     1      24.050   2.513  51.875  1.00  0.00     0.028 C 
HETATM    9  C9  UNL     1      24.627   2.516  53.221  1.00  0.00     0.026 C 
HETATM   10  C10 UNL     1      25.583   1.358  53.203  1.00  0.00     0.098 C 
HETATM   11  C11 UNL     1      24.903   0.277  52.330  1.00  0.00     0.134 C 
HETATM   12  N2  UNL     1      23.562  -0.008  52.707  1.00  0.00    -0.388 N 
HETATM   13  C12 UNL     1      22.259  -0.382  52.966  1.00  0.00     0.038 A 
HETATM   14  C13 UNL     1      21.802  -1.098  54.040  1.00  0.00     0.031 A 
HETATM   15  C14 UNL     1      20.482  -1.379  54.214  1.00  0.00     0.021 A 
HETATM   16  C15 UNL     1      19.650  -0.895  53.247  1.00  0.00     0.011 A 
HETATM   17 BR1  UNL     1      17.799  -1.251  53.432  1.00  0.00    -0.051 Br
HETATM   18  C16 UNL     1      20.114  -0.184  52.182  1.00  0.00     0.032 A 
HETATM   19  C17 UNL     1      21.437   0.135  51.941  1.00  0.00    -0.009 A 
HETATM   20  C18 UNL     1      21.760   0.860  50.732  1.00  0.00     0.014 C 
HETATM   21  C19 UNL     1      22.716   1.757  50.611  1.00  0.00     0.009 C 
HETATM   22  H14 UNL     1      23.465   0.664  53.497  1.00  0.00     0.159 HD
ENDROOT
BRANCH   5  23
HETATM   23  C4  UNL     1      25.854   5.200  48.960  1.00  0.00     0.205 C 
BRANCH  23  24
HETATM   24  O2  UNL     1      26.784   5.998  49.655  1.00  0.00    -0.396 OA
HETATM   25  H4  UNL     1      26.312   6.721  50.132  1.00  0.00     0.209 HD
ENDBRANCH  23  24
ENDBRANCH   5  23
BRANCH   6  26
HETATM   26  C6  UNL     1      23.252   3.574  48.382  1.00  0.00     0.204 C 
BRANCH  26  27
HETATM   27  O3  UNL     1      22.371   4.614  48.626  1.00  0.00    -0.396 OA
HETATM   28  H7  UNL     1      22.688   5.288  49.269  1.00  0.00     0.209 HD
ENDBRANCH  26  27
ENDBRANCH   6  26
TORSDOF 4
ENDMDL
MODEL 7
REMARK VINA RESULT:      -7.6      4.616      6.829
REMARK  4 active torsions:
REMARK  status: ('A' for Active; 'I' for Inactive)
REMARK    1  A    between atoms: C3_5  and  C4_6 
REMARK    2  A    between atoms: C4_6  and  O2_7 
REMARK    3  A    between atoms: C5_8  and  C6_9 
REMARK    4  A    between atoms: C6_9  and  O3_10 
ROOT
HETATM    1  O1  UNL     1      18.682   2.924  48.104  1.00  0.00    -0.271 OA
HETATM    2  C1  UNL     1      19.250   2.537  49.163  1.00  0.00     0.248 C 
HETATM    3  N1  UNL     1      18.707   1.603  50.034  1.00  0.00    -0.226 NA
HETATM    4  C2  UNL     1      17.443   1.558  50.453  1.00  0.00     0.130 C 
HETATM    5  C3  UNL     1      17.187   0.439  51.416  1.00  0.00    -0.008 C 
HETATM    6  C5  UNL     1      18.017  -0.383  52.042  1.00  0.00    -0.018 C 
HETATM    7  C7  UNL     1      19.346   0.356  52.108  1.00  0.00    -0.044 C 
HETATM    8  C8  UNL     1      19.903   1.550  51.811  1.00  0.00     0.028 C 
HETATM    9  C9  UNL     1      20.145   2.928  51.380  1.00  0.00     0.026 C 
HETATM   10  C10 UNL     1      20.538   2.788  49.937  1.00  0.00     0.098 C 
HETATM   11  C11 UNL     1      21.361   1.480  49.860  1.00  0.00     0.134 C 
HETATM   12  N2  UNL     1      22.409   1.403  50.818  1.00  0.00    -0.388 N 
HETATM   13  C12 UNL     1      23.459   1.198  51.690  1.00  0.00     0.038 A 
HETATM   14  C13 UNL     1      24.665   1.844  51.697  1.00  0.00     0.031 A 
HETATM   15  C14 UNL     1      25.619   1.587  52.634  1.00  0.00     0.021 A 
HETATM   16  C15 UNL     1      25.285   0.645  53.562  1.00  0.00     0.011 A 
HETATM   17 BR1  UNL     1      26.570   0.242  54.896  1.00  0.00    -0.051 Br
HETATM   18  C16 UNL     1      24.082   0.007  53.547  1.00  0.00     0.032 A 
HETATM   19  C17 UNL     1      23.072   0.215  52.628  1.00  0.00    -0.009 A 
HETATM   20  C18 UNL     1      21.872  -0.585  52.732  1.00  0.00     0.014 C 
HETATM   21  C19 UNL     1      20.653  -0.178  52.445  1.00  0.00     0.009 C 
HETATM   22  H14 UNL     1      22.259   2.312  51.303  1.00  0.00     0.159 HD
ENDROOT
BRANCH   5  23
HETATM   23  C4  UNL     1      15.773   0.168  51.745  1.00  0.00     0.205 C 
BRANCH  23  24
HETATM   24  O2  UNL     1      15.481   0.575  53.062  1.00  0.00    -0.396 OA
HETATM   25  H4  UNL     1      15.886   1.458  53.234  1.00  0.00     0.209 HD
ENDBRANCH  23  24
ENDBRANCH   5  23
BRANCH   6  26
HETATM   26  C6  UNL     1      18.105  -1.519  52.956  1.00  0.00     0.204 C 
BRANCH  26  27
HETATM   27  O3  UNL     1      17.566  -1.269  54.207  1.00  0.00    -0.396 OA
HETATM   28  H7  UNL     1      16.582  -1.278  54.247  1.00  0.00     0.209 HD
ENDBRANCH  26  27
ENDBRANCH   6  26
TORSDOF 4
ENDMDL
MODEL 8
REMARK VINA RESULT:      -7.6      3.118      3.957
REMARK  4 active torsions:
REMARK  status: ('A' for Active; 'I' for Inactive)
REMARK    1  A    between atoms: C3_5  and  C4_6 
REMARK    2  A    between atoms: C4_6  and  O2_7 
REMARK    3  A    between atoms: C5_8  and  C6_9 
REMARK    4  A    between atoms: C6_9  and  O3_10 
ROOT
HETATM    1  O1  UNL     1      21.719  -2.017  53.927  1.00  0.00    -0.271 OA
HETATM    2  C1  UNL     1      21.988  -0.908  53.388  1.00  0.00     0.248 C 
HETATM    3  N1  UNL     1      23.278  -0.453  53.157  1.00  0.00    -0.226 NA
HETATM    4  C2  UNL     1      24.301  -0.518  54.008  1.00  0.00     0.130 C 
HETATM    5  C3  UNL     1      25.556   0.090  53.461  1.00  0.00    -0.008 C 
HETATM    6  C5  UNL     1      25.773   0.820  52.376  1.00  0.00    -0.018 C 
HETATM    7  C7  UNL     1      24.435   1.472  52.052  1.00  0.00    -0.044 C 
HETATM    8  C8  UNL     1      23.180   1.595  52.534  1.00  0.00     0.028 C 
HETATM    9  C9  UNL     1      21.964   1.514  53.345  1.00  0.00     0.026 C 
HETATM   10  C10 UNL     1      21.259   0.299  52.813  1.00  0.00     0.098 C 
HETATM   11  C11 UNL     1      21.534   0.298  51.290  1.00  0.00     0.134 C 
HETATM   12  N2  UNL     1      21.245   1.535  50.652  1.00  0.00    -0.388 N 
HETATM   13  C12 UNL     1      21.007   2.673  49.908  1.00  0.00     0.038 A 
HETATM   14  C13 UNL     1      19.789   3.212  49.590  1.00  0.00     0.031 A 
HETATM   15  C14 UNL     1      19.672   4.366  48.878  1.00  0.00     0.021 A 
HETATM   16  C15 UNL     1      20.851   4.946  48.509  1.00  0.00     0.011 A 
HETATM   17 BR1  UNL     1      20.756   6.557  47.517  1.00  0.00    -0.051 Br
HETATM   18  C16 UNL     1      22.057   4.403  48.831  1.00  0.00     0.032 A 
HETATM   19  C17 UNL     1      22.250   3.236  49.545  1.00  0.00    -0.009 A 
HETATM   20  C18 UNL     1      23.604   2.775  49.758  1.00  0.00     0.014 C 
HETATM   21  C19 UNL     1      24.041   2.152  50.832  1.00  0.00     0.009 C 
HETATM   22  H14 UNL     1      20.934   2.082  51.482  1.00  0.00     0.159 HD
ENDROOT
BRANCH   5  23
HETATM   23  C4  UNL     1      26.792  -0.148  54.233  1.00  0.00     0.205 C 
BRANCH  23  24
HETATM   24  O2  UNL     1      27.157   1.004  54.957  1.00  0.00    -0.396 OA
HETATM   25  H4  UNL     1      27.917   0.796  55.551  1.00  0.00     0.209 HD
ENDBRANCH  23  24
ENDBRANCH   5  23
BRANCH   6  26
HETATM   26  C6  UNL     1      26.792   1.502  51.583  1.00  0.00     0.204 C 
BRANCH  26  27
HETATM   27  O3  UNL     1      27.388   2.566  52.239  1.00  0.00    -0.396 OA
HETATM   28  H7  UNL     1      27.551   2.425  53.200  1.00  0.00     0.209 HD
ENDBRANCH  26  27
ENDBRANCH   6  26
TORSDOF 4
ENDMDL
MODEL 9
REMARK VINA RESULT:      -7.5      4.213      6.296
REMARK  4 active torsions:
REMARK  status: ('A' for Active; 'I' for Inactive)
REMARK    1  A    between atoms: C3_5  and  C4_6 
REMARK    2  A    between atoms: C4_6  and  O2_7 
REMARK    3  A    between atoms: C5_8  and  C6_9 
REMARK    4  A    between atoms: C6_9  and  O3_10 
ROOT
HETATM    1  O1  UNL     1      18.488   0.337  51.295  1.00  0.00    -0.271 OA
HETATM    2  C1  UNL     1      19.673   0.770  51.334  1.00  0.00     0.248 C 
HETATM    3  N1  UNL     1      20.009   2.113  51.242  1.00  0.00    -0.226 NA
HETATM    4  C2  UNL     1      19.498   2.996  50.385  1.00  0.00     0.130 C 
HETATM    5  C3  UNL     1      20.097   4.362  50.526  1.00  0.00    -0.008 C 
HETATM    6  C5  UNL     1      21.143   4.790  51.219  1.00  0.00    -0.018 C 
HETATM    7  C7  UNL     1      22.037   3.571  51.397  1.00  0.00    -0.044 C 
HETATM    8  C8  UNL     1      22.135   2.274  51.034  1.00  0.00     0.028 C 
HETATM    9  C9  UNL     1      21.918   0.953  50.442  1.00  0.00     0.026 C 
HETATM   10  C10 UNL     1      21.092   0.232  51.469  1.00  0.00     0.098 C 
HETATM   11  C11 UNL     1      21.621   0.721  52.839  1.00  0.00     0.134 C 
HETATM   12  N2  UNL     1      23.033   0.629  52.976  1.00  0.00    -0.388 N 
HETATM   13  C12 UNL     1      24.387   0.594  53.244  1.00  0.00     0.038 A 
HETATM   14  C13 UNL     1      25.159  -0.518  53.449  1.00  0.00     0.031 A 
HETATM   15  C14 UNL     1      26.501  -0.437  53.668  1.00  0.00     0.021 A 
HETATM   16  C15 UNL     1      27.016   0.827  53.666  1.00  0.00     0.011 A 
HETATM   17 BR1  UNL     1      28.879   1.007  53.964  1.00  0.00    -0.051 Br
HETATM   18  C16 UNL     1      26.240   1.926  53.460  1.00  0.00     0.032 A 
HETATM   19  C17 UNL     1      24.876   1.918  53.235  1.00  0.00    -0.009 A 
HETATM   20  C18 UNL     1      24.197   3.186  53.082  1.00  0.00     0.014 C 
HETATM   21  C19 UNL     1      23.168   3.412  52.294  1.00  0.00     0.009 C 
HETATM   22  H14 UNL     1      23.268   0.249  52.035  1.00  0.00     0.159 HD
ENDROOT
BRANCH   5  23
HETATM   23  C4  UNL     1      19.429   5.451  49.786  1.00  0.00     0.205 C 
BRANCH  23  24
HETATM   24  O2  UNL     1      18.029   5.306  49.842  1.00  0.00    -0.396 OA
HETATM   25  H4  UNL     1      17.788   4.677  50.563  1.00  0.00     0.209 HD
ENDBRANCH  23  24
ENDBRANCH   5  23
BRANCH   6  26
HETATM   26  C6  UNL     1      21.931   5.965  51.581  1.00  0.00     0.204 C 
BRANCH  26  27
HETATM   27  O3  UNL     1      22.741   6.429  50.558  1.00  0.00    -0.396 OA
HETATM   28  H7  UNL     1      22.357   7.158  50.019  1.00  0.00     0.209 HD
ENDBRANCH  26  27
ENDBRANCH   6  26
TORSDOF 4
ENDMDL
