MODEL 1
REMARK VINA RESULT:      -7.2      0.000      0.000
REMARK  6 active torsions:
REMARK  status: ('A' for Active; 'I' for Inactive)
REMARK    1  A    between atoms: C2_2  and  C3_3 
REMARK    2  A    between atoms: C3_3  and  N1_4 
REMARK    3  A    between atoms: N1_4  and  C5_6 
REMARK    4  A    between atoms: C5_6  and  C6_7 
REMARK    5  A    between atoms: C6_7  and  C7_9 
REMARK    6  A    between atoms: C13_18  and  C14_19 
ROOT
HETATM    1  C7  UNL     1      24.564   1.328  52.930  1.00  0.00     0.013 C 
HETATM    2  C8  UNL     1      24.605   2.618  53.265  1.00  0.00     0.011 C 
HETATM    3  C9  UNL     1      23.719   3.746  52.883  1.00  0.00     0.010 C 
HETATM    4  C10 UNL     1      22.711   4.430  52.310  1.00  0.00     0.197 C 
HETATM    5  O2  UNL     1      21.612   4.856  51.610  1.00  0.00    -0.280 OA
HETATM    6  S1  UNL     1      20.100   3.981  51.509  1.00  0.00     0.179 S 
HETATM    7  O3  UNL     1      19.317   4.615  50.389  1.00  0.00    -0.224 OA
HETATM    8  C11 UNL     1      20.481   2.284  51.037  1.00  0.00     0.105 C 
HETATM    9  C12 UNL     1      20.674   1.215  51.804  1.00  0.00    -0.001 C 
HETATM   10  C13 UNL     1      20.725   0.659  53.158  1.00  0.00     0.099 C 
HETATM   11  C15 UNL     1      22.119   0.199  53.548  1.00  0.00     0.132 C 
HETATM   12  C16 UNL     1      22.267  -0.461  54.839  1.00  0.00     0.040 C 
HETATM   13  O5  UNL     1      22.865  -0.356  52.533  1.00  0.00    -0.381 OA
HETATM   14  C17 UNL     1      23.689   0.647  51.997  1.00  0.00     0.210 C 
ENDROOT
BRANCH   1  15
HETATM   15  C6  UNL     1      25.616   0.579  53.538  1.00  0.00     0.185 C 
HETATM   16  O1  UNL     1      25.437  -0.073  54.597  1.00  0.00    -0.291 OA
BRANCH  15  17
HETATM   17  C5  UNL     1      27.040   0.463  53.019  1.00  0.00     0.355 C 
BRANCH  17  18
HETATM   18  N1  UNL     1      27.949   0.850  54.019  1.00  0.00     0.091 NA
HETATM   19  C4  UNL     1      28.534   2.134  53.598  1.00  0.00     0.310 C 
BRANCH  18  20
HETATM   20  C3  UNL     1      28.989   0.013  54.431  1.00  0.00     0.272 C 
BRANCH  20  21
HETATM   21  C2  UNL     1      29.822  -0.711  53.450  1.00  0.00     0.026 C 
HETATM   22  C1  UNL     1      29.428  -2.150  53.327  1.00  0.00     0.007 C 
ENDBRANCH  20  21
ENDBRANCH  18  20
ENDBRANCH  17  18
ENDBRANCH  15  17
ENDBRANCH   1  15
BRANCH  10  23
HETATM   23  C14 UNL     1      19.799  -0.472  53.398  1.00  0.00     0.242 C 
HETATM   24  O4  UNL     1      18.626  -0.813  53.379  1.00  0.00    -0.306 OA
ENDBRANCH  10  23
TORSDOF 6
ENDMDL
MODEL 2
REMARK VINA RESULT:      -7.2      2.050      4.008
REMARK  6 active torsions:
REMARK  status: ('A' for Active; 'I' for Inactive)
REMARK    1  A    between atoms: C2_2  and  C3_3 
REMARK    2  A    between atoms: C3_3  and  N1_4 
REMARK    3  A    between atoms: N1_4  and  C5_6 
REMARK    4  A    between atoms: C5_6  and  C6_7 
REMARK    5  A    between atoms: C6_7  and  C7_9 
REMARK    6  A    between atoms: C13_18  and  C14_19 
ROOT
HETATM    1  C7  UNL     1      24.489   1.919  52.548  1.00  0.00     0.013 C 
HETATM    2  C8  UNL     1      23.745   0.814  52.498  1.00  0.00     0.011 C 
HETATM    3  C9  UNL     1      22.272   0.640  52.455  1.00  0.00     0.010 C 
HETATM    4  C10 UNL     1      20.960   0.939  52.427  1.00  0.00     0.197 C 
HETATM    5  O2  UNL     1      19.722   1.529  52.408  1.00  0.00    -0.280 OA
HETATM    6  S1  UNL     1      19.316   2.953  51.476  1.00  0.00     0.179 S 
HETATM    7  O3  UNL     1      17.995   3.446  52.010  1.00  0.00    -0.224 OA
HETATM    8  C11 UNL     1      20.565   4.206  51.822  1.00  0.00     0.105 C 
HETATM    9  C12 UNL     1      21.683   4.491  51.162  1.00  0.00    -0.001 C 
HETATM   10  C13 UNL     1      22.559   4.190  50.027  1.00  0.00     0.099 C 
HETATM   11  C15 UNL     1      23.903   3.631  50.461  1.00  0.00     0.132 C 
HETATM   12  C16 UNL     1      24.891   3.387  49.416  1.00  0.00     0.040 C 
HETATM   13  O5  UNL     1      24.418   4.159  51.622  1.00  0.00    -0.381 OA
HETATM   14  C17 UNL     1      24.076   3.302  52.681  1.00  0.00     0.210 C 
ENDROOT
BRANCH   1  15
HETATM   15  C6  UNL     1      25.887   1.629  52.565  1.00  0.00     0.185 C 
HETATM   16  O1  UNL     1      26.485   1.199  51.547  1.00  0.00    -0.291 OA
BRANCH  15  17
HETATM   17  C5  UNL     1      26.814   1.787  53.758  1.00  0.00     0.355 C 
BRANCH  17  18
HETATM   18  N1  UNL     1      27.310   0.532  54.153  1.00  0.00     0.091 NA
HETATM   19  C4  UNL     1      26.399   0.015  55.188  1.00  0.00     0.310 C 
BRANCH  18  20
HETATM   20  C3  UNL     1      28.621   0.369  54.606  1.00  0.00     0.272 C 
BRANCH  20  21
HETATM   21  C2  UNL     1      29.668  -0.195  53.731  1.00  0.00     0.026 C 
HETATM   22  C1  UNL     1      29.388  -1.618  53.359  1.00  0.00     0.007 C 
ENDBRANCH  20  21
ENDBRANCH  18  20
ENDBRANCH  17  18
ENDBRANCH  15  17
ENDBRANCH   1  15
BRANCH  10  23
HETATM   23  C14 UNL     1      22.822   5.335  49.127  1.00  0.00     0.242 C 
HETATM   24  O4  UNL     1      22.879   6.555  49.066  1.00  0.00    -0.306 OA
ENDBRANCH  10  23
TORSDOF 6
ENDMDL
MODEL 3
REMARK VINA RESULT:      -7.1      3.563      7.814
REMARK  6 active torsions:
REMARK  status: ('A' for Active; 'I' for Inactive)
REMARK    1  A    between atoms: C2_2  and  C3_3 
REMARK    2  A    between atoms: C3_3  and  N1_4 
REMARK    3  A    between atoms: N1_4  and  C5_6 
REMARK    4  A    between atoms: C5_6  and  C6_7 
REMARK    5  A    between atoms: C6_7  and  C7_9 
REMARK    6  A    between atoms: C13_18  and  C14_19 
ROOT
HETATM    1  C7  UNL     1      20.915  -0.431  52.889  1.00  0.00     0.013 C 
HETATM    2  C8  UNL     1      21.046  -0.837  54.152  1.00  0.00     0.011 C 
HETATM    3  C9  UNL     1      22.259  -1.096  54.965  1.00  0.00     0.010 C 
HETATM    4  C10 UNL     1      23.556  -1.201  55.311  1.00  0.00     0.197 C 
HETATM    5  O2  UNL     1      24.925  -1.215  55.380  1.00  0.00    -0.280 OA
HETATM    6  S1  UNL     1      25.966   0.016  54.700  1.00  0.00     0.179 S 
HETATM    7  O3  UNL     1      27.358  -0.560  54.697  1.00  0.00    -0.224 OA
HETATM    8  C11 UNL     1      25.460   0.274  52.989  1.00  0.00     0.105 C 
HETATM    9  C12 UNL     1      24.616   1.166  52.481  1.00  0.00    -0.001 C 
HETATM   10  C13 UNL     1      23.710   2.290  52.729  1.00  0.00     0.099 C 
HETATM   11  C15 UNL     1      22.258   1.942  52.445  1.00  0.00     0.132 C 
HETATM   12  C16 UNL     1      21.280   3.017  52.564  1.00  0.00     0.040 C 
HETATM   13  O5  UNL     1      22.049   1.094  51.382  1.00  0.00    -0.381 OA
HETATM   14  C17 UNL     1      21.936  -0.214  51.882  1.00  0.00     0.210 C 
ENDROOT
BRANCH   1  15
HETATM   15  C6  UNL     1      19.547  -0.298  52.501  1.00  0.00     0.185 C 
HETATM   16  O1  UNL     1      19.220   0.132  51.367  1.00  0.00    -0.291 OA
BRANCH  15  17
HETATM   17  C5  UNL     1      18.343  -0.639  53.362  1.00  0.00     0.355 C 
BRANCH  17  18
HETATM   18  N1  UNL     1      17.750  -1.831  52.910  1.00  0.00     0.091 NA
HETATM   19  C4  UNL     1      16.375  -1.501  52.500  1.00  0.00     0.310 C 
BRANCH  18  20
HETATM   20  C3  UNL     1      17.703  -2.977  53.707  1.00  0.00     0.272 C 
BRANCH  20  21
HETATM   21  C2  UNL     1      17.131  -4.240  53.198  1.00  0.00     0.026 C 
HETATM   22  C1  UNL     1      16.228  -4.894  54.197  1.00  0.00     0.007 C 
ENDBRANCH  20  21
ENDBRANCH  18  20
ENDBRANCH  17  18
ENDBRANCH  15  17
ENDBRANCH   1  15
BRANCH  10  23
HETATM   23  C14 UNL     1      24.029   3.522  51.970  1.00  0.00     0.242 C 
HETATM   24  O4  UNL     1      24.261   3.967  50.856  1.00  0.00    -0.306 OA
ENDBRANCH  10  23
TORSDOF 6
ENDMDL
MODEL 4
REMARK VINA RESULT:      -7.0      3.222      5.583
REMARK  6 active torsions:
REMARK  status: ('A' for Active; 'I' for Inactive)
REMARK    1  A    between atoms: C2_2  and  C3_3 
REMARK    2  A    between atoms: C3_3  and  N1_4 
REMARK    3  A    between atoms: N1_4  and  C5_6 
REMARK    4  A    between atoms: C5_6  and  C6_7 
REMARK    5  A    between atoms: C6_7  and  C7_9 
REMARK    6  A    between atoms: C13_18  and  C14_19 
ROOT
HETATM    1  C7  UNL     1      22.849   3.050  50.961  1.00  0.00     0.013 C 
HETATM    2  C8  UNL     1      23.971   2.330  50.989  1.00  0.00     0.011 C 
HETATM    3  C9  UNL     1      24.404   1.248  51.907  1.00  0.00     0.010 C 
HETATM    4  C10 UNL     1      24.386   0.358  52.917  1.00  0.00     0.197 C 
HETATM    5  O2  UNL     1      24.095  -0.430  54.001  1.00  0.00    -0.280 OA
HETATM    6  S1  UNL     1      22.532  -1.153  54.311  1.00  0.00     0.179 S 
HETATM    7  O3  UNL     1      22.560  -1.626  55.741  1.00  0.00    -0.224 OA
HETATM    8  C11 UNL     1      21.292   0.147  54.172  1.00  0.00     0.105 C 
HETATM    9  C12 UNL     1      20.555   0.506  53.126  1.00  0.00    -0.001 C 
HETATM   10  C13 UNL     1      20.209   0.276  51.721  1.00  0.00     0.099 C 
HETATM   11  C15 UNL     1      20.612   1.434  50.823  1.00  0.00     0.132 C 
HETATM   12  C16 UNL     1      20.228   1.354  49.419  1.00  0.00     0.040 C 
HETATM   13  O5  UNL     1      20.488   2.686  51.380  1.00  0.00    -0.381 OA
HETATM   14  C17 UNL     1      21.740   3.062  51.895  1.00  0.00     0.210 C 
ENDROOT
BRANCH   1  15
HETATM   15  C6  UNL     1      22.837   3.992  49.889  1.00  0.00     0.185 C 
HETATM   16  O1  UNL     1      22.628   3.640  48.701  1.00  0.00    -0.291 OA
BRANCH  15  17
HETATM   17  C5  UNL     1      23.067   5.489  50.017  1.00  0.00     0.355 C 
BRANCH  17  18
HETATM   18  N1  UNL     1      24.445   5.761  50.081  1.00  0.00     0.091 NA
HETATM   19  C4  UNL     1      24.603   7.006  50.851  1.00  0.00     0.310 C 
BRANCH  18  20
HETATM   20  C3  UNL     1      25.229   5.859  48.929  1.00  0.00     0.272 C 
BRANCH  20  21
HETATM   21  C2  UNL     1      26.638   5.420  48.924  1.00  0.00     0.026 C 
HETATM   22  C1  UNL     1      26.783   3.980  49.307  1.00  0.00     0.007 C 
ENDBRANCH  20  21
ENDBRANCH  18  20
ENDBRANCH  17  18
ENDBRANCH  15  17
ENDBRANCH   1  15
BRANCH  10  23
HETATM   23  C14 UNL     1      18.775  -0.000  51.474  1.00  0.00     0.242 C 
HETATM   24  O4  UNL     1      17.828  -0.696  51.810  1.00  0.00    -0.306 OA
ENDBRANCH  10  23
TORSDOF 6
ENDMDL
MODEL 5
REMARK VINA RESULT:      -6.9      3.643      5.675
REMARK  6 active torsions:
REMARK  status: ('A' for Active; 'I' for Inactive)
REMARK    1  A    between atoms: C2_2  and  C3_3 
REMARK    2  A    between atoms: C3_3  and  N1_4 
REMARK    3  A    between atoms: N1_4  and  C5_6 
REMARK    4  A    between atoms: C5_6  and  C6_7 
REMARK    5  A    between atoms: C6_7  and  C7_9 
REMARK    6  A    between atoms: C13_18  and  C14_19 
ROOT
HETATM    1  C7  UNL     1      24.957   2.796  51.278  1.00  0.00     0.013 C 
HETATM    2  C8  UNL     1      25.721   1.759  51.623  1.00  0.00     0.011 C 
HETATM    3  C9  UNL     1      25.443   0.605  52.514  1.00  0.00     0.010 C 
HETATM    4  C10 UNL     1      24.791  -0.222  53.352  1.00  0.00     0.197 C 
HETATM    5  O2  UNL     1      23.901  -0.866  54.173  1.00  0.00    -0.280 OA
HETATM    6  S1  UNL     1      22.195  -1.055  53.833  1.00  0.00     0.179 S 
HETATM    7  O3  UNL     1      21.552  -1.497  55.123  1.00  0.00    -0.224 OA
HETATM    8  C11 UNL     1      21.540   0.568  53.405  1.00  0.00     0.105 C 
HETATM    9  C12 UNL     1      21.383   1.130  52.211  1.00  0.00    -0.001 C 
HETATM   10  C13 UNL     1      21.527   1.005  50.758  1.00  0.00     0.099 C 
HETATM   11  C15 UNL     1      22.557   1.966  50.189  1.00  0.00     0.132 C 
HETATM   12  C16 UNL     1      22.712   1.996  48.740  1.00  0.00     0.040 C 
HETATM   13  O5  UNL     1      22.615   3.200  50.796  1.00  0.00    -0.381 OA
HETATM   14  C17 UNL     1      23.640   3.167  51.756  1.00  0.00     0.210 C 
ENDROOT
BRANCH   1  15
HETATM   15  C6  UNL     1      25.622   3.681  50.377  1.00  0.00     0.185 C 
HETATM   16  O1  UNL     1      26.829   3.523  50.065  1.00  0.00    -0.291 OA
BRANCH  15  17
HETATM   17  C5  UNL     1      25.001   4.889  49.697  1.00  0.00     0.355 C 
BRANCH  17  18
HETATM   18  N1  UNL     1      25.497   6.073  50.270  1.00  0.00     0.091 NA
HETATM   19  C4  UNL     1      24.354   6.770  50.881  1.00  0.00     0.310 C 
BRANCH  18  20
HETATM   20  C3  UNL     1      26.224   7.003  49.522  1.00  0.00     0.272 C 
BRANCH  20  21
HETATM   21  C2  UNL     1      26.793   6.649  48.206  1.00  0.00     0.026 C 
HETATM   22  C1  UNL     1      28.230   6.243  48.302  1.00  0.00     0.007 C 
ENDBRANCH  20  21
ENDBRANCH  18  20
ENDBRANCH  17  18
ENDBRANCH  15  17
ENDBRANCH   1  15
BRANCH  10  23
HETATM   23  C14 UNL     1      20.273   1.192  49.994  1.00  0.00     0.242 C 
HETATM   24  O4  UNL     1      19.055   1.108  50.052  1.00  0.00    -0.306 OA
ENDBRANCH  10  23
TORSDOF 6
ENDMDL
MODEL 6
REMARK VINA RESULT:      -6.8      3.946      6.241
REMARK  6 active torsions:
REMARK  status: ('A' for Active; 'I' for Inactive)
REMARK    1  A    between atoms: C2_2  and  C3_3 
REMARK    2  A    between atoms: C3_3  and  N1_4 
REMARK    3  A    between atoms: N1_4  and  C5_6 
REMARK    4  A    between atoms: C5_6  and  C6_7 
REMARK    5  A    between atoms: C6_7  and  C7_9 
REMARK    6  A    between atoms: C13_18  and  C14_19 
ROOT
HETATM    1  C7  UNL     1      24.509   4.226  50.784  1.00  0.00     0.013 C 
HETATM    2  C8  UNL     1      25.697   3.746  50.416  1.00  0.00     0.011 C 
HETATM    3  C9  UNL     1      26.495   2.618  50.957  1.00  0.00     0.010 C 
HETATM    4  C10 UNL     1      26.855   1.571  51.722  1.00  0.00     0.197 C 
HETATM    5  O2  UNL     1      26.956   0.554  52.637  1.00  0.00    -0.280 OA
HETATM    6  S1  UNL     1      25.640  -0.505  53.093  1.00  0.00     0.179 S 
HETATM    7  O3  UNL     1      26.084  -1.219  54.343  1.00  0.00    -0.224 OA
HETATM    8  C11 UNL     1      24.225   0.531  53.510  1.00  0.00     0.105 C 
HETATM    9  C12 UNL     1      23.212   0.927  52.747  1.00  0.00    -0.001 C 
HETATM   10  C13 UNL     1      22.572   0.898  51.429  1.00  0.00     0.099 C 
HETATM   11  C15 UNL     1      22.570   2.258  50.752  1.00  0.00     0.132 C 
HETATM   12  C16 UNL     1      21.872   2.366  49.476  1.00  0.00     0.040 C 
HETATM   13  O5  UNL     1      22.401   3.337  51.589  1.00  0.00    -0.381 OA
HETATM   14  C17 UNL     1      23.671   3.848  51.905  1.00  0.00     0.210 C 
ENDROOT
BRANCH   1  15
HETATM   15  C6  UNL     1      24.098   5.330  49.977  1.00  0.00     0.185 C 
HETATM   16  O1  UNL     1      23.169   6.098  50.331  1.00  0.00    -0.291 OA
BRANCH  15  17
HETATM   17  C5  UNL     1      24.694   5.720  48.635  1.00  0.00     0.355 C 
BRANCH  17  18
HETATM   18  N1  UNL     1      25.374   6.945  48.748  1.00  0.00     0.091 NA
HETATM   19  C4  UNL     1      25.155   7.678  47.489  1.00  0.00     0.310 C 
BRANCH  18  20
HETATM   20  C3  UNL     1      26.735   7.005  49.055  1.00  0.00     0.272 C 
BRANCH  20  21
HETATM   21  C2  UNL     1      27.760   6.622  48.065  1.00  0.00     0.026 C 
HETATM   22  C1  UNL     1      28.416   5.320  48.404  1.00  0.00     0.007 C 
ENDBRANCH  20  21
ENDBRANCH  18  20
ENDBRANCH  17  18
ENDBRANCH  15  17
ENDBRANCH   1  15
BRANCH  10  23
HETATM   23  C14 UNL     1      21.178   0.398  51.428  1.00  0.00     0.242 C 
HETATM   24  O4  UNL     1      20.289  -0.059  52.131  1.00  0.00    -0.306 OA
ENDBRANCH  10  23
TORSDOF 6
ENDMDL
MODEL 7
REMARK VINA RESULT:      -6.7      8.750     11.169
REMARK  6 active torsions:
REMARK  status: ('A' for Active; 'I' for Inactive)
REMARK    1  A    between atoms: C2_2  and  C3_3 
REMARK    2  A    between atoms: C3_3  and  N1_4 
REMARK    3  A    between atoms: N1_4  and  C5_6 
REMARK    4  A    between atoms: C5_6  and  C6_7 
REMARK    5  A    between atoms: C6_7  and  C7_9 
REMARK    6  A    between atoms: C13_18  and  C14_19 
ROOT
HETATM    1  C7  UNL     1      31.548   6.194  48.533  1.00  0.00     0.013 C 
HETATM    2  C8  UNL     1      30.542   5.499  48.002  1.00  0.00     0.011 C 
HETATM    3  C9  UNL     1      29.075   5.705  48.081  1.00  0.00     0.010 C 
HETATM    4  C10 UNL     1      27.886   6.247  48.404  1.00  0.00     0.197 C 
HETATM    5  O2  UNL     1      26.844   7.001  48.880  1.00  0.00    -0.280 OA
HETATM    6  S1  UNL     1      26.827   8.751  48.928  1.00  0.00     0.179 S 
HETATM    7  O3  UNL     1      25.678   9.138  49.823  1.00  0.00    -0.224 OA
HETATM    8  C11 UNL     1      28.357   9.290  49.712  1.00  0.00     0.105 C 
HETATM    9  C12 UNL     1      29.514   9.641  49.159  1.00  0.00    -0.001 C 
HETATM   10  C13 UNL     1      30.286   9.839  47.930  1.00  0.00     0.099 C 
HETATM   11  C15 UNL     1      31.437   8.856  47.800  1.00  0.00     0.132 C 
HETATM   12  C16 UNL     1      32.332   9.024  46.661  1.00  0.00     0.040 C 
HETATM   13  O5  UNL     1      32.066   8.521  48.977  1.00  0.00    -0.381 OA
HETATM   14  C17 UNL     1      31.509   7.320  49.445  1.00  0.00     0.210 C 
ENDROOT
BRANCH   1  15
HETATM   15  C6  UNL     1      32.823   5.647  48.193  1.00  0.00     0.185 C 
HETATM   16  O1  UNL     1      33.860   5.936  48.840  1.00  0.00    -0.291 OA
BRANCH  15  17
HETATM   17  C5  UNL     1      33.100   4.681  47.053  1.00  0.00     0.355 C 
BRANCH  17  18
HETATM   18  N1  UNL     1      33.799   3.559  47.532  1.00  0.00     0.091 NA
HETATM   19  C4  UNL     1      34.996   3.404  46.689  1.00  0.00     0.310 C 
BRANCH  18  20
HETATM   20  C3  UNL     1      33.188   2.309  47.654  1.00  0.00     0.272 C 
BRANCH  20  21
HETATM   21  C2  UNL     1      32.132   1.879  46.715  1.00  0.00     0.026 C 
HETATM   22  C1  UNL     1      32.036   0.389  46.617  1.00  0.00     0.007 C 
ENDBRANCH  20  21
ENDBRANCH  18  20
ENDBRANCH  17  18
ENDBRANCH  15  17
ENDBRANCH   1  15
BRANCH  10  23
HETATM   23  C14 UNL     1      30.842  11.201  47.760  1.00  0.00     0.242 C 
HETATM   24  O4  UNL     1      30.714  12.254  47.154  1.00  0.00    -0.306 OA
ENDBRANCH  10  23
TORSDOF 6
ENDMDL
MODEL 8
REMARK VINA RESULT:      -6.7      3.959      6.990
REMARK  6 active torsions:
REMARK  status: ('A' for Active; 'I' for Inactive)
REMARK    1  A    between atoms: C2_2  and  C3_3 
REMARK    2  A    between atoms: C3_3  and  N1_4 
REMARK    3  A    between atoms: N1_4  and  C5_6 
REMARK    4  A    between atoms: C5_6  and  C6_7 
REMARK    5  A    between atoms: C6_7  and  C7_9 
REMARK    6  A    between atoms: C13_18  and  C14_19 
ROOT
HETATM    1  C7  UNL     1      22.953   3.685  49.919  1.00  0.00     0.013 C 
HETATM    2  C8  UNL     1      24.082   3.567  49.219  1.00  0.00     0.011 C 
HETATM    3  C9  UNL     1      25.472   3.300  49.662  1.00  0.00     0.010 C 
HETATM    4  C10 UNL     1      26.521   3.050  50.468  1.00  0.00     0.197 C 
HETATM    5  O2  UNL     1      27.381   2.808  51.509  1.00  0.00    -0.280 OA
HETATM    6  S1  UNL     1      27.027   1.760  52.864  1.00  0.00     0.179 S 
HETATM    7  O3  UNL     1      28.071   2.054  53.911  1.00  0.00    -0.224 OA
HETATM    8  C11 UNL     1      25.421   2.241  53.523  1.00  0.00     0.105 C 
HETATM    9  C12 UNL     1      24.214   1.755  53.250  1.00  0.00    -0.001 C 
HETATM   10  C13 UNL     1      23.413   0.788  52.495  1.00  0.00     0.099 C 
HETATM   11  C15 UNL     1      22.496   1.454  51.484  1.00  0.00     0.132 C 
HETATM   12  C16 UNL     1      21.582   0.592  50.744  1.00  0.00     0.040 C 
HETATM   13  O5  UNL     1      21.956   2.658  51.876  1.00  0.00    -0.381 OA
HETATM   14  C17 UNL     1      22.757   3.687  51.355  1.00  0.00     0.210 C 
ENDROOT
BRANCH   1  15
HETATM   15  C6  UNL     1      21.823   3.936  49.083  1.00  0.00     0.185 C 
HETATM   16  O1  UNL     1      21.500   3.153  48.155  1.00  0.00    -0.291 OA
BRANCH  15  17
HETATM   17  C5  UNL     1      20.888   5.129  49.187  1.00  0.00     0.355 C 
BRANCH  17  18
HETATM   18  N1  UNL     1      21.615   6.324  49.041  1.00  0.00     0.091 NA
HETATM   19  C4  UNL     1      20.885   7.367  49.780  1.00  0.00     0.310 C 
BRANCH  18  20
HETATM   20  C3  UNL     1      21.947   6.834  47.783  1.00  0.00     0.272 C 
BRANCH  20  21
HETATM   21  C2  UNL     1      23.340   6.816  47.294  1.00  0.00     0.026 C 
HETATM   22  C1  UNL     1      24.325   7.115  48.381  1.00  0.00     0.007 C 
ENDBRANCH  20  21
ENDBRANCH  18  20
ENDBRANCH  17  18
ENDBRANCH  15  17
ENDBRANCH   1  15
BRANCH  10  23
HETATM   23  C14 UNL     1      22.581  -0.111  53.327  1.00  0.00     0.242 C 
HETATM   24  O4  UNL     1      22.394  -1.276  53.646  1.00  0.00    -0.306 OA
ENDBRANCH  10  23
TORSDOF 6
ENDMDL
MODEL 9
REMARK VINA RESULT:      -6.6      3.662      7.137
REMARK  6 active torsions:
REMARK  status: ('A' for Active; 'I' for Inactive)
REMARK    1  A    between atoms: C2_2  and  C3_3 
REMARK    2  A    between atoms: C3_3  and  N1_4 
REMARK    3  A    between atoms: N1_4  and  C5_6 
REMARK    4  A    between atoms: C5_6  and  C6_7 
REMARK    5  A    between atoms: C6_7  and  C7_9 
REMARK    6  A    between atoms: C13_18  and  C14_19 
ROOT
HETATM    1  C7  UNL     1      22.306   3.438  50.510  1.00  0.00     0.013 C 
HETATM    2  C8  UNL     1      23.230   3.493  49.550  1.00  0.00     0.011 C 
HETATM    3  C9  UNL     1      24.708   3.392  49.622  1.00  0.00     0.010 C 
HETATM    4  C10 UNL     1      25.947   3.251  50.130  1.00  0.00     0.197 C 
HETATM    5  O2  UNL     1      27.062   3.084  50.910  1.00  0.00    -0.280 OA
HETATM    6  S1  UNL     1      27.184   1.949  52.237  1.00  0.00     0.179 S 
HETATM    7  O3  UNL     1      28.415   2.337  53.015  1.00  0.00    -0.224 OA
HETATM    8  C11 UNL     1      25.748   2.194  53.298  1.00  0.00     0.105 C 
HETATM    9  C12 UNL     1      24.577   1.566  53.295  1.00  0.00    -0.001 C 
HETATM   10  C13 UNL     1      23.730   0.532  52.694  1.00  0.00     0.099 C 
HETATM   11  C15 UNL     1      22.518   1.111  51.985  1.00  0.00     0.132 C 
HETATM   12  C16 UNL     1      21.554   0.165  51.433  1.00  0.00     0.040 C 
HETATM   13  O5  UNL     1      21.957   2.219  52.577  1.00  0.00    -0.381 OA
HETATM   14  C17 UNL     1      22.477   3.362  51.948  1.00  0.00     0.210 C 
ENDROOT
BRANCH   1  15
HETATM   15  C6  UNL     1      20.982   3.571  49.994  1.00  0.00     0.185 C 
HETATM   16  O1  UNL     1      20.707   3.298  48.799  1.00  0.00    -0.291 OA
BRANCH  15  17
HETATM   17  C5  UNL     1      19.766   4.040  50.776  1.00  0.00     0.355 C 
BRANCH  17  18
HETATM   18  N1  UNL     1      18.615   3.372  50.323  1.00  0.00     0.091 NA
HETATM   19  C4  UNL     1      17.513   4.348  50.343  1.00  0.00     0.310 C 
BRANCH  18  20
HETATM   20  C3  UNL     1      18.164   2.195  50.925  1.00  0.00     0.272 C 
BRANCH  20  21
HETATM   21  C2  UNL     1      18.171   0.911  50.196  1.00  0.00     0.026 C 
HETATM   22  C1  UNL     1      17.586  -0.203  51.006  1.00  0.00     0.007 C 
ENDBRANCH  20  21
ENDBRANCH  18  20
ENDBRANCH  17  18
ENDBRANCH  15  17
ENDBRANCH   1  15
BRANCH  10  23
HETATM   23  C14 UNL     1      23.243  -0.497  53.641  1.00  0.00     0.242 C 
HETATM   24  O4  UNL     1      22.630  -0.673  54.684  1.00  0.00    -0.306 OA
ENDBRANCH  10  23
TORSDOF 6
ENDMDL
