MODEL 1
REMARK VINA RESULT:      -7.6      0.000      0.000
REMARK  5 active torsions:
REMARK  status: ('A' for Active; 'I' for Inactive)
REMARK    1  A    between atoms: O1_1  and  C1_2 
REMARK    2  A    between atoms: C4_5  and  C5_6 
REMARK    3  A    between atoms: C8_11  and  C9_12 
REMARK    4  A    between atoms: C9_12  and  O2_13 
REMARK    5  A    between atoms: O2_13  and  C10_14 
ROOT
HETATM    1  C5  UNL     1      26.196   1.269  51.867  1.00  0.00     0.078 A 
HETATM    2  N1  UNL     1      26.843   2.008  50.948  1.00  0.00    -0.241 NA
HETATM    3  C6  UNL     1      26.452   3.217  50.512  1.00  0.00     0.233 A 
HETATM    4  N2  UNL     1      25.304   3.733  51.047  1.00  0.00    -0.253 NA
HETATM    5  C7  UNL     1      24.634   3.018  51.970  1.00  0.00     0.129 A 
HETATM    6  C8  UNL     1      25.043   1.776  52.412  1.00  0.00     0.013 A 
ENDROOT
BRANCH   1   7
HETATM    7  C4  UNL     1      26.718  -0.044  52.208  1.00  0.00    -0.004 A 
HETATM    8  C3  UNL     1      26.332  -1.341  52.029  1.00  0.00     0.017 A 
HETATM    9  C2  UNL     1      27.091  -2.400  52.471  1.00  0.00     0.040 A 
HETATM   10  C1  UNL     1      28.278  -2.246  53.120  1.00  0.00     0.104 A 
HETATM   11  C15 UNL     1      28.707  -0.961  53.324  1.00  0.00     0.150 A 
HETATM   12  C14 UNL     1      27.950   0.100  52.881  1.00  0.00     0.059 A 
HETATM   13  F1  UNL     1      29.893  -0.833  53.973  1.00  0.00    -0.203 F 
BRANCH  10  14
HETATM   14  O1  UNL     1      28.992  -3.353  53.540  1.00  0.00    -0.358 OA
HETATM   15  H1  UNL     1      29.512  -3.385  54.407  1.00  0.00     0.217 HD
ENDBRANCH  10  14
ENDBRANCH   1   7
BRANCH   6  16
HETATM   16  C9  UNL     1      24.181   1.159  53.449  1.00  0.00     0.210 C 
BRANCH  16  17
HETATM   17  O2  UNL     1      22.882   1.231  53.025  1.00  0.00    -0.379 OA
BRANCH  17  18
HETATM   18  C10 UNL     1      22.340   0.034  52.614  1.00  0.00     0.147 C 
HETATM   19  C11 UNL     1      22.347  -0.976  53.737  1.00  0.00     0.060 C 
HETATM   20  C12 UNL     1      21.266  -0.400  54.628  1.00  0.00     0.170 C 
HETATM   21  O3  UNL     1      20.526   0.485  53.876  1.00  0.00    -0.389 OA
HETATM   22  C13 UNL     1      20.825   0.294  52.546  1.00  0.00     0.199 C 
ENDBRANCH  17  18
ENDBRANCH  16  17
ENDBRANCH   6  16
TORSDOF 5
ENDMDL
MODEL 2
REMARK VINA RESULT:      -7.5      2.886      5.838
REMARK  5 active torsions:
REMARK  status: ('A' for Active; 'I' for Inactive)
REMARK    1  A    between atoms: O1_1  and  C1_2 
REMARK    2  A    between atoms: C4_5  and  C5_6 
REMARK    3  A    between atoms: C8_11  and  C9_12 
REMARK    4  A    between atoms: C9_12  and  O2_13 
REMARK    5  A    between atoms: O2_13  and  C10_14 
ROOT
HETATM    1  C5  UNL     1      24.290   1.361  52.168  1.00  0.00     0.078 A 
HETATM    2  N1  UNL     1      23.866   2.564  51.741  1.00  0.00    -0.241 NA
HETATM    3  C6  UNL     1      24.629   3.476  51.116  1.00  0.00     0.233 A 
HETATM    4  N2  UNL     1      25.939   3.152  50.900  1.00  0.00    -0.253 NA
HETATM    5  C7  UNL     1      26.394   1.956  51.316  1.00  0.00     0.129 A 
HETATM    6  C8  UNL     1      25.603   1.023  51.957  1.00  0.00     0.013 A 
ENDROOT
BRANCH   1   7
HETATM    7  C4  UNL     1      23.357   0.496  52.870  1.00  0.00    -0.004 A 
HETATM    8  C3  UNL     1      23.386  -0.307  53.974  1.00  0.00     0.017 A 
HETATM    9  C2  UNL     1      22.283  -1.007  54.403  1.00  0.00     0.040 A 
HETATM   10  C1  UNL     1      21.079  -0.961  53.768  1.00  0.00     0.104 A 
HETATM   11  C15 UNL     1      20.999  -0.169  52.653  1.00  0.00     0.150 A 
HETATM   12  C14 UNL     1      22.103   0.533  52.223  1.00  0.00     0.059 A 
HETATM   13  F1  UNL     1      19.790  -0.140  52.037  1.00  0.00    -0.203 F 
BRANCH  10  14
HETATM   14  O1  UNL     1      20.008  -1.691  54.251  1.00  0.00    -0.358 OA
HETATM   15  H1  UNL     1      19.069  -1.322  54.322  1.00  0.00     0.217 HD
ENDBRANCH  10  14
ENDBRANCH   1   7
BRANCH   6  16
HETATM   16  C9  UNL     1      26.284  -0.244  52.316  1.00  0.00     0.210 C 
BRANCH  16  17
HETATM   17  O2  UNL     1      27.615   0.020  52.496  1.00  0.00    -0.379 OA
BRANCH  17  18
HETATM   18  C10 UNL     1      28.183  -0.585  53.594  1.00  0.00     0.147 C 
HETATM   19  C11 UNL     1      29.609  -0.126  53.787  1.00  0.00     0.060 C 
HETATM   20  C12 UNL     1      29.376   1.293  54.262  1.00  0.00     0.170 C 
HETATM   21  O3  UNL     1      28.065   1.391  54.674  1.00  0.00    -0.389 OA
HETATM   22  C13 UNL     1      27.546   0.123  54.802  1.00  0.00     0.199 C 
ENDBRANCH  17  18
ENDBRANCH  16  17
ENDBRANCH   6  16
TORSDOF 5
ENDMDL
MODEL 3
REMARK VINA RESULT:      -7.4      1.278      1.479
REMARK  5 active torsions:
REMARK  status: ('A' for Active; 'I' for Inactive)
REMARK    1  A    between atoms: O1_1  and  C1_2 
REMARK    2  A    between atoms: C4_5  and  C5_6 
REMARK    3  A    between atoms: C8_11  and  C9_12 
REMARK    4  A    between atoms: C9_12  and  O2_13 
REMARK    5  A    between atoms: O2_13  and  C10_14 
ROOT
HETATM    1  C5  UNL     1      26.132   2.499  51.425  1.00  0.00     0.078 A 
HETATM    2  N1  UNL     1      26.709   3.053  50.343  1.00  0.00    -0.241 NA
HETATM    3  C6  UNL     1      26.204   4.076  49.635  1.00  0.00     0.233 A 
HETATM    4  N2  UNL     1      25.008   4.592  50.049  1.00  0.00    -0.253 NA
HETATM    5  C7  UNL     1      24.405   4.061  51.128  1.00  0.00     0.129 A 
HETATM    6  C8  UNL     1      24.932   3.009  51.851  1.00  0.00     0.013 A 
ENDROOT
BRANCH   1   7
HETATM    7  C4  UNL     1      26.778   1.365  52.063  1.00  0.00    -0.004 A 
HETATM    8  C3  UNL     1      26.637   0.007  52.052  1.00  0.00     0.017 A 
HETATM    9  C2  UNL     1      27.454  -0.822  52.783  1.00  0.00     0.040 A 
HETATM   10  C1  UNL     1      28.464  -0.364  53.574  1.00  0.00     0.104 A 
HETATM   11  C15 UNL     1      28.645   0.993  53.620  1.00  0.00     0.150 A 
HETATM   12  C14 UNL     1      27.828   1.825  52.887  1.00  0.00     0.059 A 
HETATM   13  F1  UNL     1      29.657   1.426  54.416  1.00  0.00    -0.203 F 
BRANCH  10  14
HETATM   14  O1  UNL     1      29.250  -1.253  54.286  1.00  0.00    -0.358 OA
HETATM   15  H1  UNL     1      29.555  -1.089  55.236  1.00  0.00     0.217 HD
ENDBRANCH  10  14
ENDBRANCH   1   7
BRANCH   6  16
HETATM   16  C9  UNL     1      24.127   2.581  53.021  1.00  0.00     0.210 C 
BRANCH  16  17
HETATM   17  O2  UNL     1      22.938   2.080  52.565  1.00  0.00    -0.379 OA
BRANCH  17  18
HETATM   18  C10 UNL     1      22.961   0.743  52.235  1.00  0.00     0.147 C 
HETATM   19  C11 UNL     1      23.107  -0.115  53.470  1.00  0.00     0.060 C 
HETATM   20  C12 UNL     1      21.735   0.061  54.086  1.00  0.00     0.170 C 
HETATM   21  O3  UNL     1      20.893   0.548  53.112  1.00  0.00    -0.389 OA
HETATM   22  C13 UNL     1      21.503   0.402  51.887  1.00  0.00     0.199 C 
ENDBRANCH  17  18
ENDBRANCH  16  17
ENDBRANCH   6  16
TORSDOF 5
ENDMDL
MODEL 4
REMARK VINA RESULT:      -7.3      3.361      6.278
REMARK  5 active torsions:
REMARK  status: ('A' for Active; 'I' for Inactive)
REMARK    1  A    between atoms: O1_1  and  C1_2 
REMARK    2  A    between atoms: C4_5  and  C5_6 
REMARK    3  A    between atoms: C8_11  and  C9_12 
REMARK    4  A    between atoms: C9_12  and  O2_13 
REMARK    5  A    between atoms: O2_13  and  C10_14 
ROOT
HETATM    1  C5  UNL     1      23.043   0.206  53.665  1.00  0.00     0.078 A 
HETATM    2  N1  UNL     1      21.747  -0.153  53.629  1.00  0.00    -0.241 NA
HETATM    3  C6  UNL     1      21.199  -1.142  54.353  1.00  0.00     0.233 A 
HETATM    4  N2  UNL     1      22.027  -1.837  55.191  1.00  0.00    -0.253 NA
HETATM    5  C7  UNL     1      23.328  -1.501  55.249  1.00  0.00     0.129 A 
HETATM    6  C8  UNL     1      23.885  -0.483  54.501  1.00  0.00     0.013 A 
ENDROOT
BRANCH   1   7
HETATM    7  C4  UNL     1      23.502   1.270  52.789  1.00  0.00    -0.004 A 
HETATM    8  C3  UNL     1      24.354   2.333  52.881  1.00  0.00     0.017 A 
HETATM    9  C2  UNL     1      24.596   3.175  51.821  1.00  0.00     0.040 A 
HETATM   10  C1  UNL     1      24.011   3.022  50.600  1.00  0.00     0.104 A 
HETATM   11  C15 UNL     1      23.146   1.969  50.458  1.00  0.00     0.150 A 
HETATM   12  C14 UNL     1      22.904   1.125  51.518  1.00  0.00     0.059 A 
HETATM   13  F1  UNL     1      22.575   1.838  49.233  1.00  0.00    -0.203 F 
BRANCH  10  14
HETATM   14  O1  UNL     1      24.297   3.905  49.575  1.00  0.00    -0.358 OA
HETATM   15  H1  UNL     1      24.211   3.669  48.595  1.00  0.00     0.217 HD
ENDBRANCH  10  14
ENDBRANCH   1   7
BRANCH   6  16
HETATM   16  C9  UNL     1      25.333  -0.254  54.724  1.00  0.00     0.210 C 
BRANCH  16  17
HETATM   17  O2  UNL     1      26.025  -1.282  54.143  1.00  0.00    -0.379 OA
BRANCH  17  18
HETATM   18  C10 UNL     1      26.427  -1.049  52.847  1.00  0.00     0.147 C 
HETATM   19  C11 UNL     1      27.637  -0.146  52.811  1.00  0.00     0.060 C 
HETATM   20  C12 UNL     1      28.698  -1.092  53.332  1.00  0.00     0.170 C 
HETATM   21  O3  UNL     1      28.212  -2.376  53.221  1.00  0.00    -0.389 OA
HETATM   22  C13 UNL     1      27.102  -2.358  52.407  1.00  0.00     0.199 C 
ENDBRANCH  17  18
ENDBRANCH  16  17
ENDBRANCH   6  16
TORSDOF 5
ENDMDL
MODEL 5
REMARK VINA RESULT:      -7.2      2.640      3.871
REMARK  5 active torsions:
REMARK  status: ('A' for Active; 'I' for Inactive)
REMARK    1  A    between atoms: O1_1  and  C1_2 
REMARK    2  A    between atoms: C4_5  and  C5_6 
REMARK    3  A    between atoms: C8_11  and  C9_12 
REMARK    4  A    between atoms: C9_12  and  O2_13 
REMARK    5  A    between atoms: O2_13  and  C10_14 
ROOT
HETATM    1  C5  UNL     1      24.341  -0.396  53.746  1.00  0.00     0.078 A 
HETATM    2  N1  UNL     1      23.684  -1.092  54.691  1.00  0.00    -0.241 NA
HETATM    3  C6  UNL     1      22.389  -0.934  55.009  1.00  0.00     0.233 A 
HETATM    4  N2  UNL     1      21.686   0.010  54.314  1.00  0.00    -0.253 NA
HETATM    5  C7  UNL     1      22.315   0.724  53.362  1.00  0.00     0.129 A 
HETATM    6  C8  UNL     1      23.647   0.555  53.041  1.00  0.00     0.013 A 
ENDROOT
BRANCH   1   7
HETATM    7  C4  UNL     1      25.758  -0.648  53.544  1.00  0.00    -0.004 A 
HETATM    8  C3  UNL     1      26.522  -1.381  52.683  1.00  0.00     0.017 A 
HETATM    9  C2  UNL     1      27.896  -1.391  52.746  1.00  0.00     0.040 A 
HETATM   10  C1  UNL     1      28.604  -0.678  53.665  1.00  0.00     0.104 A 
HETATM   11  C15 UNL     1      27.880   0.074  54.553  1.00  0.00     0.150 A 
HETATM   12  C14 UNL     1      26.506   0.086  54.490  1.00  0.00     0.059 A 
HETATM   13  F1  UNL     1      28.608   0.775  55.460  1.00  0.00    -0.203 F 
BRANCH  10  14
HETATM   14  O1  UNL     1      29.986  -0.733  53.676  1.00  0.00    -0.358 OA
HETATM   15  H1  UNL     1      30.538  -0.725  54.524  1.00  0.00     0.217 HD
ENDBRANCH  10  14
ENDBRANCH   1   7
BRANCH   6  16
HETATM   16  C9  UNL     1      24.148   1.422  51.948  1.00  0.00     0.210 C 
BRANCH  16  17
HETATM   17  O2  UNL     1      23.959   2.727  52.313  1.00  0.00    -0.379 OA
BRANCH  17  18
HETATM   18  C10 UNL     1      23.734   3.594  51.267  1.00  0.00     0.147 C 
HETATM   19  C11 UNL     1      22.324   3.452  50.742  1.00  0.00     0.060 C 
HETATM   20  C12 UNL     1      21.546   4.080  51.879  1.00  0.00     0.170 C 
HETATM   21  O3  UNL     1      22.427   4.819  52.637  1.00  0.00    -0.389 OA
HETATM   22  C13 UNL     1      23.596   4.976  51.928  1.00  0.00     0.199 C 
ENDBRANCH  17  18
ENDBRANCH  16  17
ENDBRANCH   6  16
TORSDOF 5
ENDMDL
MODEL 6
REMARK VINA RESULT:      -7.0      3.445      6.180
REMARK  5 active torsions:
REMARK  status: ('A' for Active; 'I' for Inactive)
REMARK    1  A    between atoms: O1_1  and  C1_2 
REMARK    2  A    between atoms: C4_5  and  C5_6 
REMARK    3  A    between atoms: C8_11  and  C9_12 
REMARK    4  A    between atoms: C9_12  and  O2_13 
REMARK    5  A    between atoms: O2_13  and  C10_14 
ROOT
HETATM    1  C5  UNL     1      22.608   0.744  53.208  1.00  0.00     0.078 A 
HETATM    2  N1  UNL     1      21.386   0.934  53.737  1.00  0.00    -0.241 NA
HETATM    3  C6  UNL     1      20.792   0.119  54.624  1.00  0.00     0.233 A 
HETATM    4  N2  UNL     1      21.488  -0.991  55.017  1.00  0.00    -0.253 NA
HETATM    5  C7  UNL     1      22.713  -1.209  54.505  1.00  0.00     0.129 A 
HETATM    6  C8  UNL     1      23.317  -0.366  53.593  1.00  0.00     0.013 A 
ENDROOT
BRANCH   1   7
HETATM    7  C4  UNL     1      23.103   1.692  52.224  1.00  0.00    -0.004 A 
HETATM    8  C3  UNL     1      23.442   1.662  50.901  1.00  0.00     0.017 A 
HETATM    9  C2  UNL     1      23.874   2.782  50.229  1.00  0.00     0.040 A 
HETATM   10  C1  UNL     1      24.000   4.003  50.819  1.00  0.00     0.104 A 
HETATM   11  C15 UNL     1      23.672   4.082  52.147  1.00  0.00     0.150 A 
HETATM   12  C14 UNL     1      23.239   2.963  52.821  1.00  0.00     0.059 A 
HETATM   13  F1  UNL     1      23.807   5.309  52.714  1.00  0.00    -0.203 F 
BRANCH  10  14
HETATM   14  O1  UNL     1      24.442   5.089  50.086  1.00  0.00    -0.358 OA
HETATM   15  H1  UNL     1      24.051   6.017  50.175  1.00  0.00     0.217 HD
ENDBRANCH  10  14
ENDBRANCH   1   7
BRANCH   6  16
HETATM   16  C9  UNL     1      24.679  -0.768  53.166  1.00  0.00     0.210 C 
BRANCH  16  17
HETATM   17  O2  UNL     1      25.587  -0.127  53.965  1.00  0.00    -0.379 OA
BRANCH  17  18
HETATM   18  C10 UNL     1      26.871  -0.095  53.471  1.00  0.00     0.147 C 
HETATM   19  C11 UNL     1      26.960   0.796  52.254  1.00  0.00     0.060 C 
HETATM   20  C12 UNL     1      26.810   2.157  52.902  1.00  0.00     0.170 C 
HETATM   21  O3  UNL     1      27.059   2.014  54.249  1.00  0.00    -0.389 OA
HETATM   22  C13 UNL     1      27.648   0.788  54.462  1.00  0.00     0.199 C 
ENDBRANCH  17  18
ENDBRANCH  16  17
ENDBRANCH   6  16
TORSDOF 5
ENDMDL
MODEL 7
REMARK VINA RESULT:      -6.9      3.141      4.317
REMARK  5 active torsions:
REMARK  status: ('A' for Active; 'I' for Inactive)
REMARK    1  A    between atoms: O1_1  and  C1_2 
REMARK    2  A    between atoms: C4_5  and  C5_6 
REMARK    3  A    between atoms: C8_11  and  C9_12 
REMARK    4  A    between atoms: C9_12  and  O2_13 
REMARK    5  A    between atoms: O2_13  and  C10_14 
ROOT
HETATM    1  C5  UNL     1      24.182   0.242  53.421  1.00  0.00     0.078 A 
HETATM    2  N1  UNL     1      23.778  -0.683  54.309  1.00  0.00    -0.241 NA
HETATM    3  C6  UNL     1      22.530  -1.170  54.407  1.00  0.00     0.233 A 
HETATM    4  N2  UNL     1      21.600  -0.682  53.532  1.00  0.00    -0.253 NA
HETATM    5  C7  UNL     1      21.972   0.245  52.630  1.00  0.00     0.129 A 
HETATM    6  C8  UNL     1      23.258   0.740  52.537  1.00  0.00     0.013 A 
ENDROOT
BRANCH   1   7
HETATM    7  C4  UNL     1      25.559   0.705  53.464  1.00  0.00    -0.004 A 
HETATM    8  C3  UNL     1      26.201   1.889  53.688  1.00  0.00     0.017 A 
HETATM    9  C2  UNL     1      27.572   1.994  53.678  1.00  0.00     0.040 A 
HETATM   10  C1  UNL     1      28.399   0.936  53.447  1.00  0.00     0.104 A 
HETATM   11  C15 UNL     1      27.800  -0.275  53.216  1.00  0.00     0.150 A 
HETATM   12  C14 UNL     1      26.428  -0.382  53.226  1.00  0.00     0.059 A 
HETATM   13  F1  UNL     1      28.644  -1.313  52.987  1.00  0.00    -0.203 F 
BRANCH  10  14
HETATM   14  O1  UNL     1      29.770   1.110  53.450  1.00  0.00    -0.358 OA
HETATM   15  H1  UNL     1      30.315   1.263  52.612  1.00  0.00     0.217 HD
ENDBRANCH  10  14
ENDBRANCH   1   7
BRANCH   6  16
HETATM   16  C9  UNL     1      23.474   1.739  51.463  1.00  0.00     0.210 C 
BRANCH  16  17
HETATM   17  O2  UNL     1      22.710   1.383  50.385  1.00  0.00    -0.379 OA
BRANCH  17  18
HETATM   18  C10 UNL     1      21.937   2.395  49.863  1.00  0.00     0.147 C 
HETATM   19  C11 UNL     1      22.637   3.067  48.705  1.00  0.00     0.060 C 
HETATM   20  C12 UNL     1      22.530   1.981  47.655  1.00  0.00     0.170 C 
HETATM   21  O3  UNL     1      21.553   1.098  48.058  1.00  0.00    -0.389 OA
HETATM   22  C13 UNL     1      20.829   1.675  49.076  1.00  0.00     0.199 C 
ENDBRANCH  17  18
ENDBRANCH  16  17
ENDBRANCH   6  16
TORSDOF 5
ENDMDL
MODEL 8
REMARK VINA RESULT:      -6.6      2.791      4.656
REMARK  5 active torsions:
REMARK  status: ('A' for Active; 'I' for Inactive)
REMARK    1  A    between atoms: O1_1  and  C1_2 
REMARK    2  A    between atoms: C4_5  and  C5_6 
REMARK    3  A    between atoms: C8_11  and  C9_12 
REMARK    4  A    between atoms: C9_12  and  O2_13 
REMARK    5  A    between atoms: O2_13  and  C10_14 
ROOT
HETATM    1  C5  UNL     1      26.530   1.451  53.155  1.00  0.00     0.078 A 
HETATM    2  N1  UNL     1      27.685   1.849  53.717  1.00  0.00    -0.241 NA
HETATM    3  C6  UNL     1      28.400   1.137  54.604  1.00  0.00     0.233 A 
HETATM    4  N2  UNL     1      27.911  -0.089  54.960  1.00  0.00    -0.253 NA
HETATM    5  C7  UNL     1      26.758  -0.516  54.414  1.00  0.00     0.129 A 
HETATM    6  C8  UNL     1      26.029   0.222  53.504  1.00  0.00     0.013 A 
ENDROOT
BRANCH   1   7
HETATM    7  C4  UNL     1      25.845   2.350  52.243  1.00  0.00    -0.004 A 
HETATM    8  C3  UNL     1      24.667   3.041  52.228  1.00  0.00     0.017 A 
HETATM    9  C2  UNL     1      24.306   3.855  51.180  1.00  0.00     0.040 A 
HETATM   10  C1  UNL     1      25.085   4.041  50.079  1.00  0.00     0.104 A 
HETATM   11  C15 UNL     1      26.278   3.367  50.046  1.00  0.00     0.150 A 
HETATM   12  C14 UNL     1      26.641   2.552  51.094  1.00  0.00     0.059 A 
HETATM   13  F1  UNL     1      27.036   3.567  48.938  1.00  0.00    -0.203 F 
BRANCH  10  14
HETATM   14  O1  UNL     1      24.662   4.873  49.059  1.00  0.00    -0.358 OA
HETATM   15  H1  UNL     1      23.953   5.585  49.177  1.00  0.00     0.217 HD
ENDBRANCH  10  14
ENDBRANCH   1   7
BRANCH   6  16
HETATM   16  C9  UNL     1      24.797  -0.433  53.002  1.00  0.00     0.210 C 
BRANCH  16  17
HETATM   17  O2  UNL     1      23.729   0.074  53.692  1.00  0.00    -0.379 OA
BRANCH  17  18
HETATM   18  C10 UNL     1      22.518  -0.034  53.046  1.00  0.00     0.147 C 
HETATM   19  C11 UNL     1      22.037  -1.466  53.036  1.00  0.00     0.060 C 
HETATM   20  C12 UNL     1      21.663  -1.637  54.493  1.00  0.00     0.170 C 
HETATM   21  O3  UNL     1      21.543  -0.384  55.050  1.00  0.00    -0.389 OA
HETATM   22  C13 UNL     1      21.494   0.547  54.037  1.00  0.00     0.199 C 
ENDBRANCH  17  18
ENDBRANCH  16  17
ENDBRANCH   6  16
TORSDOF 5
ENDMDL
MODEL 9
REMARK VINA RESULT:      -6.6      3.205      5.450
REMARK  5 active torsions:
REMARK  status: ('A' for Active; 'I' for Inactive)
REMARK    1  A    between atoms: O1_1  and  C1_2 
REMARK    2  A    between atoms: C4_5  and  C5_6 
REMARK    3  A    between atoms: C8_11  and  C9_12 
REMARK    4  A    between atoms: C9_12  and  O2_13 
REMARK    5  A    between atoms: O2_13  and  C10_14 
ROOT
HETATM    1  C5  UNL     1      25.228  -0.207  53.532  1.00  0.00     0.078 A 
HETATM    2  N1  UNL     1      26.103  -1.226  53.454  1.00  0.00    -0.241 NA
HETATM    3  C6  UNL     1      27.402  -1.107  53.136  1.00  0.00     0.233 A 
HETATM    4  N2  UNL     1      27.868   0.150  52.870  1.00  0.00    -0.253 NA
HETATM    5  C7  UNL     1      27.018   1.191  52.940  1.00  0.00     0.129 A 
HETATM    6  C8  UNL     1      25.683   1.060  53.268  1.00  0.00     0.013 A 
ENDROOT
BRANCH   1   7
HETATM    7  C4  UNL     1      23.839  -0.495  53.847  1.00  0.00    -0.004 A 
HETATM    8  C3  UNL     1      23.142  -0.962  54.925  1.00  0.00     0.017 A 
HETATM    9  C2  UNL     1      21.775  -1.108  54.908  1.00  0.00     0.040 A 
HETATM   10  C1  UNL     1      21.007  -0.804  53.824  1.00  0.00     0.104 A 
HETATM   11  C15 UNL     1      21.662  -0.333  52.717  1.00  0.00     0.150 A 
HETATM   12  C14 UNL     1      23.030  -0.185  52.733  1.00  0.00     0.059 A 
HETATM   13  F1  UNL     1      20.875  -0.038  51.650  1.00  0.00    -0.203 F 
BRANCH  10  14
HETATM   14  O1  UNL     1      19.636  -0.975  53.872  1.00  0.00    -0.358 OA
HETATM   15  H1  UNL     1      19.075  -1.210  53.064  1.00  0.00     0.217 HD
ENDBRANCH  10  14
ENDBRANCH   1   7
BRANCH   6  16
HETATM   16  C9  UNL     1      24.917   2.329  53.314  1.00  0.00     0.210 C 
BRANCH  16  17
HETATM   17  O2  UNL     1      24.779   2.794  52.034  1.00  0.00    -0.379 OA
BRANCH  17  18
HETATM   18  C10 UNL     1      23.909   3.851  51.893  1.00  0.00     0.147 C 
HETATM   19  C11 UNL     1      24.313   4.733  50.735  1.00  0.00     0.060 C 
HETATM   20  C12 UNL     1      23.952   3.835  49.570  1.00  0.00     0.170 C 
HETATM   21  O3  UNL     1      23.097   2.861  50.036  1.00  0.00    -0.389 OA
HETATM   22  C13 UNL     1      22.641   3.233  51.280  1.00  0.00     0.199 C 
ENDBRANCH  17  18
ENDBRANCH  16  17
ENDBRANCH   6  16
TORSDOF 5
ENDMDL
