MODEL 1
REMARK VINA RESULT:      -8.4      0.000      0.000
REMARK  7 active torsions:
REMARK  status: ('A' for Active; 'I' for Inactive)
REMARK    1  A    between atoms: N1_1  and  C1_2 
REMARK    2  A    between atoms: C2_4  and  N3_5 
REMARK    3  A    between atoms: C5_8  and  S1_9 
REMARK    4  A    between atoms: S1_9  and  N4_10 
REMARK    5  A    between atoms: N6_16  and  C8_17 
REMARK    6  A    between atoms: C8_17  and  N7_19 
REMARK    7  A    between atoms: N7_19  and  C9_20 
ROOT
HETATM    1  C1  UNL     1      23.284   1.993  50.771  1.00  0.00     0.739 A 
HETATM    2  N2  UNL     1      23.550   3.116  50.077  1.00  0.00     0.132 NA
HETATM    3  C2  UNL     1      24.597   3.735  50.691  1.00  0.00     0.766 A 
HETATM    4  N5  UNL     1      24.947   2.978  51.747  1.00  0.00     0.045 NA
HETATM    5  N6  UNL     1      24.151   1.916  51.801  1.00  0.00    -0.018 N 
ENDROOT
BRANCH   3   6
HETATM    6  N3  UNL     1      25.207   4.946  50.301  1.00  0.00    -0.162 N 
HETATM    7  C3  UNL     1      26.293   5.092  49.398  1.00  0.00     0.128 C 
HETATM    8  C4  UNL     1      26.627   6.256  48.876  1.00  0.00     0.016 C 
HETATM    9  C5  UNL     1      26.396   7.329  49.539  1.00  0.00     0.088 C 
HETATM   10  C6  UNL     1      25.284   7.297  50.476  1.00  0.00     0.044 C 
HETATM   11  C7  UNL     1      24.709   6.184  50.847  1.00  0.00     0.116 C 
BRANCH   9  12
HETATM   12  S1  UNL     1      27.271   8.839  49.447  1.00  0.00     0.240 S 
HETATM   13  O1  UNL     1      26.482   9.861  48.671  1.00  0.00    -0.206 OA
HETATM   14  O2  UNL     1      28.606   8.688  48.769  1.00  0.00    -0.206 OA
BRANCH  12  15
HETATM   15  N4  UNL     1      27.535   9.471  51.030  1.00  0.00    -0.225 NA
HETATM   16  H4  UNL     1      28.362   9.024  51.490  1.00  0.00     0.136 HD
HETATM   17  H5  UNL     1      27.612  10.520  51.019  1.00  0.00     0.136 HD
ENDBRANCH  12  15
ENDBRANCH   9  12
ENDBRANCH   3   6
BRANCH   1  18
HETATM   18  N1  UNL     1      22.195   1.202  50.262  1.00  0.00    -0.230 N 
HETATM   19  H1  UNL     1      21.848   0.498  50.969  1.00  0.00     0.174 HD
HETATM   20  H2  UNL     1      22.020   1.542  49.285  1.00  0.00     0.174 HD
ENDBRANCH   1  18
BRANCH   5  21
HETATM   21  C8  UNL     1      23.952   0.751  52.605  1.00  0.00     0.218 C 
HETATM   22  S2  UNL     1      22.674   0.262  53.513  1.00  0.00    -0.038 SA
BRANCH  21  23
HETATM   23  N7  UNL     1      25.056  -0.141  52.624  1.00  0.00    -0.326 N 
HETATM   24  H8  UNL     1      25.107  -1.089  52.155  1.00  0.00     0.168 HD
BRANCH  23  25
HETATM   25  C9  UNL     1      26.348  -0.148  53.184  1.00  0.00     0.112 A 
HETATM   26  C10 UNL     1      27.143  -1.215  52.757  1.00  0.00     0.146 A 
HETATM   27  F1  UNL     1      26.690  -2.163  51.870  1.00  0.00    -0.204 F 
HETATM   28  C11 UNL     1      28.458  -1.389  53.203  1.00  0.00     0.045 A 
HETATM   29  C12 UNL     1      28.919  -0.441  54.093  1.00  0.00     0.006 A 
HETATM   30  C13 UNL     1      28.174   0.629  54.546  1.00  0.00     0.045 A 
HETATM   31  C14 UNL     1      26.878   0.773  54.084  1.00  0.00     0.146 A 
HETATM   32  F2  UNL     1      26.039   1.776  54.446  1.00  0.00    -0.204 F 
ENDBRANCH  23  25
ENDBRANCH  21  23
ENDBRANCH   5  21
TORSDOF 7
ENDMDL
MODEL 2
REMARK VINA RESULT:      -8.3      5.208      7.711
REMARK  7 active torsions:
REMARK  status: ('A' for Active; 'I' for Inactive)
REMARK    1  A    between atoms: N1_1  and  C1_2 
REMARK    2  A    between atoms: C2_4  and  N3_5 
REMARK    3  A    between atoms: C5_8  and  S1_9 
REMARK    4  A    between atoms: S1_9  and  N4_10 
REMARK    5  A    between atoms: N6_16  and  C8_17 
REMARK    6  A    between atoms: C8_17  and  N7_19 
REMARK    7  A    between atoms: N7_19  and  C9_20 
ROOT
HETATM    1  C1  UNL     1      23.496   3.544  52.172  1.00  0.00     0.739 A 
HETATM    2  N2  UNL     1      22.191   3.249  52.330  1.00  0.00     0.132 NA
HETATM    3  C2  UNL     1      22.029   1.936  52.007  1.00  0.00     0.766 A 
HETATM    4  N5  UNL     1      23.236   1.457  51.657  1.00  0.00     0.045 NA
HETATM    5  N6  UNL     1      24.134   2.431  51.755  1.00  0.00    -0.018 N 
ENDROOT
BRANCH   3   6
HETATM    6  N3  UNL     1      20.822   1.206  52.030  1.00  0.00    -0.162 N 
HETATM    7  C3  UNL     1      19.747   1.322  51.110  1.00  0.00     0.128 C 
HETATM    8  C4  UNL     1      18.782   0.426  51.033  1.00  0.00     0.016 C 
HETATM    9  C5  UNL     1      18.456  -0.236  52.083  1.00  0.00     0.088 C 
HETATM   10  C6  UNL     1      19.494  -0.437  53.081  1.00  0.00     0.044 C 
HETATM   11  C7  UNL     1      20.617   0.231  53.074  1.00  0.00     0.116 C 
BRANCH   9  12
HETATM   12  S1  UNL     1      16.896  -0.928  52.456  1.00  0.00     0.240 S 
HETATM   13  O1  UNL     1      16.193  -1.358  51.195  1.00  0.00    -0.206 OA
HETATM   14  O2  UNL     1      15.993   0.042  53.170  1.00  0.00    -0.206 OA
BRANCH  12  15
HETATM   15  N4  UNL     1      17.087  -2.323  53.452  1.00  0.00    -0.225 NA
HETATM   16  H4  UNL     1      17.777  -2.996  53.044  1.00  0.00     0.136 HD
HETATM   17  H5  UNL     1      17.331  -2.062  54.441  1.00  0.00     0.136 HD
ENDBRANCH  12  15
ENDBRANCH   9  12
ENDBRANCH   3   6
BRANCH   1  18
HETATM   18  N1  UNL     1      23.857   4.904  52.473  1.00  0.00    -0.230 N 
HETATM   19  H1  UNL     1      24.859   5.118  52.212  1.00  0.00     0.174 HD
HETATM   20  H2  UNL     1      23.001   5.348  52.887  1.00  0.00     0.174 HD
ENDBRANCH   1  18
BRANCH   5  21
HETATM   21  C8  UNL     1      25.534   2.639  51.556  1.00  0.00     0.218 C 
HETATM   22  S2  UNL     1      26.373   3.243  50.281  1.00  0.00    -0.038 SA
BRANCH  21  23
HETATM   23  N7  UNL     1      26.343   2.252  52.656  1.00  0.00    -0.326 N 
HETATM   24  H8  UNL     1      26.424   2.754  53.586  1.00  0.00     0.168 HD
BRANCH  23  25
HETATM   25  C9  UNL     1      27.241   1.205  52.940  1.00  0.00     0.112 A 
HETATM   26  C10 UNL     1      28.483   1.637  53.411  1.00  0.00     0.146 A 
HETATM   27  F1  UNL     1      28.786   2.968  53.576  1.00  0.00    -0.204 F 
HETATM   28  C11 UNL     1      29.505   0.742  53.748  1.00  0.00     0.045 A 
HETATM   29  C12 UNL     1      29.207  -0.596  53.585  1.00  0.00     0.006 A 
HETATM   30  C13 UNL     1      27.996  -1.073  53.124  1.00  0.00     0.045 A 
HETATM   31  C14 UNL     1      27.008  -0.162  52.800  1.00  0.00     0.146 A 
HETATM   32  F2  UNL     1      25.777  -0.494  52.338  1.00  0.00    -0.204 F 
ENDBRANCH  23  25
ENDBRANCH  21  23
ENDBRANCH   5  21
TORSDOF 7
ENDMDL
MODEL 3
REMARK VINA RESULT:      -7.7      5.127      7.311
REMARK  7 active torsions:
REMARK  status: ('A' for Active; 'I' for Inactive)
REMARK    1  A    between atoms: N1_1  and  C1_2 
REMARK    2  A    between atoms: C2_4  and  N3_5 
REMARK    3  A    between atoms: C5_8  and  S1_9 
REMARK    4  A    between atoms: S1_9  and  N4_10 
REMARK    5  A    between atoms: N6_16  and  C8_17 
REMARK    6  A    between atoms: C8_17  and  N7_19 
REMARK    7  A    between atoms: N7_19  and  C9_20 
ROOT
HETATM    1  C1  UNL     1      23.495   3.887  52.101  1.00  0.00     0.739 A 
HETATM    2  N2  UNL     1      22.164   3.697  52.172  1.00  0.00     0.132 NA
HETATM    3  C2  UNL     1      21.909   2.435  51.726  1.00  0.00     0.766 A 
HETATM    4  N5  UNL     1      23.088   1.883  51.391  1.00  0.00     0.045 NA
HETATM    5  N6  UNL     1      24.059   2.761  51.617  1.00  0.00    -0.018 N 
ENDROOT
BRANCH   3   6
HETATM    6  N3  UNL     1      20.645   1.816  51.628  1.00  0.00    -0.162 N 
HETATM    7  C3  UNL     1      20.369   0.431  51.783  1.00  0.00     0.128 C 
HETATM    8  C4  UNL     1      19.145  -0.031  51.948  1.00  0.00     0.016 C 
HETATM    9  C5  UNL     1      18.158   0.609  51.436  1.00  0.00     0.088 C 
HETATM   10  C6  UNL     1      18.326   2.042  51.258  1.00  0.00     0.044 C 
HETATM   11  C7  UNL     1      19.489   2.631  51.345  1.00  0.00     0.116 C 
BRANCH   9  12
HETATM   12  S1  UNL     1      16.623  -0.048  50.921  1.00  0.00     0.240 S 
HETATM   13  O1  UNL     1      15.515   0.943  51.168  1.00  0.00    -0.206 OA
HETATM   14  O2  UNL     1      16.269  -1.316  51.649  1.00  0.00    -0.206 OA
BRANCH  12  15
HETATM   15  N4  UNL     1      16.658  -0.386  49.230  1.00  0.00    -0.225 NA
HETATM   16  H4  UNL     1      17.221  -1.243  49.020  1.00  0.00     0.136 HD
HETATM   17  H5  UNL     1      15.687  -0.446  48.829  1.00  0.00     0.136 HD
ENDBRANCH  12  15
ENDBRANCH   9  12
ENDBRANCH   3   6
BRANCH   1  18
HETATM   18  N1  UNL     1      23.953   5.180  52.538  1.00  0.00    -0.230 N 
HETATM   19  H1  UNL     1      24.034   5.865  51.738  1.00  0.00     0.174 HD
HETATM   20  H2  UNL     1      24.092   5.104  53.575  1.00  0.00     0.174 HD
ENDBRANCH   1  18
BRANCH   5  21
HETATM   21  C8  UNL     1      25.480   2.860  51.502  1.00  0.00     0.218 C 
HETATM   22  S2  UNL     1      26.438   3.368  50.270  1.00  0.00    -0.038 SA
BRANCH  21  23
HETATM   23  N7  UNL     1      26.189   2.443  52.659  1.00  0.00    -0.326 N 
HETATM   24  H8  UNL     1      26.097   2.848  53.634  1.00  0.00     0.168 HD
BRANCH  23  25
HETATM   25  C9  UNL     1      27.162   1.471  52.960  1.00  0.00     0.112 A 
HETATM   26  C10 UNL     1      26.731   0.158  52.758  1.00  0.00     0.146 A 
HETATM   27  F1  UNL     1      25.467  -0.142  52.306  1.00  0.00    -0.204 F 
HETATM   28  C11 UNL     1      27.558  -0.945  53.002  1.00  0.00     0.045 A 
HETATM   29  C12 UNL     1      28.828  -0.651  53.456  1.00  0.00     0.006 A 
HETATM   30  C13 UNL     1      29.301   0.628  53.671  1.00  0.00     0.045 A 
HETATM   31  C14 UNL     1      28.458   1.695  53.420  1.00  0.00     0.146 A 
HETATM   32  F2  UNL     1      28.794   2.998  53.589  1.00  0.00    -0.204 F 
ENDBRANCH  23  25
ENDBRANCH  21  23
ENDBRANCH   5  21
TORSDOF 7
ENDMDL
MODEL 4
REMARK VINA RESULT:      -7.7      2.327      3.258
REMARK  7 active torsions:
REMARK  status: ('A' for Active; 'I' for Inactive)
REMARK    1  A    between atoms: N1_1  and  C1_2 
REMARK    2  A    between atoms: C2_4  and  N3_5 
REMARK    3  A    between atoms: C5_8  and  S1_9 
REMARK    4  A    between atoms: S1_9  and  N4_10 
REMARK    5  A    between atoms: N6_16  and  C8_17 
REMARK    6  A    between atoms: C8_17  and  N7_19 
REMARK    7  A    between atoms: N7_19  and  C9_20 
ROOT
HETATM    1  C1  UNL     1      23.527   5.659  51.116  1.00  0.00     0.739 A 
HETATM    2  N2  UNL     1      24.228   6.775  50.839  1.00  0.00     0.132 NA
HETATM    3  C2  UNL     1      25.370   6.392  50.203  1.00  0.00     0.766 A 
HETATM    4  N5  UNL     1      25.344   5.050  50.107  1.00  0.00     0.045 NA
HETATM    5  N6  UNL     1      24.224   4.598  50.661  1.00  0.00    -0.018 N 
ENDROOT
BRANCH   3   6
HETATM    6  N3  UNL     1      26.396   7.237  49.731  1.00  0.00    -0.162 N 
HETATM    7  C3  UNL     1      27.306   6.955  48.678  1.00  0.00     0.128 C 
HETATM    8  C4  UNL     1      28.049   7.888  48.117  1.00  0.00     0.016 C 
HETATM    9  C5  UNL     1      28.407   8.906  48.811  1.00  0.00     0.088 C 
HETATM   10  C6  UNL     1      27.529   9.300  49.901  1.00  0.00     0.044 C 
HETATM   11  C7  UNL     1      26.574   8.528  50.349  1.00  0.00     0.116 C 
BRANCH   9  12
HETATM   12  S1  UNL     1      29.839   9.883  48.596  1.00  0.00     0.240 S 
HETATM   13  O1  UNL     1      29.481  11.228  48.017  1.00  0.00    -0.206 OA
HETATM   14  O2  UNL     1      30.837   9.242  47.669  1.00  0.00    -0.206 OA
BRANCH  12  15
HETATM   15  N4  UNL     1      30.608  10.154  50.116  1.00  0.00    -0.225 NA
HETATM   16  H4  UNL     1      30.886  11.156  50.234  1.00  0.00     0.136 HD
HETATM   17  H5  UNL     1      30.015   9.815  50.915  1.00  0.00     0.136 HD
ENDBRANCH  12  15
ENDBRANCH   9  12
ENDBRANCH   3   6
BRANCH   1  18
HETATM   18  N1  UNL     1      22.276   5.873  51.795  1.00  0.00    -0.230 N 
HETATM   19  H1  UNL     1      22.040   6.900  51.880  1.00  0.00     0.174 HD
HETATM   20  H2  UNL     1      21.910   4.921  52.038  1.00  0.00     0.174 HD
ENDBRANCH   1  18
BRANCH   5  21
HETATM   21  C8  UNL     1      23.563   3.355  50.908  1.00  0.00     0.218 C 
HETATM   22  S2  UNL     1      22.349   2.592  50.109  1.00  0.00    -0.038 SA
BRANCH  21  23
HETATM   23  N7  UNL     1      24.040   2.657  52.048  1.00  0.00    -0.326 N 
HETATM   24  H8  UNL     1      23.879   2.921  53.061  1.00  0.00     0.168 HD
BRANCH  23  25
HETATM   25  C9  UNL     1      24.808   1.500  52.284  1.00  0.00     0.112 A 
HETATM   26  C10 UNL     1      24.186   0.570  53.120  1.00  0.00     0.146 A 
HETATM   27  F1  UNL     1      22.937   0.779  53.656  1.00  0.00    -0.204 F 
HETATM   28  C11 UNL     1      24.794  -0.642  53.469  1.00  0.00     0.045 A 
HETATM   29  C12 UNL     1      26.047  -0.859  52.935  1.00  0.00     0.006 A 
HETATM   30  C13 UNL     1      26.704   0.029  52.105  1.00  0.00     0.045 A 
HETATM   31  C14 UNL     1      26.075   1.217  51.780  1.00  0.00     0.146 A 
HETATM   32  F2  UNL     1      26.605   2.173  50.977  1.00  0.00    -0.204 F 
ENDBRANCH  23  25
ENDBRANCH  21  23
ENDBRANCH   5  21
TORSDOF 7
ENDMDL
MODEL 5
REMARK VINA RESULT:      -7.5      2.859      3.656
REMARK  7 active torsions:
REMARK  status: ('A' for Active; 'I' for Inactive)
REMARK    1  A    between atoms: N1_1  and  C1_2 
REMARK    2  A    between atoms: C2_4  and  N3_5 
REMARK    3  A    between atoms: C5_8  and  S1_9 
REMARK    4  A    between atoms: S1_9  and  N4_10 
REMARK    5  A    between atoms: N6_16  and  C8_17 
REMARK    6  A    between atoms: C8_17  and  N7_19 
REMARK    7  A    between atoms: N7_19  and  C9_20 
ROOT
HETATM    1  C1  UNL     1      22.347   3.029  49.297  1.00  0.00     0.739 A 
HETATM    2  N2  UNL     1      23.320   3.604  48.565  1.00  0.00     0.132 NA
HETATM    3  C2  UNL     1      24.266   4.062  49.432  1.00  0.00     0.766 A 
HETATM    4  N5  UNL     1      23.849   3.758  50.675  1.00  0.00     0.045 NA
HETATM    5  N6  UNL     1      22.682   3.129  50.599  1.00  0.00    -0.018 N 
ENDROOT
BRANCH   3   6
HETATM    6  N3  UNL     1      25.461   4.732  49.099  1.00  0.00    -0.162 N 
HETATM    7  C3  UNL     1      26.777   4.204  49.180  1.00  0.00     0.128 C 
HETATM    8  C4  UNL     1      27.809   4.784  48.600  1.00  0.00     0.016 C 
HETATM    9  C5  UNL     1      27.803   6.057  48.439  1.00  0.00     0.088 C 
HETATM   10  C6  UNL     1      26.504   6.698  48.316  1.00  0.00     0.044 C 
HETATM   11  C7  UNL     1      25.388   6.091  48.621  1.00  0.00     0.116 C 
BRANCH   9  12
HETATM   12  S1  UNL     1      29.188   7.118  48.351  1.00  0.00     0.240 S 
HETATM   13  O1  UNL     1      28.842   8.485  48.884  1.00  0.00    -0.206 OA
HETATM   14  O2  UNL     1      29.687   7.295  46.942  1.00  0.00    -0.206 OA
BRANCH  12  15
HETATM   15  N4  UNL     1      30.480   6.493  49.308  1.00  0.00    -0.225 NA
HETATM   16  H4  UNL     1      30.455   5.448  49.352  1.00  0.00     0.136 HD
HETATM   17  H5  UNL     1      31.412   6.850  48.979  1.00  0.00     0.136 HD
ENDBRANCH  12  15
ENDBRANCH   9  12
ENDBRANCH   3   6
BRANCH   1  18
HETATM   18  N1  UNL     1      21.252   2.483  48.539  1.00  0.00    -0.230 N 
HETATM   19  H1  UNL     1      21.015   3.076  47.696  1.00  0.00     0.174 HD
HETATM   20  H2  UNL     1      20.963   1.606  49.036  1.00  0.00     0.174 HD
ENDBRANCH   1  18
BRANCH   5  21
HETATM   21  C8  UNL     1      21.707   2.545  51.467  1.00  0.00     0.218 C 
HETATM   22  S2  UNL     1      20.417   3.195  52.245  1.00  0.00    -0.038 SA
BRANCH  21  23
HETATM   23  N7  UNL     1      21.889   1.156  51.697  1.00  0.00    -0.326 N 
HETATM   24  H8  UNL     1      21.743   0.377  50.994  1.00  0.00     0.168 HD
BRANCH  23  25
HETATM   25  C9  UNL     1      22.278   0.348  52.782  1.00  0.00     0.112 A 
HETATM   26  C10 UNL     1      21.213  -0.290  53.423  1.00  0.00     0.146 A 
HETATM   27  F1  UNL     1      19.909  -0.132  53.019  1.00  0.00    -0.204 F 
HETATM   28  C11 UNL     1      21.404  -1.136  54.522  1.00  0.00     0.045 A 
HETATM   29  C12 UNL     1      22.711  -1.299  54.932  1.00  0.00     0.006 A 
HETATM   30  C13 UNL     1      23.797  -0.692  54.333  1.00  0.00     0.045 A 
HETATM   31  C14 UNL     1      23.574   0.137  53.249  1.00  0.00     0.146 A 
HETATM   32  F2  UNL     1      24.547   0.794  52.570  1.00  0.00    -0.204 F 
ENDBRANCH  23  25
ENDBRANCH  21  23
ENDBRANCH   5  21
TORSDOF 7
ENDMDL
MODEL 6
REMARK VINA RESULT:      -7.5      2.906      3.842
REMARK  7 active torsions:
REMARK  status: ('A' for Active; 'I' for Inactive)
REMARK    1  A    between atoms: N1_1  and  C1_2 
REMARK    2  A    between atoms: C2_4  and  N3_5 
REMARK    3  A    between atoms: C5_8  and  S1_9 
REMARK    4  A    between atoms: S1_9  and  N4_10 
REMARK    5  A    between atoms: N6_16  and  C8_17 
REMARK    6  A    between atoms: C8_17  and  N7_19 
REMARK    7  A    between atoms: N7_19  and  C9_20 
ROOT
HETATM    1  C1  UNL     1      23.143   5.099  51.221  1.00  0.00     0.739 A 
HETATM    2  N2  UNL     1      24.179   5.960  51.215  1.00  0.00     0.132 NA
HETATM    3  C2  UNL     1      24.817   5.821  50.019  1.00  0.00     0.766 A 
HETATM    4  N5  UNL     1      24.159   4.878  49.321  1.00  0.00     0.045 NA
HETATM    5  N6  UNL     1      23.139   4.434  50.047  1.00  0.00    -0.018 N 
ENDROOT
BRANCH   3   6
HETATM    6  N3  UNL     1      25.957   6.530  49.585  1.00  0.00    -0.162 N 
HETATM    7  C3  UNL     1      26.957   6.057  48.694  1.00  0.00     0.128 C 
HETATM    8  C4  UNL     1      27.835   6.860  48.126  1.00  0.00     0.016 C 
HETATM    9  C5  UNL     1      28.192   7.931  48.737  1.00  0.00     0.088 C 
HETATM   10  C6  UNL     1      27.229   8.515  49.656  1.00  0.00     0.044 C 
HETATM   11  C7  UNL     1      26.168   7.873  50.068  1.00  0.00     0.116 C 
BRANCH   9  12
HETATM   12  S1  UNL     1      29.715   8.773  48.593  1.00  0.00     0.240 S 
HETATM   13  O1  UNL     1      29.702   9.689  47.396  1.00  0.00    -0.206 OA
HETATM   14  O2  UNL     1      30.879   7.832  48.430  1.00  0.00    -0.206 OA
BRANCH  12  15
HETATM   15  N4  UNL     1      29.995   9.743  49.992  1.00  0.00    -0.225 NA
HETATM   16  H4  UNL     1      30.787   9.371  50.566  1.00  0.00     0.136 HD
HETATM   17  H5  UNL     1      30.134  10.754  49.739  1.00  0.00     0.136 HD
ENDBRANCH  12  15
ENDBRANCH   9  12
ENDBRANCH   3   6
BRANCH   1  18
HETATM   18  N1  UNL     1      22.347   5.107  52.419  1.00  0.00    -0.230 N 
HETATM   19  H1  UNL     1      21.861   6.034  52.569  1.00  0.00     0.174 HD
HETATM   20  H2  UNL     1      22.458   4.157  52.849  1.00  0.00     0.174 HD
ENDBRANCH   1  18
BRANCH   5  21
HETATM   21  C8  UNL     1      22.071   3.489  49.952  1.00  0.00     0.218 C 
HETATM   22  S2  UNL     1      20.470   3.684  49.651  1.00  0.00    -0.038 SA
BRANCH  21  23
HETATM   23  N7  UNL     1      22.466   2.141  50.156  1.00  0.00    -0.326 N 
HETATM   24  H8  UNL     1      22.563   1.394  49.411  1.00  0.00     0.168 HD
BRANCH  23  25
HETATM   25  C9  UNL     1      22.838   1.345  51.257  1.00  0.00     0.112 A 
HETATM   26  C10 UNL     1      21.841   0.462  51.679  1.00  0.00     0.146 A 
HETATM   27  F1  UNL     1      20.613   0.388  51.064  1.00  0.00    -0.204 F 
HETATM   28  C11 UNL     1      22.027  -0.411  52.757  1.00  0.00     0.045 A 
HETATM   29  C12 UNL     1      23.257  -0.343  53.378  1.00  0.00     0.006 A 
HETATM   30  C13 UNL     1      24.273   0.512  53.000  1.00  0.00     0.045 A 
HETATM   31  C14 UNL     1      24.058   1.361  51.930  1.00  0.00     0.146 A 
HETATM   32  F2  UNL     1      24.968   2.247  51.455  1.00  0.00    -0.204 F 
ENDBRANCH  23  25
ENDBRANCH  21  23
ENDBRANCH   5  21
TORSDOF 7
ENDMDL
MODEL 7
REMARK VINA RESULT:      -7.5      3.207      4.107
REMARK  7 active torsions:
REMARK  status: ('A' for Active; 'I' for Inactive)
REMARK    1  A    between atoms: N1_1  and  C1_2 
REMARK    2  A    between atoms: C2_4  and  N3_5 
REMARK    3  A    between atoms: C5_8  and  S1_9 
REMARK    4  A    between atoms: S1_9  and  N4_10 
REMARK    5  A    between atoms: N6_16  and  C8_17 
REMARK    6  A    between atoms: C8_17  and  N7_19 
REMARK    7  A    between atoms: N7_19  and  C9_20 
ROOT
HETATM    1  C1  UNL     1      22.653   3.974  51.092  1.00  0.00     0.739 A 
HETATM    2  N2  UNL     1      23.753   4.746  50.999  1.00  0.00     0.132 NA
HETATM    3  C2  UNL     1      24.414   4.377  49.866  1.00  0.00     0.766 A 
HETATM    4  N5  UNL     1      23.705   3.388  49.293  1.00  0.00     0.045 NA
HETATM    5  N6  UNL     1      22.631   3.138  50.034  1.00  0.00    -0.018 N 
ENDROOT
BRANCH   3   6
HETATM    6  N3  UNL     1      25.619   4.923  49.378  1.00  0.00    -0.162 N 
HETATM    7  C3  UNL     1      26.870   4.258  49.280  1.00  0.00     0.128 C 
HETATM    8  C4  UNL     1      27.872   4.737  48.569  1.00  0.00     0.016 C 
HETATM    9  C5  UNL     1      27.981   6.006  48.415  1.00  0.00     0.088 C 
HETATM   10  C6  UNL     1      26.753   6.783  48.471  1.00  0.00     0.044 C 
HETATM   11  C7  UNL     1      25.629   6.291  48.920  1.00  0.00     0.116 C 
BRANCH   9  12
HETATM   12  S1  UNL     1      29.447   6.917  48.146  1.00  0.00     0.240 S 
HETATM   13  O1  UNL     1      29.454   7.511  46.761  1.00  0.00    -0.206 OA
HETATM   14  O2  UNL     1      30.683   6.069  48.282  1.00  0.00    -0.206 OA
BRANCH  12  15
HETATM   15  N4  UNL     1      29.555   8.218  49.274  1.00  0.00    -0.225 NA
HETATM   16  H4  UNL     1      30.198   8.971  48.933  1.00  0.00     0.136 HD
HETATM   17  H5  UNL     1      28.605   8.594  49.522  1.00  0.00     0.136 HD
ENDBRANCH  12  15
ENDBRANCH   9  12
ENDBRANCH   3   6
BRANCH   1  18
HETATM   18  N1  UNL     1      21.823   4.227  52.241  1.00  0.00    -0.230 N 
HETATM   19  H1  UNL     1      20.847   4.529  51.970  1.00  0.00     0.174 HD
HETATM   20  H2  UNL     1      22.424   4.039  53.080  1.00  0.00     0.174 HD
ENDBRANCH   1  18
BRANCH   5  21
HETATM   21  C8  UNL     1      21.495   2.270  50.039  1.00  0.00     0.218 C 
HETATM   22  S2  UNL     1      19.953   2.495  49.524  1.00  0.00    -0.038 SA
BRANCH  21  23
HETATM   23  N7  UNL     1      21.745   0.986  50.589  1.00  0.00    -0.326 N 
HETATM   24  H8  UNL     1      22.025   0.115  50.054  1.00  0.00     0.168 HD
BRANCH  23  25
HETATM   25  C9  UNL     1      21.732   0.409  51.874  1.00  0.00     0.112 A 
HETATM   26  C10 UNL     1      22.987   0.358  52.484  1.00  0.00     0.146 A 
HETATM   27  F1  UNL     1      24.124   0.832  51.872  1.00  0.00    -0.204 F 
HETATM   28  C11 UNL     1      23.173  -0.179  53.763  1.00  0.00     0.045 A 
HETATM   29  C12 UNL     1      22.036  -0.656  54.383  1.00  0.00     0.006 A 
HETATM   30  C13 UNL     1      20.774  -0.629  53.822  1.00  0.00     0.045 A 
HETATM   31  C14 UNL     1      20.625  -0.091  52.557  1.00  0.00     0.146 A 
HETATM   32  F2  UNL     1      19.447  -0.002  51.893  1.00  0.00    -0.204 F 
ENDBRANCH  23  25
ENDBRANCH  21  23
ENDBRANCH   5  21
TORSDOF 7
ENDMDL
MODEL 8
REMARK VINA RESULT:      -7.4      3.225      4.644
REMARK  7 active torsions:
REMARK  status: ('A' for Active; 'I' for Inactive)
REMARK    1  A    between atoms: N1_1  and  C1_2 
REMARK    2  A    between atoms: C2_4  and  N3_5 
REMARK    3  A    between atoms: C5_8  and  S1_9 
REMARK    4  A    between atoms: S1_9  and  N4_10 
REMARK    5  A    between atoms: N6_16  and  C8_17 
REMARK    6  A    between atoms: C8_17  and  N7_19 
REMARK    7  A    between atoms: N7_19  and  C9_20 
ROOT
HETATM    1  C1  UNL     1      24.906   6.715  50.691  1.00  0.00     0.739 A 
HETATM    2  N2  UNL     1      25.856   7.481  50.121  1.00  0.00     0.132 NA
HETATM    3  C2  UNL     1      26.591   6.677  49.304  1.00  0.00     0.766 A 
HETATM    4  N5  UNL     1      26.077   5.437  49.394  1.00  0.00     0.045 NA
HETATM    5  N6  UNL     1      25.051   5.453  50.237  1.00  0.00    -0.018 N 
ENDROOT
BRANCH   3   6
HETATM    6  N3  UNL     1      27.691   7.063  48.509  1.00  0.00    -0.162 N 
HETATM    7  C3  UNL     1      27.888   8.330  47.898  1.00  0.00     0.128 C 
HETATM    8  C4  UNL     1      29.053   8.704  47.406  1.00  0.00     0.016 C 
HETATM    9  C5  UNL     1      29.856   7.812  46.951  1.00  0.00     0.088 C 
HETATM   10  C6  UNL     1      29.757   6.482  47.529  1.00  0.00     0.044 C 
HETATM   11  C7  UNL     1      28.745   6.109  48.267  1.00  0.00     0.116 C 
BRANCH   9  12
HETATM   12  S1  UNL     1      31.065   8.014  45.706  1.00  0.00     0.240 S 
HETATM   13  O1  UNL     1      31.950   6.796  45.626  1.00  0.00    -0.206 OA
HETATM   14  O2  UNL     1      31.953   9.203  45.955  1.00  0.00    -0.206 OA
BRANCH  12  15
HETATM   15  N4  UNL     1      30.309   8.215  44.169  1.00  0.00    -0.225 NA
HETATM   16  H4  UNL     1      29.977   7.301  43.780  1.00  0.00     0.136 HD
HETATM   17  H5  UNL     1      29.537   8.928  44.208  1.00  0.00     0.136 HD
ENDBRANCH  12  15
ENDBRANCH   9  12
ENDBRANCH   3   6
BRANCH   1  18
HETATM   18  N1  UNL     1      24.024   7.404  51.596  1.00  0.00    -0.230 N 
HETATM   19  H1  UNL     1      24.285   7.243  52.607  1.00  0.00     0.174 HD
HETATM   20  H2  UNL     1      23.327   7.908  50.995  1.00  0.00     0.174 HD
ENDBRANCH   1  18
BRANCH   5  21
HETATM   21  C8  UNL     1      24.085   4.554  50.786  1.00  0.00     0.218 C 
HETATM   22  S2  UNL     1      22.532   4.235  50.361  1.00  0.00    -0.038 SA
BRANCH  21  23
HETATM   23  N7  UNL     1      24.552   3.804  51.897  1.00  0.00    -0.326 N 
HETATM   24  H8  UNL     1      24.579   4.125  52.907  1.00  0.00     0.168 HD
BRANCH  23  25
HETATM   25  C9  UNL     1      25.093   2.520  52.103  1.00  0.00     0.112 A 
HETATM   26  C10 UNL     1      24.219   1.634  52.738  1.00  0.00     0.146 A 
HETATM   27  F1  UNL     1      22.949   1.998  53.121  1.00  0.00    -0.204 F 
HETATM   28  C11 UNL     1      24.578   0.312  53.026  1.00  0.00     0.045 A 
HETATM   29  C12 UNL     1      25.850  -0.060  52.644  1.00  0.00     0.006 A 
HETATM   30  C13 UNL     1      26.750   0.778  52.015  1.00  0.00     0.045 A 
HETATM   31  C14 UNL     1      26.364   2.078  51.744  1.00  0.00     0.146 A 
HETATM   32  F2  UNL     1      27.146   3.001  51.133  1.00  0.00    -0.204 F 
ENDBRANCH  23  25
ENDBRANCH  21  23
ENDBRANCH   5  21
TORSDOF 7
ENDMDL
MODEL 9
REMARK VINA RESULT:      -7.4      4.482      8.219
REMARK  7 active torsions:
REMARK  status: ('A' for Active; 'I' for Inactive)
REMARK    1  A    between atoms: N1_1  and  C1_2 
REMARK    2  A    between atoms: C2_4  and  N3_5 
REMARK    3  A    between atoms: C5_8  and  S1_9 
REMARK    4  A    between atoms: S1_9  and  N4_10 
REMARK    5  A    between atoms: N6_16  and  C8_17 
REMARK    6  A    between atoms: C8_17  and  N7_19 
REMARK    7  A    between atoms: N7_19  and  C9_20 
ROOT
HETATM    1  C1  UNL     1      23.893   6.174  50.759  1.00  0.00     0.739 A 
HETATM    2  N2  UNL     1      23.866   5.140  51.621  1.00  0.00     0.132 NA
HETATM    3  C2  UNL     1      24.805   4.243  51.211  1.00  0.00     0.766 A 
HETATM    4  N5  UNL     1      25.384   4.747  50.106  1.00  0.00     0.045 NA
HETATM    5  N6  UNL     1      24.833   5.922  49.825  1.00  0.00    -0.018 N 
ENDROOT
BRANCH   3   6
HETATM    6  N3  UNL     1      25.118   3.011  51.823  1.00  0.00    -0.162 N 
HETATM    7  C3  UNL     1      24.343   2.332  52.800  1.00  0.00     0.128 C 
HETATM    8  C4  UNL     1      24.557   1.071  53.120  1.00  0.00     0.016 C 
HETATM    9  C5  UNL     1      25.742   0.590  53.017  1.00  0.00     0.088 C 
HETATM   10  C6  UNL     1      26.614   1.197  52.024  1.00  0.00     0.044 C 
HETATM   11  C7  UNL     1      26.338   2.337  51.448  1.00  0.00     0.116 C 
BRANCH   9  12
HETATM   12  S1  UNL     1      26.437  -0.720  53.941  1.00  0.00     0.240 S 
HETATM   13  O1  UNL     1      25.431  -1.269  54.920  1.00  0.00    -0.206 OA
HETATM   14  O2  UNL     1      27.646  -0.290  54.727  1.00  0.00    -0.206 OA
BRANCH  12  15
HETATM   15  N4  UNL     1      26.903  -2.007  52.891  1.00  0.00    -0.225 NA
HETATM   16  H4  UNL     1      27.117  -2.881  53.425  1.00  0.00     0.136 HD
HETATM   17  H5  UNL     1      26.186  -2.171  52.140  1.00  0.00     0.136 HD
ENDBRANCH  12  15
ENDBRANCH   9  12
ENDBRANCH   3   6
BRANCH   1  18
HETATM   18  N1  UNL     1      22.956   7.230  51.039  1.00  0.00    -0.230 N 
HETATM   19  H1  UNL     1      23.291   7.866  51.813  1.00  0.00     0.174 HD
HETATM   20  H2  UNL     1      22.154   7.090  50.378  1.00  0.00     0.174 HD
ENDBRANCH   1  18
BRANCH   5  21
HETATM   21  C8  UNL     1      24.942   6.966  48.855  1.00  0.00     0.218 C 
HETATM   22  S2  UNL     1      24.033   7.323  47.536  1.00  0.00    -0.038 SA
BRANCH  21  23
HETATM   23  N7  UNL     1      26.031   7.851  49.070  1.00  0.00    -0.326 N 
HETATM   24  H8  UNL     1      25.975   8.836  49.456  1.00  0.00     0.168 HD
BRANCH  23  25
HETATM   25  C9  UNL     1      27.427   7.808  48.891  1.00  0.00     0.112 A 
HETATM   26  C10 UNL     1      28.089   8.956  49.331  1.00  0.00     0.146 A 
HETATM   27  F1  UNL     1      27.423  10.024  49.886  1.00  0.00    -0.204 F 
HETATM   28  C11 UNL     1      29.479   9.098  49.238  1.00  0.00     0.045 A 
HETATM   29  C12 UNL     1      30.153   8.029  48.682  1.00  0.00     0.006 A 
HETATM   30  C13 UNL     1      29.545   6.874  48.233  1.00  0.00     0.045 A 
HETATM   31  C14 UNL     1      28.171   6.766  48.340  1.00  0.00     0.146 A 
HETATM   32  F2  UNL     1      27.450   5.690  47.940  1.00  0.00    -0.204 F 
ENDBRANCH  23  25
ENDBRANCH  21  23
ENDBRANCH   5  21
TORSDOF 7
ENDMDL
