MODEL 1
REMARK VINA RESULT:      -9.6      0.000      0.000
REMARK  3 active torsions:
REMARK  status: ('A' for Active; 'I' for Inactive)
REMARK    1  A    between atoms: O1_2  and  C2_3 
REMARK    2  A    between atoms: C10_14  and  N3_15 
REMARK    3  A    between atoms: N5_17  and  C11_18 
ROOT
HETATM    1  C2  UNL     1      18.937   0.371  51.614  1.00  0.00     0.098 A 
HETATM    2  C3  UNL     1      18.188  -0.410  52.369  1.00  0.00     0.013 A 
HETATM    3  C4  UNL     1      18.784  -1.177  53.449  1.00  0.00     0.034 A 
HETATM    4  C5  UNL     1      20.217  -1.027  53.653  1.00  0.00     0.041 A 
HETATM    5  C6  UNL     1      20.978  -0.131  52.759  1.00  0.00    -0.038 A 
HETATM    6  C7  UNL     1      20.366   0.544  51.777  1.00  0.00     0.106 A 
HETATM    7  O2  UNL     1      20.681   1.464  50.736  1.00  0.00    -0.329 OA
HETATM    8  C8  UNL     1      21.730   2.424  51.002  1.00  0.00     0.299 C 
HETATM    9  N1  UNL     1      22.984   1.780  50.686  1.00  0.00    -0.351 N 
HETATM   10  C9  UNL     1      24.331   1.997  50.989  1.00  0.00     0.173 A 
HETATM   11  N2  UNL     1      24.548   2.878  50.086  1.00  0.00    -0.042 NA
HETATM   12  C10 UNL     1      25.905   3.391  50.048  1.00  0.00     0.739 A 
HETATM   13  N4  UNL     1      26.759   2.938  50.893  1.00  0.00     0.026 NA
HETATM   14  N5  UNL     1      26.480   1.974  51.861  1.00  0.00    -0.215 N 
HETATM   15  C17 UNL     1      25.197   1.407  51.995  1.00  0.00     0.102 A 
HETATM   16  C18 UNL     1      24.801   0.574  52.933  1.00  0.00     0.010 C 
HETATM   17  C19 UNL     1      23.563  -0.058  53.374  1.00  0.00     0.006 C 
HETATM   18  C20 UNL     1      22.397   0.205  52.729  1.00  0.00     0.061 C 
HETATM   19  H11 UNL     1      22.947   0.913  50.054  1.00  0.00     0.163 HD
ENDROOT
BRANCH  14  20
HETATM   20  C11 UNL     1      27.502   1.548  52.751  1.00  0.00     0.059 A 
HETATM   21  C12 UNL     1      28.346   2.192  53.648  1.00  0.00     0.031 A 
HETATM   22  C13 UNL     1      29.269   1.468  54.365  1.00  0.00     0.002 A 
HETATM   23  C14 UNL     1      29.408   0.106  54.243  1.00  0.00     0.000 A 
HETATM   24  C15 UNL     1      28.577  -0.557  53.355  1.00  0.00     0.002 A 
HETATM   25  C16 UNL     1      27.643   0.160  52.626  1.00  0.00     0.031 A 
ENDBRANCH  14  20
BRANCH  12  26
HETATM   26  N3  UNL     1      26.463   4.372  49.180  1.00  0.00    -0.230 N 
HETATM   27  H12 UNL     1      26.879   4.148  48.235  1.00  0.00     0.174 HD
HETATM   28  H13 UNL     1      26.496   5.385  49.423  1.00  0.00     0.174 HD
ENDBRANCH  12  26
BRANCH   1  29
HETATM   29  O1  UNL     1      18.059   0.937  50.703  1.00  0.00    -0.353 OA
HETATM   30  C1  UNL     1      17.181   0.223  49.871  1.00  0.00     0.210 C 
ENDBRANCH   1  29
TORSDOF 3
ENDMDL
MODEL 2
REMARK VINA RESULT:      -9.6      3.066      5.675
REMARK  3 active torsions:
REMARK  status: ('A' for Active; 'I' for Inactive)
REMARK    1  A    between atoms: O1_2  and  C2_3 
REMARK    2  A    between atoms: C10_14  and  N3_15 
REMARK    3  A    between atoms: N5_17  and  C11_18 
ROOT
HETATM    1  C2  UNL     1      23.353   6.012  48.915  1.00  0.00     0.098 A 
HETATM    2  C3  UNL     1      24.019   6.883  48.180  1.00  0.00     0.013 A 
HETATM    3  C4  UNL     1      25.467   6.807  48.085  1.00  0.00     0.034 A 
HETATM    4  C5  UNL     1      26.121   5.734  48.818  1.00  0.00     0.041 A 
HETATM    5  C6  UNL     1      25.297   4.805  49.617  1.00  0.00    -0.038 A 
HETATM    6  C7  UNL     1      23.965   4.935  49.666  1.00  0.00     0.106 A 
HETATM    7  O2  UNL     1      22.837   4.308  50.270  1.00  0.00    -0.329 OA
HETATM    8  C8  UNL     1      22.895   2.872  50.438  1.00  0.00     0.299 C 
HETATM    9  N1  UNL     1      23.585   2.619  51.681  1.00  0.00    -0.351 N 
HETATM   10  C9  UNL     1      24.233   1.528  52.269  1.00  0.00     0.173 A 
HETATM   11  N2  UNL     1      23.182   0.960  52.728  1.00  0.00    -0.042 NA
HETATM   12  C10 UNL     1      23.424  -0.273  53.455  1.00  0.00     0.739 A 
HETATM   13  N4  UNL     1      24.633  -0.688  53.581  1.00  0.00     0.026 NA
HETATM   14  N5  UNL     1      25.751  -0.034  53.064  1.00  0.00    -0.215 N 
HETATM   15  C17 UNL     1      25.638   1.168  52.338  1.00  0.00     0.102 A 
HETATM   16  C18 UNL     1      26.610   1.808  51.723  1.00  0.00     0.010 C 
HETATM   17  C19 UNL     1      26.765   2.956  50.837  1.00  0.00     0.006 C 
HETATM   18  C20 UNL     1      25.675   3.661  50.438  1.00  0.00     0.061 C 
HETATM   19  H11 UNL     1      23.646   3.427  52.385  1.00  0.00     0.163 HD
ENDROOT
BRANCH  14  20
HETATM   20  C11 UNL     1      27.046  -0.587  53.258  1.00  0.00     0.059 A 
HETATM   21  C12 UNL     1      28.227  -0.128  53.828  1.00  0.00     0.031 A 
HETATM   22  C13 UNL     1      29.343  -0.931  53.837  1.00  0.00     0.002 A 
HETATM   23  C14 UNL     1      29.358  -2.196  53.300  1.00  0.00     0.000 A 
HETATM   24  C15 UNL     1      28.191  -2.674  52.727  1.00  0.00     0.002 A 
HETATM   25  C16 UNL     1      27.059  -1.876  52.711  1.00  0.00     0.031 A 
ENDBRANCH  14  20
BRANCH  12  26
HETATM   26  N3  UNL     1      22.482  -1.142  54.076  1.00  0.00    -0.230 N 
HETATM   27  H12 UNL     1      22.750  -2.037  54.570  1.00  0.00     0.174 HD
HETATM   28  H13 UNL     1      21.458  -0.949  54.084  1.00  0.00     0.174 HD
ENDBRANCH  12  26
BRANCH   1  29
HETATM   29  O1  UNL     1      22.022   6.374  48.781  1.00  0.00    -0.353 OA
HETATM   30  C1  UNL     1      21.406   7.455  49.434  1.00  0.00     0.210 C 
ENDBRANCH   1  29
TORSDOF 3
ENDMDL
MODEL 3
REMARK VINA RESULT:      -9.3      2.619      4.501
REMARK  3 active torsions:
REMARK  status: ('A' for Active; 'I' for Inactive)
REMARK    1  A    between atoms: O1_2  and  C2_3 
REMARK    2  A    between atoms: C10_14  and  N3_15 
REMARK    3  A    between atoms: N5_17  and  C11_18 
ROOT
HETATM    1  C2  UNL     1      21.012   3.734  49.240  1.00  0.00     0.098 A 
HETATM    2  C3  UNL     1      21.223   4.561  48.234  1.00  0.00     0.013 A 
HETATM    3  C4  UNL     1      22.578   4.921  47.852  1.00  0.00     0.034 A 
HETATM    4  C5  UNL     1      23.661   4.322  48.617  1.00  0.00     0.041 A 
HETATM    5  C6  UNL     1      23.332   3.407  49.729  1.00  0.00    -0.038 A 
HETATM    6  C7  UNL     1      22.059   3.121  50.032  1.00  0.00     0.106 A 
HETATM    7  O2  UNL     1      21.316   2.341  50.965  1.00  0.00    -0.329 OA
HETATM    8  C8  UNL     1      21.898   1.083  51.380  1.00  0.00     0.299 C 
HETATM    9  N1  UNL     1      22.795   1.372  52.476  1.00  0.00    -0.351 N 
HETATM   10  C9  UNL     1      23.858   0.719  53.106  1.00  0.00     0.173 A 
HETATM   11  N2  UNL     1      23.146  -0.019  53.872  1.00  0.00    -0.042 NA
HETATM   12  C10 UNL     1      23.902  -0.896  54.747  1.00  0.00     0.739 A 
HETATM   13  N4  UNL     1      25.185  -0.867  54.691  1.00  0.00     0.026 NA
HETATM   14  N5  UNL     1      25.921  -0.045  53.839  1.00  0.00    -0.215 N 
HETATM   15  C17 UNL     1      25.295   0.845  52.943  1.00  0.00     0.102 A 
HETATM   16  C18 UNL     1      25.887   1.585  52.030  1.00  0.00     0.010 C 
HETATM   17  C19 UNL     1      25.508   2.470  50.934  1.00  0.00     0.006 C 
HETATM   18  C20 UNL     1      24.196   2.677  50.650  1.00  0.00     0.061 C 
HETATM   19  H11 UNL     1      22.662   2.306  52.988  1.00  0.00     0.163 HD
ENDROOT
BRANCH  14  20
HETATM   20  C11 UNL     1      27.341  -0.098  53.855  1.00  0.00     0.059 A 
HETATM   21  C12 UNL     1      28.345   0.756  54.294  1.00  0.00     0.031 A 
HETATM   22  C13 UNL     1      29.665   0.403  54.140  1.00  0.00     0.002 A 
HETATM   23  C14 UNL     1      30.059  -0.780  53.560  1.00  0.00     0.000 A 
HETATM   24  C15 UNL     1      29.075  -1.647  53.116  1.00  0.00     0.002 A 
HETATM   25  C16 UNL     1      27.742  -1.304  53.265  1.00  0.00     0.031 A 
ENDBRANCH  14  20
BRANCH  12  26
HETATM   26  N3  UNL     1      23.420  -1.836  55.702  1.00  0.00    -0.230 N 
HETATM   27  H12 UNL     1      23.881  -2.008  56.637  1.00  0.00     0.174 HD
HETATM   28  H13 UNL     1      22.572  -2.419  55.539  1.00  0.00     0.174 HD
ENDBRANCH  12  26
BRANCH   1  29
HETATM   29  O1  UNL     1      19.633   3.617  49.324  1.00  0.00    -0.353 OA
HETATM   30  C1  UNL     1      18.773   3.361  48.244  1.00  0.00     0.210 C 
ENDBRANCH   1  29
TORSDOF 3
ENDMDL
MODEL 4
REMARK VINA RESULT:      -9.0      2.805      5.287
REMARK  3 active torsions:
REMARK  status: ('A' for Active; 'I' for Inactive)
REMARK    1  A    between atoms: O1_2  and  C2_3 
REMARK    2  A    between atoms: C10_14  and  N3_15 
REMARK    3  A    between atoms: N5_17  and  C11_18 
ROOT
HETATM    1  C2  UNL     1      22.828   0.042  53.687  1.00  0.00     0.098 A 
HETATM    2  C3  UNL     1      23.433  -0.859  54.437  1.00  0.00     0.013 A 
HETATM    3  C4  UNL     1      24.881  -0.984  54.410  1.00  0.00     0.034 A 
HETATM    4  C5  UNL     1      25.605  -0.072  53.538  1.00  0.00     0.041 A 
HETATM    5  C6  UNL     1      24.846   0.904  52.732  1.00  0.00    -0.038 A 
HETATM    6  C7  UNL     1      23.510   0.963  52.800  1.00  0.00     0.106 A 
HETATM    7  O2  UNL     1      22.427   1.698  52.237  1.00  0.00    -0.329 OA
HETATM    8  C8  UNL     1      22.664   3.095  51.944  1.00  0.00     0.299 C 
HETATM    9  N1  UNL     1      23.267   3.156  50.632  1.00  0.00    -0.351 N 
HETATM   10  C9  UNL     1      24.001   4.097  49.903  1.00  0.00     0.173 A 
HETATM   11  N2  UNL     1      22.999   4.774  49.483  1.00  0.00    -0.042 NA
HETATM   12  C10 UNL     1      23.339   5.903  48.637  1.00  0.00     0.739 A 
HETATM   13  N4  UNL     1      24.577   6.131  48.380  1.00  0.00     0.026 NA
HETATM   14  N5  UNL     1      25.638   5.364  48.860  1.00  0.00    -0.215 N 
HETATM   15  C17 UNL     1      25.430   4.246  49.693  1.00  0.00     0.102 A 
HETATM   16  C18 UNL     1      26.357   3.521  50.280  1.00  0.00     0.010 C 
HETATM   17  C19 UNL     1      26.435   2.430  51.245  1.00  0.00     0.006 C 
HETATM   18  C20 UNL     1      25.300   1.920  51.788  1.00  0.00     0.061 C 
HETATM   19  H11 UNL     1      23.153   2.297  49.997  1.00  0.00     0.163 HD
ENDROOT
BRANCH  14  20
HETATM   20  C11 UNL     1      26.973   5.710  48.517  1.00  0.00     0.059 A 
HETATM   21  C12 UNL     1      28.186   5.032  48.508  1.00  0.00     0.031 A 
HETATM   22  C13 UNL     1      29.336   5.683  48.128  1.00  0.00     0.002 A 
HETATM   23  C14 UNL     1      29.355   7.004  47.747  1.00  0.00     0.000 A 
HETATM   24  C15 UNL     1      28.157   7.700  47.748  1.00  0.00     0.002 A 
HETATM   25  C16 UNL     1      26.992   7.056  48.128  1.00  0.00     0.031 A 
ENDBRANCH  14  20
BRANCH  12  26
HETATM   26  N3  UNL     1      22.472   6.850  48.022  1.00  0.00    -0.230 N 
HETATM   27  H12 UNL     1      21.652   6.581  47.412  1.00  0.00     0.174 HD
HETATM   28  H13 UNL     1      22.590   7.878  48.135  1.00  0.00     0.174 HD
ENDBRANCH  12  26
BRANCH   1  29
HETATM   29  O1  UNL     1      21.478  -0.116  53.956  1.00  0.00    -0.353 OA
HETATM   30  C1  UNL     1      20.842  -1.340  54.224  1.00  0.00     0.210 C 
ENDBRANCH   1  29
TORSDOF 3
ENDMDL
MODEL 5
REMARK VINA RESULT:      -8.8      3.455      6.431
REMARK  3 active torsions:
REMARK  status: ('A' for Active; 'I' for Inactive)
REMARK    1  A    between atoms: O1_2  and  C2_3 
REMARK    2  A    between atoms: C10_14  and  N3_15 
REMARK    3  A    between atoms: N5_17  and  C11_18 
ROOT
HETATM    1  C2  UNL     1      24.352   0.150  53.301  1.00  0.00     0.098 A 
HETATM    2  C3  UNL     1      25.143  -0.887  53.495  1.00  0.00     0.013 A 
HETATM    3  C4  UNL     1      26.424  -0.970  52.814  1.00  0.00     0.034 A 
HETATM    4  C5  UNL     1      26.778   0.136  51.937  1.00  0.00     0.041 A 
HETATM    5  C6  UNL     1      25.829   1.256  51.778  1.00  0.00    -0.038 A 
HETATM    6  C7  UNL     1      24.661   1.267  52.433  1.00  0.00     0.106 A 
HETATM    7  O2  UNL     1      23.506   2.090  52.574  1.00  0.00    -0.329 OA
HETATM    8  C8  UNL     1      23.708   3.521  52.521  1.00  0.00     0.299 C 
HETATM    9  N1  UNL     1      23.694   3.900  51.126  1.00  0.00    -0.351 N 
HETATM   10  C9  UNL     1      24.119   5.001  50.378  1.00  0.00     0.173 A 
HETATM   11  N2  UNL     1      23.094   5.735  50.596  1.00  0.00    -0.042 NA
HETATM   12  C10 UNL     1      23.130   7.038  49.957  1.00  0.00     0.739 A 
HETATM   13  N4  UNL     1      24.153   7.346  49.243  1.00  0.00     0.026 NA
HETATM   14  N5  UNL     1      25.250   6.513  49.031  1.00  0.00    -0.215 N 
HETATM   15  C17 UNL     1      25.327   5.227  49.604  1.00  0.00     0.102 A 
HETATM   16  C18 UNL     1      26.354   4.406  49.554  1.00  0.00     0.010 C 
HETATM   17  C19 UNL     1      26.748   3.122  50.123  1.00  0.00     0.006 C 
HETATM   18  C20 UNL     1      25.917   2.474  50.980  1.00  0.00     0.061 C 
HETATM   19  H11 UNL     1      23.249   3.211  50.433  1.00  0.00     0.163 HD
ENDROOT
BRANCH  14  20
HETATM   20  C11 UNL     1      26.333   6.959  48.226  1.00  0.00     0.059 A 
HETATM   21  C12 UNL     1      27.703   6.727  48.217  1.00  0.00     0.031 A 
HETATM   22  C13 UNL     1      28.500   7.351  47.287  1.00  0.00     0.002 A 
HETATM   23  C14 UNL     1      28.006   8.215  46.339  1.00  0.00     0.000 A 
HETATM   24  C15 UNL     1      26.643   8.461  46.329  1.00  0.00     0.002 A 
HETATM   25  C16 UNL     1      25.828   7.840  47.261  1.00  0.00     0.031 A 
ENDBRANCH  14  20
BRANCH  12  26
HETATM   26  N3  UNL     1      22.164   8.082  50.005  1.00  0.00    -0.230 N 
HETATM   27  H12 UNL     1      21.380   8.186  49.304  1.00  0.00     0.174 HD
HETATM   28  H13 UNL     1      22.166   8.818  50.742  1.00  0.00     0.174 HD
ENDBRANCH  12  26
BRANCH   1  29
HETATM   29  O1  UNL     1      23.239  -0.097  54.090  1.00  0.00    -0.353 OA
HETATM   30  C1  UNL     1      22.259  -1.068  53.829  1.00  0.00     0.210 C 
ENDBRANCH   1  29
TORSDOF 3
ENDMDL
MODEL 6
REMARK VINA RESULT:      -8.6      4.982      9.246
REMARK  3 active torsions:
REMARK  status: ('A' for Active; 'I' for Inactive)
REMARK    1  A    between atoms: O1_2  and  C2_3 
REMARK    2  A    between atoms: C10_14  and  N3_15 
REMARK    3  A    between atoms: N5_17  and  C11_18 
ROOT
HETATM    1  C2  UNL     1      29.714   7.879  47.727  1.00  0.00     0.098 A 
HETATM    2  C3  UNL     1      30.828   7.355  47.252  1.00  0.00     0.013 A 
HETATM    3  C4  UNL     1      31.031   5.916  47.277  1.00  0.00     0.034 A 
HETATM    4  C5  UNL     1      29.956   5.108  47.833  1.00  0.00     0.041 A 
HETATM    5  C6  UNL     1      28.745   5.779  48.344  1.00  0.00    -0.038 A 
HETATM    6  C7  UNL     1      28.623   7.112  48.295  1.00  0.00     0.106 A 
HETATM    7  O2  UNL     1      27.691   8.129  48.651  1.00  0.00    -0.329 OA
HETATM    8  C8  UNL     1      26.287   7.805  48.525  1.00  0.00     0.299 C 
HETATM    9  N1  UNL     1      25.893   7.145  49.748  1.00  0.00    -0.351 N 
HETATM   10  C9  UNL     1      24.832   6.332  50.157  1.00  0.00     0.173 A 
HETATM   11  N2  UNL     1      24.000   7.277  50.391  1.00  0.00    -0.042 NA
HETATM   12  C10 UNL     1      22.701   6.842  50.868  1.00  0.00     0.739 A 
HETATM   13  N4  UNL     1      22.489   5.584  51.017  1.00  0.00     0.026 NA
HETATM   14  N5  UNL     1      23.426   4.586  50.752  1.00  0.00    -0.215 N 
HETATM   15  C17 UNL     1      24.719   4.889  50.280  1.00  0.00     0.102 A 
HETATM   16  C18 UNL     1      25.639   4.028  49.902  1.00  0.00     0.010 C 
HETATM   17  C19 UNL     1      26.962   4.049  49.289  1.00  0.00     0.006 C 
HETATM   18  C20 UNL     1      27.533   5.232  48.944  1.00  0.00     0.061 C 
HETATM   19  H11 UNL     1      26.525   7.277  50.605  1.00  0.00     0.163 HD
ENDROOT
BRANCH  14  20
HETATM   20  C11 UNL     1      23.081   3.221  50.947  1.00  0.00     0.059 A 
HETATM   21  C12 UNL     1      22.502   2.238  50.155  1.00  0.00     0.031 A 
HETATM   22  C13 UNL     1      22.280   0.982  50.669  1.00  0.00     0.002 A 
HETATM   23  C14 UNL     1      22.606   0.635  51.958  1.00  0.00     0.000 A 
HETATM   24  C15 UNL     1      23.185   1.600  52.767  1.00  0.00     0.002 A 
HETATM   25  C16 UNL     1      23.415   2.868  52.261  1.00  0.00     0.031 A 
ENDBRANCH  14  20
BRANCH  12  26
HETATM   26  N3  UNL     1      21.565   7.630  51.207  1.00  0.00    -0.230 N 
HETATM   27  H12 UNL     1      21.625   8.543  51.736  1.00  0.00     0.174 HD
HETATM   28  H13 UNL     1      20.593   7.357  50.953  1.00  0.00     0.174 HD
ENDBRANCH  12  26
BRANCH   1  29
HETATM   29  O1  UNL     1      29.856   9.246  47.549  1.00  0.00    -0.353 OA
HETATM   30  C1  UNL     1      30.740  10.070  48.265  1.00  0.00     0.210 C 
ENDBRANCH   1  29
TORSDOF 3
ENDMDL
MODEL 7
REMARK VINA RESULT:      -8.6      3.919      7.549
REMARK  3 active torsions:
REMARK  status: ('A' for Active; 'I' for Inactive)
REMARK    1  A    between atoms: O1_2  and  C2_3 
REMARK    2  A    between atoms: C10_14  and  N3_15 
REMARK    3  A    between atoms: N5_17  and  C11_18 
ROOT
HETATM    1  C2  UNL     1      25.821   6.879  48.150  1.00  0.00     0.098 A 
HETATM    2  C3  UNL     1      27.109   6.826  47.867  1.00  0.00     0.013 A 
HETATM    3  C4  UNL     1      27.923   5.726  48.357  1.00  0.00     0.034 A 
HETATM    4  C5  UNL     1      27.248   4.707  49.146  1.00  0.00     0.041 A 
HETATM    5  C6  UNL     1      25.803   4.848  49.415  1.00  0.00    -0.038 A 
HETATM    6  C7  UNL     1      25.113   5.891  48.937  1.00  0.00     0.106 A 
HETATM    7  O2  UNL     1      23.784   6.406  48.946  1.00  0.00    -0.329 OA
HETATM    8  C8  UNL     1      22.706   5.443  48.935  1.00  0.00     0.299 C 
HETATM    9  N1  UNL     1      22.467   5.058  50.307  1.00  0.00    -0.351 N 
HETATM   10  C9  UNL     1      21.828   3.999  50.960  1.00  0.00     0.173 A 
HETATM   11  N2  UNL     1      20.640   4.467  50.876  1.00  0.00    -0.042 NA
HETATM   12  C10 UNL     1      19.613   3.632  51.472  1.00  0.00     0.739 A 
HETATM   13  N4  UNL     1      19.961   2.525  52.021  1.00  0.00     0.026 NA
HETATM   14  N5  UNL     1      21.271   2.053  52.091  1.00  0.00    -0.215 N 
HETATM   15  C17 UNL     1      22.350   2.776  51.543  1.00  0.00     0.102 A 
HETATM   16  C18 UNL     1      23.601   2.378  51.463  1.00  0.00     0.010 C 
HETATM   17  C19 UNL     1      24.853   2.839  50.874  1.00  0.00     0.006 C 
HETATM   18  C20 UNL     1      24.885   3.996  50.163  1.00  0.00     0.061 C 
HETATM   19  H11 UNL     1      22.839   5.711  51.074  1.00  0.00     0.163 HD
ENDROOT
BRANCH  14  20
HETATM   20  C11 UNL     1      21.542   0.807  52.718  1.00  0.00     0.059 A 
HETATM   21  C12 UNL     1      22.119  -0.388  52.307  1.00  0.00     0.031 A 
HETATM   22  C13 UNL     1      22.216  -1.442  53.183  1.00  0.00     0.002 A 
HETATM   23  C14 UNL     1      21.764  -1.380  54.480  1.00  0.00     0.000 A 
HETATM   24  C15 UNL     1      21.186  -0.198  54.912  1.00  0.00     0.002 A 
HETATM   25  C16 UNL     1      21.081   0.872  54.040  1.00  0.00     0.031 A 
ENDBRANCH  14  20
BRANCH  12  26
HETATM   26  N3  UNL     1      18.208   3.858  51.540  1.00  0.00    -0.230 N 
HETATM   27  H12 UNL     1      17.776   4.722  51.966  1.00  0.00     0.174 HD
HETATM   28  H13 UNL     1      17.511   3.179  51.169  1.00  0.00     0.174 HD
ENDBRANCH  12  26
BRANCH   1  29
HETATM   29  O1  UNL     1      25.368   8.037  47.538  1.00  0.00    -0.353 OA
HETATM   30  C1  UNL     1      25.282   8.241  46.151  1.00  0.00     0.210 C 
ENDBRANCH   1  29
TORSDOF 3
ENDMDL
MODEL 8
REMARK VINA RESULT:      -8.6      3.324      7.080
REMARK  3 active torsions:
REMARK  status: ('A' for Active; 'I' for Inactive)
REMARK    1  A    between atoms: O1_2  and  C2_3 
REMARK    2  A    between atoms: C10_14  and  N3_15 
REMARK    3  A    between atoms: N5_17  and  C11_18 
ROOT
HETATM    1  C2  UNL     1      26.237   0.496  54.422  1.00  0.00     0.098 A 
HETATM    2  C3  UNL     1      25.759  -0.539  55.087  1.00  0.00     0.013 A 
HETATM    3  C4  UNL     1      24.422  -1.036  54.808  1.00  0.00     0.034 A 
HETATM    4  C5  UNL     1      23.666  -0.349  53.772  1.00  0.00     0.041 A 
HETATM    5  C6  UNL     1      24.279   0.802  53.080  1.00  0.00    -0.038 A 
HETATM    6  C7  UNL     1      25.516   1.212  53.389  1.00  0.00     0.106 A 
HETATM    7  O2  UNL     1      26.452   2.216  53.007  1.00  0.00    -0.329 OA
HETATM    8  C8  UNL     1      26.465   2.605  51.614  1.00  0.00     0.299 C 
HETATM    9  N1  UNL     1      25.449   3.620  51.448  1.00  0.00    -0.351 N 
HETATM   10  C9  UNL     1      24.746   4.173  50.374  1.00  0.00     0.173 A 
HETATM   11  N2  UNL     1      25.648   5.009  50.019  1.00  0.00    -0.042 NA
HETATM   12  C10 UNL     1      25.298   5.836  48.878  1.00  0.00     0.739 A 
HETATM   13  N4  UNL     1      24.148   5.675  48.330  1.00  0.00     0.026 NA
HETATM   14  N5  UNL     1      23.192   4.752  48.752  1.00  0.00    -0.215 N 
HETATM   15  C17 UNL     1      23.423   3.893  49.846  1.00  0.00     0.102 A 
HETATM   16  C18 UNL     1      22.637   2.922  50.260  1.00  0.00     0.010 C 
HETATM   17  C19 UNL     1      22.666   1.845  51.243  1.00  0.00     0.006 C 
HETATM   18  C20 UNL     1      23.763   1.663  52.022  1.00  0.00     0.061 C 
HETATM   19  H11 UNL     1      25.108   4.124  52.331  1.00  0.00     0.163 HD
ENDROOT
BRANCH  14  20
HETATM   20  C11 UNL     1      21.951   4.654  48.067  1.00  0.00     0.059 A 
HETATM   21  C12 UNL     1      20.642   5.012  48.363  1.00  0.00     0.031 A 
HETATM   22  C13 UNL     1      19.637   4.752  47.462  1.00  0.00     0.002 A 
HETATM   23  C14 UNL     1      19.859   4.141  46.251  1.00  0.00     0.000 A 
HETATM   24  C15 UNL     1      21.157   3.775  45.934  1.00  0.00     0.002 A 
HETATM   25  C16 UNL     1      22.179   4.032  46.833  1.00  0.00     0.031 A 
ENDBRANCH  14  20
BRANCH  12  26
HETATM   26  N3  UNL     1      26.073   6.843  48.236  1.00  0.00    -0.230 N 
HETATM   27  H12 UNL     1      26.066   7.009  47.193  1.00  0.00     0.174 HD
HETATM   28  H13 UNL     1      26.702   7.488  48.759  1.00  0.00     0.174 HD
ENDBRANCH  12  26
BRANCH   1  29
HETATM   29  O1  UNL     1      27.510   0.694  54.934  1.00  0.00    -0.353 OA
HETATM   30  C1  UNL     1      28.655  -0.030  54.564  1.00  0.00     0.210 C 
ENDBRANCH   1  29
TORSDOF 3
ENDMDL
MODEL 9
REMARK VINA RESULT:      -8.4      3.119      8.565
REMARK  3 active torsions:
REMARK  status: ('A' for Active; 'I' for Inactive)
REMARK    1  A    between atoms: O1_2  and  C2_3 
REMARK    2  A    between atoms: C10_14  and  N3_15 
REMARK    3  A    between atoms: N5_17  and  C11_18 
ROOT
HETATM    1  C2  UNL     1      26.441   0.482  53.209  1.00  0.00     0.098 A 
HETATM    2  C3  UNL     1      27.400   1.258  52.744  1.00  0.00     0.013 A 
HETATM    3  C4  UNL     1      27.097   2.305  51.782  1.00  0.00     0.034 A 
HETATM    4  C5  UNL     1      25.705   2.449  51.382  1.00  0.00     0.041 A 
HETATM    5  C6  UNL     1      24.697   1.533  51.952  1.00  0.00    -0.038 A 
HETATM    6  C7  UNL     1      25.046   0.586  52.831  1.00  0.00     0.106 A 
HETATM    7  O2  UNL     1      24.447  -0.458  53.594  1.00  0.00    -0.329 OA
HETATM    8  C8  UNL     1      23.106  -0.226  54.086  1.00  0.00     0.299 C 
HETATM    9  N1  UNL     1      22.196  -0.602  53.029  1.00  0.00    -0.351 N 
HETATM   10  C9  UNL     1      20.855  -0.354  52.719  1.00  0.00     0.173 A 
HETATM   11  N2  UNL     1      20.357  -1.256  53.479  1.00  0.00    -0.042 NA
HETATM   12  C10 UNL     1      18.909  -1.346  53.449  1.00  0.00     0.739 A 
HETATM   13  N4  UNL     1      18.257  -0.543  52.688  1.00  0.00     0.026 NA
HETATM   14  N5  UNL     1      18.842   0.426  51.874  1.00  0.00    -0.215 N 
HETATM   15  C17 UNL     1      20.239   0.608  51.823  1.00  0.00     0.102 A 
HETATM   16  C18 UNL     1      20.884   1.553  51.174  1.00  0.00     0.010 C 
HETATM   17  C19 UNL     1      22.252   2.039  51.038  1.00  0.00     0.006 C 
HETATM   18  C20 UNL     1      23.257   1.447  51.734  1.00  0.00     0.061 C 
HETATM   19  H11 UNL     1      22.576  -1.241  52.255  1.00  0.00     0.163 HD
ENDROOT
BRANCH  14  20
HETATM   20  C11 UNL     1      18.022   1.268  51.074  1.00  0.00     0.059 A 
HETATM   21  C12 UNL     1      17.684   2.615  51.104  1.00  0.00     0.031 A 
HETATM   22  C13 UNL     1      16.820   3.128  50.166  1.00  0.00     0.002 A 
HETATM   23  C14 UNL     1      16.257   2.364  49.172  1.00  0.00     0.000 A 
HETATM   24  C15 UNL     1      16.580   1.018  49.122  1.00  0.00     0.002 A 
HETATM   25  C16 UNL     1      17.449   0.488  50.061  1.00  0.00     0.031 A 
ENDBRANCH  14  20
BRANCH  12  26
HETATM   26  N3  UNL     1      18.055  -2.226  54.173  1.00  0.00    -0.230 N 
HETATM   27  H12 UNL     1      17.153  -2.615  53.785  1.00  0.00     0.174 HD
HETATM   28  H13 UNL     1      18.268  -2.546  55.141  1.00  0.00     0.174 HD
ENDBRANCH  12  26
BRANCH   1  29
HETATM   29  O1  UNL     1      27.074  -0.386  54.085  1.00  0.00    -0.353 OA
HETATM   30  C1  UNL     1      28.339  -0.178  54.658  1.00  0.00     0.210 C 
ENDBRANCH   1  29
TORSDOF 3
ENDMDL
