MODEL 1
REMARK VINA RESULT:      -8.8      0.000      0.000
REMARK  3 active torsions:
REMARK  status: ('A' for Active; 'I' for Inactive)
REMARK    1  A    between atoms: C9_10  and  S1_11 
REMARK    2  A    between atoms: S1_11  and  S2_12 
REMARK    3  A    between atoms: S2_12  and  C10_13 
ROOT
HETATM    1  O1  UNL     1      23.349   9.957  48.201  1.00  0.00    -0.292 OA
HETATM    2  C1  UNL     1      23.816   8.872  48.512  1.00  0.00     0.163 C 
HETATM    3  C2  UNL     1      24.780   8.412  49.588  1.00  0.00     0.085 C 
HETATM    4  C3  UNL     1      26.036   8.007  48.808  1.00  0.00    -0.012 C 
HETATM    5  C4  UNL     1      27.000   7.190  48.320  1.00  0.00     0.046 C 
HETATM    6  C5  UNL     1      27.070   5.761  48.575  1.00  0.00     0.004 C 
HETATM    7  C6  UNL     1      26.583   4.637  49.173  1.00  0.00     0.010 C 
HETATM    8  C7  UNL     1      26.308   3.234  49.665  1.00  0.00     0.093 C 
HETATM    9  C8  UNL     1      24.797   3.386  49.711  1.00  0.00    -0.040 C 
HETATM   10  C9  UNL     1      24.619   4.336  50.650  1.00  0.00     0.083 C 
HETATM   11  N2  UNL     1      25.779   5.166  50.303  1.00  0.00    -0.353 N 
HETATM   12  C18 UNL     1      23.737   2.741  48.912  1.00  0.00     0.038 C 
HETATM   13  C19 UNL     1      22.552   3.535  48.545  1.00  0.00     0.019 C 
HETATM   14  C20 UNL     1      22.713   4.811  47.795  1.00  0.00     0.092 C 
HETATM   15  N3  UNL     1      23.317   5.885  48.547  1.00  0.00    -0.296 NA
HETATM   16  P1  UNL     1      23.336   7.372  47.546  1.00  0.00     0.017 P 
HETATM   17  H14 UNL     1      26.005   6.088  50.856  1.00  0.00     0.166 HD
HETATM   18  H21 UNL     1      22.733   6.071  49.406  1.00  0.00     0.126 HD
HETATM   19  H22 UNL     1      24.097   7.217  46.343  1.00  0.00     0.082 HD
ENDROOT
BRANCH  10  20
HETATM   20  S1  UNL     1      23.370   4.569  51.900  1.00  0.00    -0.037 SA
BRANCH  20  21
HETATM   21  S2  UNL     1      22.389   2.794  52.399  1.00  0.00    -0.058 SA
BRANCH  21  22
HETATM   22  C10 UNL     1      23.213   1.280  51.962  1.00  0.00     0.214 A 
HETATM   23  N1  UNL     1      22.375   0.143  52.238  1.00  0.00    -0.280 NA
HETATM   24  C11 UNL     1      22.877  -0.628  53.109  1.00  0.00     0.124 A 
HETATM   25  C12 UNL     1      24.152  -0.137  53.573  1.00  0.00    -0.010 A 
HETATM   26  C13 UNL     1      25.116  -0.535  54.473  1.00  0.00     0.013 A 
HETATM   27  C17 UNL     1      24.383   1.030  52.886  1.00  0.00    -0.011 A 
HETATM   28  C14 UNL     1      26.270   0.181  54.699  1.00  0.00     0.001 A 
HETATM   29  C15 UNL     1      26.489   1.356  53.999  1.00  0.00     0.001 A 
HETATM   30  C16 UNL     1      25.528   1.761  53.095  1.00  0.00     0.011 A 
ENDBRANCH  21  22
ENDBRANCH  20  21
ENDBRANCH  10  20
TORSDOF 3
ENDMDL
MODEL 2
REMARK VINA RESULT:      -8.7      1.275      1.555
REMARK  3 active torsions:
REMARK  status: ('A' for Active; 'I' for Inactive)
REMARK    1  A    between atoms: C9_10  and  S1_11 
REMARK    2  A    between atoms: S1_11  and  S2_12 
REMARK    3  A    between atoms: S2_12  and  C10_13 
ROOT
HETATM    1  O1  UNL     1      25.804  10.550  47.962  1.00  0.00    -0.292 OA
HETATM    2  C1  UNL     1      25.810   9.375  48.293  1.00  0.00     0.163 C 
HETATM    3  C2  UNL     1      26.465   8.604  49.423  1.00  0.00     0.085 C 
HETATM    4  C3  UNL     1      27.523   7.746  48.719  1.00  0.00    -0.012 C 
HETATM    5  C4  UNL     1      28.138   6.620  48.286  1.00  0.00     0.046 C 
HETATM    6  C5  UNL     1      27.652   5.273  48.535  1.00  0.00     0.004 C 
HETATM    7  C6  UNL     1      26.744   4.423  49.093  1.00  0.00     0.010 C 
HETATM    8  C7  UNL     1      25.935   3.233  49.557  1.00  0.00     0.093 C 
HETATM    9  C8  UNL     1      24.591   3.941  49.510  1.00  0.00    -0.040 C 
HETATM   10  C9  UNL     1      24.726   4.903  50.443  1.00  0.00     0.083 C 
HETATM   11  N2  UNL     1      26.131   5.233  50.175  1.00  0.00    -0.353 N 
HETATM   12  C18 UNL     1      23.416   3.727  48.643  1.00  0.00     0.038 C 
HETATM   13  C19 UNL     1      22.639   4.900  48.209  1.00  0.00     0.019 C 
HETATM   14  C20 UNL     1      23.312   6.010  47.479  1.00  0.00     0.092 C 
HETATM   15  N3  UNL     1      24.228   6.792  48.275  1.00  0.00    -0.296 NA
HETATM   16  P1  UNL     1      24.863   8.148  47.288  1.00  0.00     0.017 P 
HETATM   17  H14 UNL     1      26.652   6.013  50.747  1.00  0.00     0.166 HD
HETATM   18  H21 UNL     1      23.706   7.197  49.097  1.00  0.00     0.126 HD
HETATM   19  H22 UNL     1      25.581   7.699  46.134  1.00  0.00     0.082 HD
ENDROOT
BRANCH  10  20
HETATM   20  S1  UNL     1      23.582   5.608  51.615  1.00  0.00    -0.037 SA
BRANCH  20  21
HETATM   21  S2  UNL     1      22.531   4.155  52.688  1.00  0.00    -0.058 SA
BRANCH  21  22
HETATM   22  C10 UNL     1      22.276   2.595  51.874  1.00  0.00     0.214 A 
HETATM   23  N1  UNL     1      21.000   2.034  52.231  1.00  0.00    -0.280 NA
HETATM   24  C11 UNL     1      21.109   0.930  52.840  1.00  0.00     0.124 A 
HETATM   25  C12 UNL     1      22.493   0.553  53.001  1.00  0.00    -0.010 A 
HETATM   26  C13 UNL     1      23.192  -0.494  53.558  1.00  0.00     0.013 A 
HETATM   27  C17 UNL     1      23.230   1.555  52.417  1.00  0.00    -0.011 A 
HETATM   28  C14 UNL     1      24.567  -0.566  53.548  1.00  0.00     0.001 A 
HETATM   29  C15 UNL     1      25.296   0.452  52.956  1.00  0.00     0.001 A 
HETATM   30  C16 UNL     1      24.603   1.505  52.395  1.00  0.00     0.011 A 
ENDBRANCH  21  22
ENDBRANCH  20  21
ENDBRANCH  10  20
TORSDOF 3
ENDMDL
MODEL 3
REMARK VINA RESULT:      -8.2      6.935      9.917
REMARK  3 active torsions:
REMARK  status: ('A' for Active; 'I' for Inactive)
REMARK    1  A    between atoms: C9_10  and  S1_11 
REMARK    2  A    between atoms: S1_11  and  S2_12 
REMARK    3  A    between atoms: S2_12  and  C10_13 
ROOT
HETATM    1  O1  UNL     1      33.097   2.056  48.151  1.00  0.00    -0.292 OA
HETATM    2  C1  UNL     1      33.129   3.170  47.653  1.00  0.00     0.163 C 
HETATM    3  C2  UNL     1      32.145   3.983  46.833  1.00  0.00     0.085 C 
HETATM    4  C3  UNL     1      32.789   4.047  45.443  1.00  0.00    -0.012 C 
HETATM    5  C4  UNL     1      33.367   4.606  44.354  1.00  0.00     0.046 C 
HETATM    6  C5  UNL     1      33.643   6.026  44.210  1.00  0.00     0.004 C 
HETATM    7  C6  UNL     1      33.591   7.300  44.693  1.00  0.00     0.010 C 
HETATM    8  C7  UNL     1      33.701   8.789  44.927  1.00  0.00     0.093 C 
HETATM    9  C8  UNL     1      33.866   8.690  46.434  1.00  0.00    -0.040 C 
HETATM   10  C9  UNL     1      32.691   8.162  46.831  1.00  0.00     0.083 C 
HETATM   11  N2  UNL     1      32.503   7.244  45.701  1.00  0.00    -0.353 N 
HETATM   12  C18 UNL     1      35.015   9.007  47.304  1.00  0.00     0.038 C 
HETATM   13  C19 UNL     1      35.266   8.153  48.477  1.00  0.00     0.019 C 
HETATM   14  C20 UNL     1      35.459   6.688  48.304  1.00  0.00     0.092 C 
HETATM   15  N3  UNL     1      34.274   5.962  47.911  1.00  0.00    -0.296 NA
HETATM   16  P1  UNL     1      34.643   4.208  47.857  1.00  0.00     0.017 P 
HETATM   17  H14 UNL     1      31.622   6.592  45.638  1.00  0.00     0.166 HD
HETATM   18  H21 UNL     1      33.522   6.120  48.634  1.00  0.00     0.126 HD
HETATM   19  H22 UNL     1      35.668   3.891  46.908  1.00  0.00     0.082 HD
ENDROOT
BRANCH  10  20
HETATM   20  S1  UNL     1      31.679   8.434  48.273  1.00  0.00    -0.037 SA
BRANCH  20  21
HETATM   21  S2  UNL     1      30.362   6.854  48.643  1.00  0.00    -0.058 SA
BRANCH  21  22
HETATM   22  C10 UNL     1      28.976   6.699  47.539  1.00  0.00     0.214 A 
HETATM   23  N1  UNL     1      28.369   7.981  47.297  1.00  0.00    -0.280 NA
HETATM   24  C11 UNL     1      27.172   8.035  47.706  1.00  0.00     0.124 A 
HETATM   25  C12 UNL     1      26.763   6.785  48.300  1.00  0.00    -0.010 A 
HETATM   26  C13 UNL     1      25.627   6.276  48.890  1.00  0.00     0.013 A 
HETATM   27  C17 UNL     1      27.849   5.948  48.210  1.00  0.00    -0.011 A 
HETATM   28  C14 UNL     1      25.549   4.990  49.377  1.00  0.00     0.001 A 
HETATM   29  C15 UNL     1      26.653   4.159  49.280  1.00  0.00     0.001 A 
HETATM   30  C16 UNL     1      27.794   4.661  48.691  1.00  0.00     0.011 A 
ENDBRANCH  21  22
ENDBRANCH  20  21
ENDBRANCH  10  20
TORSDOF 3
ENDMDL
MODEL 4
REMARK VINA RESULT:      -8.1      2.585      4.479
REMARK  3 active torsions:
REMARK  status: ('A' for Active; 'I' for Inactive)
REMARK    1  A    between atoms: C9_10  and  S1_11 
REMARK    2  A    between atoms: S1_11  and  S2_12 
REMARK    3  A    between atoms: S2_12  and  C10_13 
ROOT
HETATM    1  O1  UNL     1      21.818   3.616  44.898  1.00  0.00    -0.292 OA
HETATM    2  C1  UNL     1      21.978   3.747  46.101  1.00  0.00     0.163 C 
HETATM    3  C2  UNL     1      22.142   2.771  47.252  1.00  0.00     0.085 C 
HETATM    4  C3  UNL     1      20.847   2.931  48.057  1.00  0.00    -0.012 C 
HETATM    5  C4  UNL     1      20.058   3.242  49.112  1.00  0.00     0.046 C 
HETATM    6  C5  UNL     1      20.546   3.782  50.370  1.00  0.00     0.004 C 
HETATM    7  C6  UNL     1      21.573   4.188  51.168  1.00  0.00     0.010 C 
HETATM    8  C7  UNL     1      22.453   4.713  52.280  1.00  0.00     0.093 C 
HETATM    9  C8  UNL     1      23.499   5.325  51.364  1.00  0.00    -0.040 C 
HETATM   10  C9  UNL     1      24.008   4.250  50.729  1.00  0.00     0.083 C 
HETATM   11  N2  UNL     1      22.754   3.501  50.589  1.00  0.00    -0.353 N 
HETATM   12  C18 UNL     1      23.871   6.733  51.126  1.00  0.00     0.038 C 
HETATM   13  C19 UNL     1      24.250   7.140  49.762  1.00  0.00     0.019 C 
HETATM   14  C20 UNL     1      23.309   6.918  48.631  1.00  0.00     0.092 C 
HETATM   15  N3  UNL     1      23.114   5.535  48.266  1.00  0.00    -0.296 NA
HETATM   16  P1  UNL     1      22.051   5.445  46.825  1.00  0.00     0.017 P 
HETATM   17  H14 UNL     1      22.730   2.519  50.097  1.00  0.00     0.166 HD
HETATM   18  H21 UNL     1      24.049   5.113  48.015  1.00  0.00     0.126 HD
HETATM   19  H22 UNL     1      20.755   6.006  47.061  1.00  0.00     0.082 HD
ENDROOT
BRANCH  10  20
HETATM   20  S1  UNL     1      25.656   3.849  50.182  1.00  0.00    -0.037 SA
BRANCH  20  21
HETATM   21  S2  UNL     1      26.527   2.316  51.303  1.00  0.00    -0.058 SA
BRANCH  21  22
HETATM   22  C10 UNL     1      26.133   2.276  53.036  1.00  0.00     0.214 A 
HETATM   23  N1  UNL     1      27.239   1.765  53.801  1.00  0.00    -0.280 NA
HETATM   24  C11 UNL     1      26.956   0.688  54.403  1.00  0.00     0.124 A 
HETATM   25  C12 UNL     1      25.594   0.285  54.145  1.00  0.00    -0.010 A 
HETATM   26  C13 UNL     1      24.766  -0.754  54.511  1.00  0.00     0.013 A 
HETATM   27  C17 UNL     1      25.066   1.240  53.311  1.00  0.00    -0.011 A 
HETATM   28  C14 UNL     1      23.463  -0.859  54.079  1.00  0.00     0.001 A 
HETATM   29  C15 UNL     1      22.945   0.112  53.238  1.00  0.00     0.001 A 
HETATM   30  C16 UNL     1      23.768   1.155  52.867  1.00  0.00     0.011 A 
ENDBRANCH  21  22
ENDBRANCH  20  21
ENDBRANCH  10  20
TORSDOF 3
ENDMDL
MODEL 5
REMARK VINA RESULT:      -7.9      2.559      6.864
REMARK  3 active torsions:
REMARK  status: ('A' for Active; 'I' for Inactive)
REMARK    1  A    between atoms: C9_10  and  S1_11 
REMARK    2  A    between atoms: S1_11  and  S2_12 
REMARK    3  A    between atoms: S2_12  and  C10_13 
ROOT
HETATM    1  O1  UNL     1      21.618   3.854  46.249  1.00  0.00    -0.292 OA
HETATM    2  C1  UNL     1      21.968   3.436  47.340  1.00  0.00     0.163 C 
HETATM    3  C2  UNL     1      22.695   2.188  47.805  1.00  0.00     0.085 C 
HETATM    4  C3  UNL     1      21.622   1.398  48.564  1.00  0.00    -0.012 C 
HETATM    5  C4  UNL     1      21.011   0.808  49.618  1.00  0.00     0.046 C 
HETATM    6  C5  UNL     1      21.530   0.814  50.976  1.00  0.00     0.004 C 
HETATM    7  C6  UNL     1      22.495   1.158  51.876  1.00  0.00     0.010 C 
HETATM    8  C7  UNL     1      23.348   1.382  53.103  1.00  0.00     0.093 C 
HETATM    9  C8  UNL     1      23.902   2.723  52.655  1.00  0.00    -0.040 C 
HETATM   10  C9  UNL     1      24.609   2.403  51.554  1.00  0.00     0.083 C 
HETATM   11  N2  UNL     1      23.694   1.383  51.029  1.00  0.00    -0.353 N 
HETATM   12  C18 UNL     1      23.705   4.081  53.199  1.00  0.00     0.038 C 
HETATM   13  C19 UNL     1      23.627   5.211  52.258  1.00  0.00     0.019 C 
HETATM   14  C20 UNL     1      22.609   5.207  51.172  1.00  0.00     0.092 C 
HETATM   15  N3  UNL     1      22.835   4.232  50.131  1.00  0.00    -0.296 NA
HETATM   16  P1  UNL     1      21.596   4.431  48.851  1.00  0.00     0.017 P 
HETATM   17  H14 UNL     1      23.910   0.850  50.094  1.00  0.00     0.166 HD
HETATM   18  H21 UNL     1      23.784   4.405  49.703  1.00  0.00     0.126 HD
HETATM   19  H22 UNL     1      20.264   4.229  49.338  1.00  0.00     0.082 HD
ENDROOT
BRANCH  10  20
HETATM   20  S1  UNL     1      26.143   3.023  50.889  1.00  0.00    -0.037 SA
BRANCH  20  21
HETATM   21  S2  UNL     1      25.863   4.229  49.206  1.00  0.00    -0.058 SA
BRANCH  21  22
HETATM   22  C10 UNL     1      26.029   5.983  49.448  1.00  0.00     0.214 A 
HETATM   23  N1  UNL     1      24.829   6.670  49.052  1.00  0.00    -0.280 NA
HETATM   24  C11 UNL     1      25.023   7.468  48.089  1.00  0.00     0.124 A 
HETATM   25  C12 UNL     1      26.403   7.456  47.665  1.00  0.00    -0.010 A 
HETATM   26  C13 UNL     1      27.167   8.086  46.709  1.00  0.00     0.013 A 
HETATM   27  C17 UNL     1      27.042   6.555  48.482  1.00  0.00    -0.011 A 
HETATM   28  C14 UNL     1      28.514   7.848  46.552  1.00  0.00     0.001 A 
HETATM   29  C15 UNL     1      29.145   6.937  47.382  1.00  0.00     0.001 A 
HETATM   30  C16 UNL     1      28.386   6.301  48.343  1.00  0.00     0.011 A 
ENDBRANCH  21  22
ENDBRANCH  20  21
ENDBRANCH  10  20
TORSDOF 3
ENDMDL
MODEL 6
REMARK VINA RESULT:      -7.5      4.377      6.529
REMARK  3 active torsions:
REMARK  status: ('A' for Active; 'I' for Inactive)
REMARK    1  A    between atoms: C9_10  and  S1_11 
REMARK    2  A    between atoms: S1_11  and  S2_12 
REMARK    3  A    between atoms: S2_12  and  C10_13 
ROOT
HETATM    1  O1  UNL     1      28.185  15.301  46.772  1.00  0.00    -0.292 OA
HETATM    2  C1  UNL     1      28.297  14.159  47.187  1.00  0.00     0.163 C 
HETATM    3  C2  UNL     1      28.262  13.534  48.569  1.00  0.00     0.085 C 
HETATM    4  C3  UNL     1      29.706  13.076  48.803  1.00  0.00    -0.012 C 
HETATM    5  C4  UNL     1      30.730  12.213  49.005  1.00  0.00     0.046 C 
HETATM    6  C5  UNL     1      30.584  10.768  49.072  1.00  0.00     0.004 C 
HETATM    7  C6  UNL     1      29.802   9.652  49.048  1.00  0.00     0.010 C 
HETATM    8  C7  UNL     1      29.244   8.248  49.058  1.00  0.00     0.093 C 
HETATM    9  C8  UNL     1      28.110   8.533  48.088  1.00  0.00    -0.040 C 
HETATM   10  C9  UNL     1      27.355   9.423  48.761  1.00  0.00     0.083 C 
HETATM   11  N2  UNL     1      28.453  10.168  49.389  1.00  0.00    -0.353 N 
HETATM   12  C18 UNL     1      27.868   8.047  46.715  1.00  0.00     0.038 C 
HETATM   13  C19 UNL     1      27.264   8.971  45.739  1.00  0.00     0.019 C 
HETATM   14  C20 UNL     1      27.914  10.278  45.450  1.00  0.00     0.092 C 
HETATM   15  N3  UNL     1      27.861  11.235  46.530  1.00  0.00    -0.296 NA
HETATM   16  P1  UNL     1      28.581  12.784  45.987  1.00  0.00     0.017 P 
HETATM   17  H14 UNL     1      28.256  11.022  50.051  1.00  0.00     0.166 HD
HETATM   18  H21 UNL     1      26.851  11.409  46.782  1.00  0.00     0.126 HD
HETATM   19  H22 UNL     1      29.955  12.650  45.608  1.00  0.00     0.082 HD
ENDROOT
BRANCH  10  20
HETATM   20  S1  UNL     1      25.593   9.675  48.853  1.00  0.00    -0.037 SA
BRANCH  20  21
HETATM   21  S2  UNL     1      24.588   8.048  49.695  1.00  0.00    -0.058 SA
BRANCH  21  22
HETATM   22  C10 UNL     1      24.245   6.679  48.614  1.00  0.00     0.214 A 
HETATM   23  N1  UNL     1      22.954   6.112  48.899  1.00  0.00    -0.280 NA
HETATM   24  C11 UNL     1      23.029   4.909  49.289  1.00  0.00     0.124 A 
HETATM   25  C12 UNL     1      24.399   4.455  49.332  1.00  0.00    -0.010 A 
HETATM   26  C13 UNL     1      25.064   3.296  49.663  1.00  0.00     0.013 A 
HETATM   27  C17 UNL     1      25.165   5.519  48.923  1.00  0.00    -0.011 A 
HETATM   28  C14 UNL     1      26.434   3.174  49.597  1.00  0.00     0.001 A 
HETATM   29  C15 UNL     1      27.193   4.255  49.182  1.00  0.00     0.001 A 
HETATM   30  C16 UNL     1      26.534   5.421  48.849  1.00  0.00     0.011 A 
ENDBRANCH  21  22
ENDBRANCH  20  21
ENDBRANCH  10  20
TORSDOF 3
ENDMDL
MODEL 7
REMARK VINA RESULT:      -7.5      3.277      7.439
REMARK  3 active torsions:
REMARK  status: ('A' for Active; 'I' for Inactive)
REMARK    1  A    between atoms: C9_10  and  S1_11 
REMARK    2  A    between atoms: S1_11  and  S2_12 
REMARK    3  A    between atoms: S2_12  and  C10_13 
ROOT
HETATM    1  O1  UNL     1      17.407   2.596  49.914  1.00  0.00    -0.292 OA
HETATM    2  C1  UNL     1      18.526   2.351  50.335  1.00  0.00     0.163 C 
HETATM    3  C2  UNL     1      19.553   1.277  50.028  1.00  0.00     0.085 C 
HETATM    4  C3  UNL     1      19.588   0.426  51.303  1.00  0.00    -0.012 C 
HETATM    5  C4  UNL     1      20.102  -0.130  52.425  1.00  0.00     0.046 C 
HETATM    6  C5  UNL     1      21.456   0.095  52.905  1.00  0.00     0.004 C 
HETATM    7  C6  UNL     1      22.685   0.667  52.764  1.00  0.00     0.010 C 
HETATM    8  C7  UNL     1      24.113   1.140  52.915  1.00  0.00     0.093 C 
HETATM    9  C8  UNL     1      23.891   2.492  52.259  1.00  0.00    -0.040 C 
HETATM   10  C9  UNL     1      23.558   2.161  50.995  1.00  0.00     0.083 C 
HETATM   11  N2  UNL     1      22.762   0.970  51.313  1.00  0.00    -0.353 N 
HETATM   12  C18 UNL     1      23.941   3.857  52.817  1.00  0.00     0.038 C 
HETATM   13  C19 UNL     1      22.984   4.858  52.316  1.00  0.00     0.019 C 
HETATM   14  C20 UNL     1      21.521   4.592  52.392  1.00  0.00     0.092 C 
HETATM   15  N3  UNL     1      21.046   3.555  51.507  1.00  0.00    -0.296 NA
HETATM   16  P1  UNL     1      19.262   3.437  51.635  1.00  0.00     0.017 P 
HETATM   17  H14 UNL     1      22.283   0.378  50.522  1.00  0.00     0.166 HD
HETATM   18  H21 UNL     1      21.290   3.816  50.513  1.00  0.00     0.126 HD
HETATM   19  H22 UNL     1      18.826   3.099  52.956  1.00  0.00     0.082 HD
ENDROOT
BRANCH  10  20
HETATM   20  S1  UNL     1      23.915   2.921  49.423  1.00  0.00    -0.037 SA
BRANCH  20  21
HETATM   21  S2  UNL     1      25.757   3.906  49.403  1.00  0.00    -0.058 SA
BRANCH  21  22
HETATM   22  C10 UNL     1      25.723   5.661  49.690  1.00  0.00     0.214 A 
HETATM   23  N1  UNL     1      24.434   6.209  49.363  1.00  0.00    -0.280 NA
HETATM   24  C11 UNL     1      24.490   7.048  48.416  1.00  0.00     0.124 A 
HETATM   25  C12 UNL     1      25.842   7.211  47.938  1.00  0.00    -0.010 A 
HETATM   26  C13 UNL     1      26.485   7.953  46.972  1.00  0.00     0.013 A 
HETATM   27  C17 UNL     1      26.619   6.374  48.702  1.00  0.00    -0.011 A 
HETATM   28  C14 UNL     1      27.842   7.883  46.754  1.00  0.00     0.001 A 
HETATM   29  C15 UNL     1      28.612   7.034  47.532  1.00  0.00     0.001 A 
HETATM   30  C16 UNL     1      27.976   6.288  48.502  1.00  0.00     0.011 A 
ENDBRANCH  21  22
ENDBRANCH  20  21
ENDBRANCH  10  20
TORSDOF 3
ENDMDL
MODEL 8
REMARK VINA RESULT:      -7.5      4.440      6.352
REMARK  3 active torsions:
REMARK  status: ('A' for Active; 'I' for Inactive)
REMARK    1  A    between atoms: C9_10  and  S1_11 
REMARK    2  A    between atoms: S1_11  and  S2_12 
REMARK    3  A    between atoms: S2_12  and  C10_13 
ROOT
HETATM    1  O1  UNL     1      24.726   6.648  51.160  1.00  0.00    -0.292 OA
HETATM    2  C1  UNL     1      24.119   5.600  51.307  1.00  0.00     0.163 C 
HETATM    3  C2  UNL     1      23.325   4.995  52.450  1.00  0.00     0.085 C 
HETATM    4  C3  UNL     1      24.187   3.815  52.913  1.00  0.00    -0.012 C 
HETATM    5  C4  UNL     1      24.523   2.524  53.147  1.00  0.00     0.046 C 
HETATM    6  C5  UNL     1      23.675   1.386  52.832  1.00  0.00     0.004 C 
HETATM    7  C6  UNL     1      22.506   0.873  52.355  1.00  0.00     0.010 C 
HETATM    8  C7  UNL     1      21.364  -0.004  51.896  1.00  0.00     0.093 C 
HETATM    9  C8  UNL     1      20.911   0.917  50.775  1.00  0.00    -0.040 C 
HETATM   10  C9  UNL     1      20.516   2.022  51.436  1.00  0.00     0.083 C 
HETATM   11  N2  UNL     1      21.557   2.010  52.469  1.00  0.00    -0.353 N 
HETATM   12  C18 UNL     1      20.934   0.739  49.310  1.00  0.00     0.038 C 
HETATM   13  C19 UNL     1      21.223   1.909  48.464  1.00  0.00     0.019 C 
HETATM   14  C20 UNL     1      22.484   2.676  48.660  1.00  0.00     0.092 C 
HETATM   15  N3  UNL     1      22.552   3.429  49.889  1.00  0.00    -0.296 NA
HETATM   16  P1  UNL     1      24.072   4.380  49.920  1.00  0.00     0.017 P 
HETATM   17  H14 UNL     1      21.598   2.785  53.247  1.00  0.00     0.166 HD
HETATM   18  H21 UNL     1      21.740   4.102  49.922  1.00  0.00     0.126 HD
HETATM   19  H22 UNL     1      25.239   3.553  49.866  1.00  0.00     0.082 HD
ENDROOT
BRANCH  10  20
HETATM   20  S1  UNL     1      19.188   3.179  51.154  1.00  0.00    -0.037 SA
BRANCH  20  21
HETATM   21  S2  UNL     1      17.331   2.242  50.964  1.00  0.00    -0.058 SA
BRANCH  21  22
HETATM   22  C10 UNL     1      17.327   0.627  50.219  1.00  0.00     0.214 A 
HETATM   23  N1  UNL     1      16.139   0.430  49.431  1.00  0.00    -0.280 NA
HETATM   24  C11 UNL     1      15.418  -0.514  49.871  1.00  0.00     0.124 A 
HETATM   25  C12 UNL     1      16.004  -1.121  51.042  1.00  0.00    -0.010 A 
HETATM   26  C13 UNL     1      15.687  -2.142  51.911  1.00  0.00     0.013 A 
HETATM   27  C17 UNL     1      17.174  -0.442  51.277  1.00  0.00    -0.011 A 
HETATM   28  C14 UNL     1      16.486  -2.492  52.976  1.00  0.00     0.001 A 
HETATM   29  C15 UNL     1      17.663  -1.798  53.200  1.00  0.00     0.001 A 
HETATM   30  C16 UNL     1      17.987  -0.774  52.335  1.00  0.00     0.011 A 
ENDBRANCH  21  22
ENDBRANCH  20  21
ENDBRANCH  10  20
TORSDOF 3
ENDMDL
MODEL 9
REMARK VINA RESULT:      -7.5      6.409      9.024
REMARK  3 active torsions:
REMARK  status: ('A' for Active; 'I' for Inactive)
REMARK    1  A    between atoms: C9_10  and  S1_11 
REMARK    2  A    between atoms: S1_11  and  S2_12 
REMARK    3  A    between atoms: S2_12  and  C10_13 
ROOT
HETATM    1  O1  UNL     1      30.528   9.659  43.645  1.00  0.00    -0.292 OA
HETATM    2  C1  UNL     1      31.255   9.176  44.498  1.00  0.00     0.163 C 
HETATM    3  C2  UNL     1      31.570   9.536  45.938  1.00  0.00     0.085 C 
HETATM    4  C3  UNL     1      33.025  10.017  45.887  1.00  0.00    -0.012 C 
HETATM    5  C4  UNL     1      34.356  10.014  46.139  1.00  0.00     0.046 C 
HETATM    6  C5  UNL     1      35.037   9.008  46.938  1.00  0.00     0.004 C 
HETATM    7  C6  UNL     1      35.007   7.882  47.706  1.00  0.00     0.010 C 
HETATM    8  C7  UNL     1      35.323   6.683  48.570  1.00  0.00     0.093 C 
HETATM    9  C8  UNL     1      34.223   5.800  48.004  1.00  0.00    -0.040 C 
HETATM   10  C9  UNL     1      33.100   6.450  48.366  1.00  0.00     0.083 C 
HETATM   11  N2  UNL     1      33.598   7.816  48.168  1.00  0.00    -0.353 N 
HETATM   12  C18 UNL     1      34.294   4.567  47.196  1.00  0.00     0.038 C 
HETATM   13  C19 UNL     1      33.281   4.354  46.149  1.00  0.00     0.019 C 
HETATM   14  C20 UNL     1      33.096   5.367  45.075  1.00  0.00     0.092 C 
HETATM   15  N3  UNL     1      32.518   6.616  45.511  1.00  0.00    -0.296 NA
HETATM   16  P1  UNL     1      32.257   7.678  44.091  1.00  0.00     0.017 P 
HETATM   17  H14 UNL     1      32.958   8.689  48.359  1.00  0.00     0.166 HD
HETATM   18  H21 UNL     1      31.581   6.422  45.956  1.00  0.00     0.126 HD
HETATM   19  H22 UNL     1      33.475   7.992  43.407  1.00  0.00     0.082 HD
ENDROOT
BRANCH  10  20
HETATM   20  S1  UNL     1      31.494   5.874  48.884  1.00  0.00    -0.037 SA
BRANCH  20  21
HETATM   21  S2  UNL     1      30.011   7.332  48.680  1.00  0.00    -0.058 SA
BRANCH  21  22
HETATM   22  C10 UNL     1      28.688   6.967  47.549  1.00  0.00     0.214 A 
HETATM   23  N1  UNL     1      27.906   8.144  47.279  1.00  0.00    -0.280 NA
HETATM   24  C11 UNL     1      26.705   8.026  47.662  1.00  0.00     0.124 A 
HETATM   25  C12 UNL     1      26.469   6.734  48.262  1.00  0.00    -0.010 A 
HETATM   26  C13 UNL     1      25.407   6.069  48.833  1.00  0.00     0.013 A 
HETATM   27  C17 UNL     1      27.667   6.065  48.205  1.00  0.00    -0.011 A 
HETATM   28  C14 UNL     1      25.506   4.791  49.334  1.00  0.00     0.001 A 
HETATM   29  C15 UNL     1      26.721   4.128  49.269  1.00  0.00     0.001 A 
HETATM   30  C16 UNL     1      27.790   4.787  48.699  1.00  0.00     0.011 A 
ENDBRANCH  21  22
ENDBRANCH  20  21
ENDBRANCH  10  20
TORSDOF 3
ENDMDL
