MODEL 1
REMARK VINA RESULT:      -7.5      0.000      0.000
REMARK  4 active torsions:
REMARK  status: ('A' for Active; 'I' for Inactive)
REMARK    1  A    between atoms: C5_5  and  N1_6 
REMARK    2  A    between atoms: N1_6  and  C6_7 
REMARK    3  A    between atoms: C12_15  and  N2_16 
REMARK    4  A    between atoms: C13_17  and  C14_18 
ROOT
HETATM    1  C14 UNL     1      21.702   3.552  51.546  1.00  0.00     0.170 C 
HETATM    2  C15 UNL     1      22.707   4.357  52.200  1.00  0.00     0.064 C 
HETATM    3  N3  UNL     1      23.528   5.017  52.716  1.00  0.00    -0.197 NA
ENDROOT
BRANCH   1   4
HETATM    4  C13 UNL     1      22.251   2.693  50.471  1.00  0.00     0.104 C 
HETATM    5  N2  UNL     1      22.565   1.479  50.686  1.00  0.00    -0.266 NA
BRANCH   5   6
HETATM    6  C12 UNL     1      22.442   0.799  51.936  1.00  0.00     0.057 C 
HETATM    7  C5  UNL     1      23.551   0.779  52.904  1.00  0.00     0.156 C 
HETATM    8  C4  UNL     1      23.705  -0.593  53.488  1.00  0.00     0.001 C 
HETATM    9  C3  UNL     1      22.545  -1.205  53.799  1.00  0.00    -0.020 C 
HETATM   10  C2  UNL     1      21.245  -0.521  53.560  1.00  0.00     0.028 C 
HETATM   11  C1  UNL     1      20.823   0.395  54.659  1.00  0.00     0.018 C 
HETATM   12  C16 UNL     1      21.312   0.177  52.228  1.00  0.00     0.011 C 
BRANCH   7  13
HETATM   13  N1  UNL     1      24.778   1.275  52.331  1.00  0.00    -0.376 N 
HETATM   14  H8  UNL     1      24.763   2.048  51.632  1.00  0.00     0.160 HD
BRANCH  13  15
HETATM   15  C6  UNL     1      26.033   0.729  52.702  1.00  0.00     0.030 A 
HETATM   16  C7  UNL     1      26.375  -0.588  52.479  1.00  0.00     0.032 A 
HETATM   17  C8  UNL     1      27.609  -1.090  52.852  1.00  0.00     0.046 A 
HETATM   18  C9  UNL     1      28.545  -0.281  53.464  1.00  0.00     0.138 A 
HETATM   19  F1  UNL     1      29.766  -0.747  53.842  1.00  0.00    -0.204 F 
HETATM   20  C10 UNL     1      28.255   1.058  53.714  1.00  0.00     0.074 A 
HETATM   21 CL1  UNL     1      29.402   2.130  54.487  1.00  0.00    -0.081 Cl
HETATM   22  C11 UNL     1      27.001   1.497  53.316  1.00  0.00     0.056 A 
ENDBRANCH  13  15
ENDBRANCH   7  13
ENDBRANCH   5   6
ENDBRANCH   1   4
TORSDOF 4
ENDMDL
MODEL 2
REMARK VINA RESULT:      -7.5      2.024      3.826
REMARK  4 active torsions:
REMARK  status: ('A' for Active; 'I' for Inactive)
REMARK    1  A    between atoms: C5_5  and  N1_6 
REMARK    2  A    between atoms: N1_6  and  C6_7 
REMARK    3  A    between atoms: C12_15  and  N2_16 
REMARK    4  A    between atoms: C13_17  and  C14_18 
ROOT
HETATM    1  C14 UNL     1      21.420   0.530  53.714  1.00  0.00     0.170 C 
HETATM    2  C15 UNL     1      21.612  -0.667  54.498  1.00  0.00     0.064 C 
HETATM    3  N3  UNL     1      21.781  -1.644  55.126  1.00  0.00    -0.197 NA
ENDROOT
BRANCH   1   4
HETATM    4  C13 UNL     1      21.275   0.260  52.264  1.00  0.00     0.104 C 
HETATM    5  N2  UNL     1      21.628   1.116  51.391  1.00  0.00    -0.266 NA
BRANCH   5   6
HETATM    6  C12 UNL     1      22.188   2.401  51.667  1.00  0.00     0.057 C 
HETATM    7  C5  UNL     1      23.628   2.655  51.501  1.00  0.00     0.156 C 
HETATM    8  C4  UNL     1      24.148   3.461  52.652  1.00  0.00     0.001 C 
HETATM    9  C3  UNL     1      23.340   4.466  53.046  1.00  0.00    -0.020 C 
HETATM   10  C2  UNL     1      22.046   4.708  52.352  1.00  0.00     0.028 C 
HETATM   11  C1  UNL     1      22.156   5.548  51.124  1.00  0.00     0.018 C 
HETATM   12  C16 UNL     1      21.397   3.378  52.078  1.00  0.00     0.011 C 
BRANCH   7  13
HETATM   13  N1  UNL     1      24.373   1.438  51.299  1.00  0.00    -0.376 N 
HETATM   14  H8  UNL     1      24.212   0.851  50.452  1.00  0.00     0.160 HD
BRANCH  13  15
HETATM   15  C6  UNL     1      25.342   1.007  52.241  1.00  0.00     0.030 A 
HETATM   16  C7  UNL     1      26.694   1.224  52.080  1.00  0.00     0.032 A 
HETATM   17  C8  UNL     1      27.614   0.792  53.019  1.00  0.00     0.046 A 
HETATM   18  C9  UNL     1      27.204   0.125  54.155  1.00  0.00     0.138 A 
HETATM   19  F1  UNL     1      28.086  -0.312  55.094  1.00  0.00    -0.204 F 
HETATM   20  C10 UNL     1      25.851  -0.122  54.370  1.00  0.00     0.074 A 
HETATM   21 CL1  UNL     1      25.272  -0.964  55.792  1.00  0.00    -0.081 Cl
HETATM   22  C11 UNL     1      24.981   0.337  53.391  1.00  0.00     0.056 A 
ENDBRANCH  13  15
ENDBRANCH   7  13
ENDBRANCH   5   6
ENDBRANCH   1   4
TORSDOF 4
ENDMDL
MODEL 3
REMARK VINA RESULT:      -7.3      2.832      4.943
REMARK  4 active torsions:
REMARK  status: ('A' for Active; 'I' for Inactive)
REMARK    1  A    between atoms: C5_5  and  N1_6 
REMARK    2  A    between atoms: N1_6  and  C6_7 
REMARK    3  A    between atoms: C12_15  and  N2_16 
REMARK    4  A    between atoms: C13_17  and  C14_18 
ROOT
HETATM    1  C14 UNL     1      25.166   2.532  50.960  1.00  0.00     0.170 C 
HETATM    2  C15 UNL     1      26.474   2.413  51.560  1.00  0.00     0.064 C 
HETATM    3  N3  UNL     1      27.530   2.319  52.063  1.00  0.00    -0.197 NA
ENDROOT
BRANCH   1   4
HETATM    4  C13 UNL     1      24.473   3.793  51.315  1.00  0.00     0.104 C 
HETATM    5  N2  UNL     1      23.270   4.012  50.962  1.00  0.00    -0.266 NA
BRANCH   5   6
HETATM    6  C12 UNL     1      22.451   3.118  50.207  1.00  0.00     0.057 C 
HETATM    7  C5  UNL     1      21.366   2.356  50.847  1.00  0.00     0.156 C 
HETATM    8  C4  UNL     1      21.361   0.944  50.348  1.00  0.00     0.001 C 
HETATM    9  C3  UNL     1      21.566   0.815  49.021  1.00  0.00    -0.020 C 
HETATM   10  C2  UNL     1      21.775   2.018  48.172  1.00  0.00     0.028 C 
HETATM   11  C1  UNL     1      20.514   2.668  47.709  1.00  0.00     0.018 C 
HETATM   12  C16 UNL     1      22.671   2.975  48.912  1.00  0.00     0.011 C 
BRANCH   7  13
HETATM   13  N1  UNL     1      21.427   2.433  52.286  1.00  0.00    -0.376 N 
HETATM   14  H8  UNL     1      21.229   3.330  52.779  1.00  0.00     0.160 HD
BRANCH  13  15
HETATM   15  C6  UNL     1      21.753   1.294  53.066  1.00  0.00     0.030 A 
HETATM   16  C7  UNL     1      20.819   0.591  53.797  1.00  0.00     0.032 A 
HETATM   17  C8  UNL     1      21.170  -0.516  54.548  1.00  0.00     0.046 A 
HETATM   18  C9  UNL     1      22.477  -0.957  54.589  1.00  0.00     0.138 A 
HETATM   19  F1  UNL     1      22.851  -2.042  55.319  1.00  0.00    -0.204 F 
HETATM   20  C10 UNL     1      23.463  -0.286  53.870  1.00  0.00     0.074 A 
HETATM   21 CL1  UNL     1      25.137  -0.798  53.885  1.00  0.00    -0.081 Cl
HETATM   22  C11 UNL     1      23.045   0.816  53.139  1.00  0.00     0.056 A 
ENDBRANCH  13  15
ENDBRANCH   7  13
ENDBRANCH   5   6
ENDBRANCH   1   4
TORSDOF 4
ENDMDL
MODEL 4
REMARK VINA RESULT:      -7.3      1.880      4.005
REMARK  4 active torsions:
REMARK  status: ('A' for Active; 'I' for Inactive)
REMARK    1  A    between atoms: C5_5  and  N1_6 
REMARK    2  A    between atoms: N1_6  and  C6_7 
REMARK    3  A    between atoms: C12_15  and  N2_16 
REMARK    4  A    between atoms: C13_17  and  C14_18 
ROOT
HETATM    1  C14 UNL     1      22.148   0.846  52.063  1.00  0.00     0.170 C 
HETATM    2  C15 UNL     1      22.245  -0.350  52.866  1.00  0.00     0.064 C 
HETATM    3  N3  UNL     1      22.311  -1.318  53.527  1.00  0.00    -0.197 NA
ENDROOT
BRANCH   1   4
HETATM    4  C13 UNL     1      22.143   2.090  52.868  1.00  0.00     0.104 C 
HETATM    5  N2  UNL     1      22.556   3.193  52.387  1.00  0.00    -0.266 NA
BRANCH   5   6
HETATM    6  C12 UNL     1      23.063   3.385  51.066  1.00  0.00     0.057 C 
HETATM    7  C5  UNL     1      24.503   3.279  50.781  1.00  0.00     0.156 C 
HETATM    8  C4  UNL     1      24.931   4.383  49.861  1.00  0.00     0.001 C 
HETATM    9  C3  UNL     1      24.075   4.639  48.853  1.00  0.00    -0.020 C 
HETATM   10  C2  UNL     1      22.818   3.855  48.714  1.00  0.00     0.028 C 
HETATM   11  C1  UNL     1      22.978   2.565  47.981  1.00  0.00     0.018 C 
HETATM   12  C16 UNL     1      22.223   3.663  50.084  1.00  0.00     0.011 C 
BRANCH   7  13
HETATM   13  N1  UNL     1      25.292   3.229  51.986  1.00  0.00    -0.376 N 
HETATM   14  H8  UNL     1      25.292   4.029  52.655  1.00  0.00     0.160 HD
BRANCH  13  15
HETATM   15  C6  UNL     1      26.084   2.093  52.297  1.00  0.00     0.030 A 
HETATM   16  C7  UNL     1      25.786   0.824  51.847  1.00  0.00     0.032 A 
HETATM   17  C8  UNL     1      26.580  -0.263  52.167  1.00  0.00     0.046 A 
HETATM   18  C9  UNL     1      27.705  -0.109  52.951  1.00  0.00     0.138 A 
HETATM   19  F1  UNL     1      28.504  -1.160  53.281  1.00  0.00    -0.204 F 
HETATM   20  C10 UNL     1      28.054   1.149  53.433  1.00  0.00     0.074 A 
HETATM   21 CL1  UNL     1      29.469   1.404  54.433  1.00  0.00    -0.081 Cl
HETATM   22  C11 UNL     1      27.216   2.196  53.077  1.00  0.00     0.056 A 
ENDBRANCH  13  15
ENDBRANCH   7  13
ENDBRANCH   5   6
ENDBRANCH   1   4
TORSDOF 4
ENDMDL
MODEL 5
REMARK VINA RESULT:      -7.2      4.159      6.265
REMARK  4 active torsions:
REMARK  status: ('A' for Active; 'I' for Inactive)
REMARK    1  A    between atoms: C5_5  and  N1_6 
REMARK    2  A    between atoms: N1_6  and  C6_7 
REMARK    3  A    between atoms: C12_15  and  N2_16 
REMARK    4  A    between atoms: C13_17  and  C14_18 
ROOT
HETATM    1  C14 UNL     1      21.418   4.844  51.507  1.00  0.00     0.170 C 
HETATM    2  C15 UNL     1      20.205   4.095  51.740  1.00  0.00     0.064 C 
HETATM    3  N3  UNL     1      19.218   3.495  51.945  1.00  0.00    -0.197 NA
ENDROOT
BRANCH   1   4
HETATM    4  C13 UNL     1      22.411   4.700  52.597  1.00  0.00     0.104 C 
HETATM    5  N2  UNL     1      23.660   4.666  52.357  1.00  0.00    -0.266 NA
BRANCH   5   6
HETATM    6  C12 UNL     1      24.260   4.754  51.064  1.00  0.00     0.057 C 
HETATM    7  C5  UNL     1      24.539   3.546  50.271  1.00  0.00     0.156 C 
HETATM    8  C4  UNL     1      25.892   3.646  49.634  1.00  0.00     0.001 C 
HETATM    9  C3  UNL     1      26.184   4.857  49.119  1.00  0.00    -0.020 C 
HETATM   10  C2  UNL     1      25.199   5.968  49.206  1.00  0.00     0.028 C 
HETATM   11  C1  UNL     1      24.182   5.973  48.114  1.00  0.00     0.018 C 
HETATM   12  C16 UNL     1      24.569   5.942  50.573  1.00  0.00     0.011 C 
BRANCH   7  13
HETATM   13  N1  UNL     1      24.382   2.341  51.047  1.00  0.00    -0.376 N 
HETATM   14  H8  UNL     1      25.185   1.943  51.580  1.00  0.00     0.160 HD
BRANCH  13  15
HETATM   15  C6  UNL     1      23.136   1.667  51.108  1.00  0.00     0.030 A 
HETATM   16  C7  UNL     1      22.314   1.505  50.012  1.00  0.00     0.032 A 
HETATM   17  C8  UNL     1      21.104   0.841  50.104  1.00  0.00     0.046 A 
HETATM   18  C9  UNL     1      20.678   0.313  51.306  1.00  0.00     0.138 A 
HETATM   19  F1  UNL     1      19.494  -0.345  51.427  1.00  0.00    -0.204 F 
HETATM   20  C10 UNL     1      21.467   0.446  52.446  1.00  0.00     0.074 A 
HETATM   21 CL1  UNL     1      20.977  -0.203  53.997  1.00  0.00    -0.081 Cl
HETATM   22  C11 UNL     1      22.667   1.122  52.285  1.00  0.00     0.056 A 
ENDBRANCH  13  15
ENDBRANCH   7  13
ENDBRANCH   5   6
ENDBRANCH   1   4
TORSDOF 4
ENDMDL
MODEL 6
REMARK VINA RESULT:      -7.1      3.898      5.971
REMARK  4 active torsions:
REMARK  status: ('A' for Active; 'I' for Inactive)
REMARK    1  A    between atoms: C5_5  and  N1_6 
REMARK    2  A    between atoms: N1_6  and  C6_7 
REMARK    3  A    between atoms: C12_15  and  N2_16 
REMARK    4  A    between atoms: C13_17  and  C14_18 
ROOT
HETATM    1  C14 UNL     1      24.753   2.972  50.695  1.00  0.00     0.170 C 
HETATM    2  C15 UNL     1      25.997   3.457  50.144  1.00  0.00     0.064 C 
HETATM    3  N3  UNL     1      27.015   3.845  49.710  1.00  0.00    -0.197 NA
ENDROOT
BRANCH   1   4
HETATM    4  C13 UNL     1      24.432   3.560  52.017  1.00  0.00     0.104 C 
HETATM    5  N2  UNL     1      24.550   2.885  53.089  1.00  0.00    -0.266 NA
BRANCH   5   6
HETATM    6  C12 UNL     1      24.985   1.527  53.172  1.00  0.00     0.057 C 
HETATM    7  C5  UNL     1      24.017   0.425  53.296  1.00  0.00     0.156 C 
HETATM    8  C4  UNL     1      24.493  -0.571  54.309  1.00  0.00     0.001 C 
HETATM    9  C3  UNL     1      25.811  -0.851  54.247  1.00  0.00    -0.020 C 
HETATM   10  C2  UNL     1      26.673  -0.192  53.230  1.00  0.00     0.028 C 
HETATM   11  C1  UNL     1      26.673  -0.865  51.897  1.00  0.00     0.018 C 
HETATM   12  C16 UNL     1      26.278   1.258  53.137  1.00  0.00     0.011 C 
BRANCH   7  13
HETATM   13  N1  UNL     1      22.686   0.902  53.575  1.00  0.00    -0.376 N 
HETATM   14  H8  UNL     1      22.458   1.333  54.497  1.00  0.00     0.160 HD
BRANCH  13  15
HETATM   15  C6  UNL     1      21.653   0.801  52.608  1.00  0.00     0.030 A 
HETATM   16  C7  UNL     1      20.334   0.574  52.938  1.00  0.00     0.032 A 
HETATM   17  C8  UNL     1      19.350   0.481  51.970  1.00  0.00     0.046 A 
HETATM   18  C9  UNL     1      19.660   0.615  50.632  1.00  0.00     0.138 A 
HETATM   19  F1  UNL     1      18.714   0.529  49.659  1.00  0.00    -0.204 F 
HETATM   20  C10 UNL     1      20.976   0.846  50.240  1.00  0.00     0.074 A 
HETATM   21 CL1  UNL     1      21.429   1.024  48.558  1.00  0.00    -0.081 Cl
HETATM   22  C11 UNL     1      21.913   0.928  51.259  1.00  0.00     0.056 A 
ENDBRANCH  13  15
ENDBRANCH   7  13
ENDBRANCH   5   6
ENDBRANCH   1   4
TORSDOF 4
ENDMDL
MODEL 7
REMARK VINA RESULT:      -7.1      1.436      3.419
REMARK  4 active torsions:
REMARK  status: ('A' for Active; 'I' for Inactive)
REMARK    1  A    between atoms: C5_5  and  N1_6 
REMARK    2  A    between atoms: N1_6  and  C6_7 
REMARK    3  A    between atoms: C12_15  and  N2_16 
REMARK    4  A    between atoms: C13_17  and  C14_18 
ROOT
HETATM    1  C14 UNL     1      21.127   0.911  52.027  1.00  0.00     0.170 C 
HETATM    2  C15 UNL     1      21.509  -0.213  52.849  1.00  0.00     0.064 C 
HETATM    3  N3  UNL     1      21.835  -1.123  53.514  1.00  0.00    -0.197 NA
ENDROOT
BRANCH   1   4
HETATM    4  C13 UNL     1      21.616   0.806  50.632  1.00  0.00     0.104 C 
HETATM    5  N2  UNL     1      22.481   1.616  50.169  1.00  0.00    -0.266 NA
BRANCH   5   6
HETATM    6  C12 UNL     1      23.078   2.696  50.890  1.00  0.00     0.057 C 
HETATM    7  C5  UNL     1      24.311   2.500  51.669  1.00  0.00     0.156 C 
HETATM    8  C4  UNL     1      24.205   3.199  52.990  1.00  0.00     0.001 C 
HETATM    9  C3  UNL     1      23.644   4.424  52.936  1.00  0.00    -0.020 C 
HETATM   10  C2  UNL     1      23.187   4.985  51.636  1.00  0.00     0.028 C 
HETATM   11  C1  UNL     1      24.259   5.662  50.849  1.00  0.00     0.018 C 
HETATM   12  C16 UNL     1      22.511   3.890  50.855  1.00  0.00     0.011 C 
BRANCH   7  13
HETATM   13  N1  UNL     1      24.648   1.105  51.809  1.00  0.00    -0.376 N 
HETATM   14  H8  UNL     1      23.977   0.364  51.511  1.00  0.00     0.160 HD
BRANCH  13  15
HETATM   15  C6  UNL     1      25.896   0.703  52.350  1.00  0.00     0.030 A 
HETATM   16  C7  UNL     1      26.272  -0.617  52.471  1.00  0.00     0.032 A 
HETATM   17  C8  UNL     1      27.498  -0.977  53.003  1.00  0.00     0.046 A 
HETATM   18  C9  UNL     1      28.390  -0.015  53.432  1.00  0.00     0.138 A 
HETATM   19  F1  UNL     1      29.602  -0.339  53.959  1.00  0.00    -0.204 F 
HETATM   20  C10 UNL     1      28.064   1.334  53.334  1.00  0.00     0.074 A 
HETATM   21 CL1  UNL     1      29.156   2.597  53.862  1.00  0.00    -0.081 Cl
HETATM   22  C11 UNL     1      26.821   1.626  52.792  1.00  0.00     0.056 A 
ENDBRANCH  13  15
ENDBRANCH   7  13
ENDBRANCH   5   6
ENDBRANCH   1   4
TORSDOF 4
ENDMDL
MODEL 8
REMARK VINA RESULT:      -7.1      4.631      5.714
REMARK  4 active torsions:
REMARK  status: ('A' for Active; 'I' for Inactive)
REMARK    1  A    between atoms: C5_5  and  N1_6 
REMARK    2  A    between atoms: N1_6  and  C6_7 
REMARK    3  A    between atoms: C12_15  and  N2_16 
REMARK    4  A    between atoms: C13_17  and  C14_18 
ROOT
HETATM    1  C14 UNL     1      22.215   4.388  50.997  1.00  0.00     0.170 C 
HETATM    2  C15 UNL     1      21.039   3.966  51.721  1.00  0.00     0.064 C 
HETATM    3  N3  UNL     1      20.090   3.608  52.311  1.00  0.00    -0.197 NA
ENDROOT
BRANCH   1   4
HETATM    4  C13 UNL     1      22.457   3.598  49.767  1.00  0.00     0.104 C 
HETATM    5  N2  UNL     1      23.403   2.748  49.698  1.00  0.00    -0.266 NA
BRANCH   5   6
HETATM    6  C12 UNL     1      24.326   2.448  50.746  1.00  0.00     0.057 C 
HETATM    7  C5  UNL     1      25.723   2.909  50.684  1.00  0.00     0.156 C 
HETATM    8  C4  UNL     1      26.648   1.815  51.123  1.00  0.00     0.001 C 
HETATM    9  C3  UNL     1      26.228   1.120  52.200  1.00  0.00    -0.020 C 
HETATM   10  C2  UNL     1      24.938   1.460  52.857  1.00  0.00     0.028 C 
HETATM   11  C1  UNL     1      25.031   2.563  53.858  1.00  0.00     0.018 C 
HETATM   12  C16 UNL     1      23.918   1.744  51.788  1.00  0.00     0.011 C 
BRANCH   7  13
HETATM   13  N1  UNL     1      26.063   3.431  49.384  1.00  0.00    -0.376 N 
HETATM   14  H8  UNL     1      26.040   2.817  48.542  1.00  0.00     0.160 HD
BRANCH  13  15
HETATM   15  C6  UNL     1      26.436   4.789  49.215  1.00  0.00     0.030 A 
HETATM   16  C7  UNL     1      27.586   5.177  48.560  1.00  0.00     0.032 A 
HETATM   17  C8  UNL     1      27.921   6.511  48.411  1.00  0.00     0.046 A 
HETATM   18  C9  UNL     1      27.107   7.504  48.917  1.00  0.00     0.138 A 
HETATM   19  F1  UNL     1      27.411   8.823  48.785  1.00  0.00    -0.204 F 
HETATM   20  C10 UNL     1      25.933   7.171  49.587  1.00  0.00     0.074 A 
HETATM   21 CL1  UNL     1      24.864   8.388  50.250  1.00  0.00    -0.081 Cl
HETATM   22  C11 UNL     1      25.657   5.817  49.702  1.00  0.00     0.056 A 
ENDBRANCH  13  15
ENDBRANCH   7  13
ENDBRANCH   5   6
ENDBRANCH   1   4
TORSDOF 4
ENDMDL
MODEL 9
REMARK VINA RESULT:      -7.1      2.875      4.908
REMARK  4 active torsions:
REMARK  status: ('A' for Active; 'I' for Inactive)
REMARK    1  A    between atoms: C5_5  and  N1_6 
REMARK    2  A    between atoms: N1_6  and  C6_7 
REMARK    3  A    between atoms: C12_15  and  N2_16 
REMARK    4  A    between atoms: C13_17  and  C14_18 
ROOT
HETATM    1  C14 UNL     1      21.173   3.286  51.849  1.00  0.00     0.170 C 
HETATM    2  C15 UNL     1      19.731   3.364  51.873  1.00  0.00     0.064 C 
HETATM    3  N3  UNL     1      18.560   3.443  51.888  1.00  0.00    -0.197 NA
ENDROOT
BRANCH   1   4
HETATM    4  C13 UNL     1      21.828   4.339  52.660  1.00  0.00     0.104 C 
HETATM    5  N2  UNL     1      22.739   5.082  52.172  1.00  0.00    -0.266 NA
BRANCH   5   6
HETATM    6  C12 UNL     1      23.241   5.012  50.837  1.00  0.00     0.057 C 
HETATM    7  C5  UNL     1      24.461   4.251  50.522  1.00  0.00     0.156 C 
HETATM    8  C4  UNL     1      25.325   5.027  49.575  1.00  0.00     0.001 C 
HETATM    9  C3  UNL     1      24.657   5.647  48.582  1.00  0.00    -0.020 C 
HETATM   10  C2  UNL     1      23.177   5.531  48.484  1.00  0.00     0.028 C 
HETATM   11  C1  UNL     1      22.703   4.310  47.769  1.00  0.00     0.018 C 
HETATM   12  C16 UNL     1      22.598   5.642  49.869  1.00  0.00     0.011 C 
BRANCH   7  13
HETATM   13  N1  UNL     1      25.169   3.847  51.711  1.00  0.00    -0.376 N 
HETATM   14  H8  UNL     1      25.513   4.558  52.392  1.00  0.00     0.160 HD
BRANCH  13  15
HETATM   15  C6  UNL     1      25.414   2.478  51.987  1.00  0.00     0.030 A 
HETATM   16  C7  UNL     1      26.552   1.820  51.572  1.00  0.00     0.032 A 
HETATM   17  C8  UNL     1      26.763   0.483  51.859  1.00  0.00     0.046 A 
HETATM   18  C9  UNL     1      25.832  -0.240  52.578  1.00  0.00     0.138 A 
HETATM   19  F1  UNL     1      26.012  -1.555  52.875  1.00  0.00    -0.204 F 
HETATM   20  C10 UNL     1      24.664   0.373  53.023  1.00  0.00     0.074 A 
HETATM   21 CL1  UNL     1      23.449  -0.494  53.938  1.00  0.00    -0.081 Cl
HETATM   22  C11 UNL     1      24.515   1.714  52.702  1.00  0.00     0.056 A 
ENDBRANCH  13  15
ENDBRANCH   7  13
ENDBRANCH   5   6
ENDBRANCH   1   4
TORSDOF 4
ENDMDL
