MODEL 1
REMARK VINA RESULT:      -8.3      0.000      0.000
REMARK  7 active torsions:
REMARK  status: ('A' for Active; 'I' for Inactive)
REMARK    1  A    between atoms: C2_2  and  C3_3 
REMARK       I    between atoms: C3_3  and  N1_5 
REMARK    2  A    between atoms: N1_5  and  C4_6 
REMARK    3  A    between atoms: C6_8  and  N2_9 
REMARK    4  A    between atoms: N2_9  and  C7_10 
REMARK    5  A    between atoms: C12_16  and  C13_17 
REMARK    6  A    between atoms: C18_24  and  N6_25 
REMARK    7  A    between atoms: C21_28  and  N7_29 
ROOT
HETATM    1  C4  UNL     1      23.250   0.511  52.606  1.00  0.00     0.065 C 
HETATM    2  C5  UNL     1      21.952   0.671  52.766  1.00  0.00     0.062 C 
HETATM    3  C6  UNL     1      21.183  -0.247  53.603  1.00  0.00     0.063 C 
HETATM    4  C16 UNL     1      21.762  -1.329  54.037  1.00  0.00     0.018 C 
HETATM    5  C17 UNL     1      22.987  -1.594  53.724  1.00  0.00     0.020 C 
HETATM    6  C18 UNL     1      23.761  -0.629  53.332  1.00  0.00     0.069 C 
ENDROOT
BRANCH   3   7
HETATM    7  N2  UNL     1      19.849   0.030  53.932  1.00  0.00    -0.186 N 
HETATM    8  H6  UNL     1      19.678   0.434  54.877  1.00  0.00     0.184 HD
BRANCH   7   9
HETATM    9  C7  UNL     1      18.765  -0.212  53.052  1.00  0.00     0.744 A 
HETATM   10  N3  UNL     1      18.532   0.606  52.015  1.00  0.00    -0.071 NA
HETATM   11  C8  UNL     1      17.503   0.375  51.179  1.00  0.00     0.168 A 
HETATM   12  C9  UNL     1      16.656  -0.709  51.362  1.00  0.00     0.077 A 
HETATM   13  C10 UNL     1      15.558  -1.257  50.766  1.00  0.00     0.035 A 
HETATM   14  N4  UNL     1      16.949  -1.499  52.434  1.00  0.00    -0.221 N 
HETATM   15  C11 UNL     1      15.157  -2.386  51.452  1.00  0.00     0.030 A 
HETATM   16  C12 UNL     1      16.044  -2.517  52.494  1.00  0.00     0.041 A 
HETATM   17  N5  UNL     1      17.959  -1.268  53.250  1.00  0.00     0.026 NA
BRANCH  16  18
HETATM   18  C13 UNL     1      16.014  -3.603  53.521  1.00  0.00     0.038 A 
HETATM   19  C14 UNL     1      17.048  -4.697  53.337  1.00  0.00     0.011 A 
HETATM   20  C15 UNL     1      15.620  -4.976  53.085  1.00  0.00     0.011 A 
ENDBRANCH  16  18
ENDBRANCH   7   9
ENDBRANCH   3   7
BRANCH   1  21
HETATM   21  N1  UNL     1      24.128   1.287  51.849  1.00  0.00    -0.322 N 
HETATM   22  C3  UNL     1      24.683   2.567  52.100  1.00  0.00     0.244 C 
HETATM   23  O1  UNL     1      24.375   3.165  53.161  1.00  0.00    -0.268 OA
HETATM   24  H4  UNL     1      24.484   0.934  50.932  1.00  0.00     0.169 HD
BRANCH  22  25
HETATM   25  C2  UNL     1      25.588   3.296  51.256  1.00  0.00     0.064 C 
HETATM   26  C1  UNL     1      26.423   2.486  50.619  1.00  0.00     0.017 C 
ENDBRANCH  22  25
ENDBRANCH   1  21
BRANCH   6  27
HETATM   27  N6  UNL     1      25.157  -0.781  53.671  1.00  0.00    -0.378 N 
HETATM   28  C19 UNL     1      26.051  -1.515  52.803  1.00  0.00     0.125 C 
HETATM   29  C20 UNL     1      27.478  -1.041  52.884  1.00  0.00     0.055 C 
HETATM   30  C21 UNL     1      27.451   0.358  53.406  1.00  0.00     0.225 C 
HETATM   31  C24 UNL     1      27.052   0.279  54.861  1.00  0.00     0.055 C 
HETATM   32  C25 UNL     1      25.619  -0.179  54.896  1.00  0.00     0.125 C 
BRANCH  30  33
HETATM   33  N7  UNL     1      28.671   1.104  53.212  1.00  0.00     0.084 N 
HETATM   34  C22 UNL     1      29.830   0.423  53.704  1.00  0.00     0.309 C 
HETATM   35  C23 UNL     1      28.629   2.462  53.644  1.00  0.00     0.309 C 
ENDBRANCH  30  33
ENDBRANCH   6  27
TORSDOF 7
ENDMDL
MODEL 2
REMARK VINA RESULT:      -8.1      5.596      9.703
REMARK  7 active torsions:
REMARK  status: ('A' for Active; 'I' for Inactive)
REMARK    1  A    between atoms: C2_2  and  C3_3 
REMARK       I    between atoms: C3_3  and  N1_5 
REMARK    2  A    between atoms: N1_5  and  C4_6 
REMARK    3  A    between atoms: C6_8  and  N2_9 
REMARK    4  A    between atoms: N2_9  and  C7_10 
REMARK    5  A    between atoms: C12_16  and  C13_17 
REMARK    6  A    between atoms: C18_24  and  N6_25 
REMARK    7  A    between atoms: C21_28  and  N7_29 
ROOT
HETATM    1  C4  UNL     1      27.521   5.818  48.505  1.00  0.00     0.065 C 
HETATM    2  C5  UNL     1      27.315   4.587  48.926  1.00  0.00     0.062 C 
HETATM    3  C6  UNL     1      26.131   4.254  49.714  1.00  0.00     0.063 C 
HETATM    4  C16 UNL     1      25.380   5.224  50.152  1.00  0.00     0.018 C 
HETATM    5  C17 UNL     1      25.682   6.456  49.906  1.00  0.00     0.020 C 
HETATM    6  C18 UNL     1      26.473   6.726  48.914  1.00  0.00     0.069 C 
ENDROOT
BRANCH   3   7
HETATM    7  N2  UNL     1      25.808   2.919  49.995  1.00  0.00    -0.186 N 
HETATM    8  H6  UNL     1      25.299   2.398  49.251  1.00  0.00     0.184 HD
BRANCH   7   9
HETATM    9  C7  UNL     1      26.141   2.280  51.216  1.00  0.00     0.744 A 
HETATM   10  N3  UNL     1      27.316   2.526  51.816  1.00  0.00    -0.071 NA
HETATM   11  C8  UNL     1      27.631   1.919  52.975  1.00  0.00     0.168 A 
HETATM   12  C9  UNL     1      26.758   1.025  53.581  1.00  0.00     0.077 A 
HETATM   13  C10 UNL     1      26.712   0.245  54.699  1.00  0.00     0.035 A 
HETATM   14  N4  UNL     1      25.585   0.822  52.919  1.00  0.00    -0.221 N 
HETATM   15  C11 UNL     1      25.519  -0.449  54.747  1.00  0.00     0.030 A 
HETATM   16  C12 UNL     1      24.829  -0.071  53.619  1.00  0.00     0.041 A 
HETATM   17  N5  UNL     1      25.281   1.420  51.782  1.00  0.00     0.026 NA
BRANCH  16  18
HETATM   18  C13 UNL     1      23.472  -0.563  53.233  1.00  0.00     0.038 A 
HETATM   19  C14 UNL     1      22.318   0.334  53.639  1.00  0.00     0.011 A 
HETATM   20  C15 UNL     1      22.529  -0.959  54.323  1.00  0.00     0.011 A 
ENDBRANCH  16  18
ENDBRANCH   7   9
ENDBRANCH   3   7
BRANCH   1  21
HETATM   21  N1  UNL     1      28.588   6.305  47.750  1.00  0.00    -0.322 N 
HETATM   22  C3  UNL     1      29.987   6.163  47.927  1.00  0.00     0.244 C 
HETATM   23  O1  UNL     1      30.411   5.504  48.909  1.00  0.00    -0.268 OA
HETATM   24  H4  UNL     1      28.408   6.877  46.894  1.00  0.00     0.169 HD
BRANCH  22  25
HETATM   25  C2  UNL     1      31.022   6.704  47.091  1.00  0.00     0.064 C 
HETATM   26  C1  UNL     1      30.610   7.781  46.436  1.00  0.00     0.017 C 
ENDBRANCH  22  25
ENDBRANCH   1  21
BRANCH   6  27
HETATM   27  N6  UNL     1      26.230   7.989  48.257  1.00  0.00    -0.378 N 
HETATM   28  C19 UNL     1      26.572   9.236  48.905  1.00  0.00     0.125 C 
HETATM   29  C20 UNL     1      26.908  10.337  47.935  1.00  0.00     0.055 C 
HETATM   30  C21 UNL     1      27.309   9.688  46.651  1.00  0.00     0.225 C 
HETATM   31  C24 UNL     1      26.059   9.093  46.047  1.00  0.00     0.055 C 
HETATM   32  C25 UNL     1      25.638   7.959  46.943  1.00  0.00     0.125 C 
BRANCH  30  33
HETATM   33  N7  UNL     1      28.008  10.548  45.726  1.00  0.00     0.084 N 
HETATM   34  C22 UNL     1      29.108  11.241  46.325  1.00  0.00     0.309 C 
HETATM   35  C23 UNL     1      27.180  11.424  44.964  1.00  0.00     0.309 C 
ENDBRANCH  30  33
ENDBRANCH   6  27
TORSDOF 7
ENDMDL
MODEL 3
REMARK VINA RESULT:      -8.1      6.060      9.026
REMARK  7 active torsions:
REMARK  status: ('A' for Active; 'I' for Inactive)
REMARK    1  A    between atoms: C2_2  and  C3_3 
REMARK       I    between atoms: C3_3  and  N1_5 
REMARK    2  A    between atoms: N1_5  and  C4_6 
REMARK    3  A    between atoms: C6_8  and  N2_9 
REMARK    4  A    between atoms: N2_9  and  C7_10 
REMARK    5  A    between atoms: C12_16  and  C13_17 
REMARK    6  A    between atoms: C18_24  and  N6_25 
REMARK    7  A    between atoms: C21_28  and  N7_29 
ROOT
HETATM    1  C4  UNL     1      26.749   7.299  48.665  1.00  0.00     0.065 C 
HETATM    2  C5  UNL     1      25.901   6.598  49.388  1.00  0.00     0.062 C 
HETATM    3  C6  UNL     1      26.187   5.208  49.737  1.00  0.00     0.063 C 
HETATM    4  C16 UNL     1      27.200   4.618  49.171  1.00  0.00     0.018 C 
HETATM    5  C17 UNL     1      27.930   5.243  48.307  1.00  0.00     0.020 C 
HETATM    6  C18 UNL     1      27.922   6.541  48.295  1.00  0.00     0.069 C 
ENDROOT
BRANCH   3   7
HETATM    7  N2  UNL     1      25.388   4.522  50.663  1.00  0.00    -0.186 N 
HETATM    8  H6  UNL     1      25.588   4.698  51.670  1.00  0.00     0.184 HD
BRANCH   7   9
HETATM    9  C7  UNL     1      24.353   3.629  50.285  1.00  0.00     0.744 A 
HETATM   10  N3  UNL     1      23.856   3.650  49.039  1.00  0.00    -0.071 NA
HETATM   11  C8  UNL     1      22.874   2.801  48.681  1.00  0.00     0.168 A 
HETATM   12  C9  UNL     1      22.350   1.886  49.583  1.00  0.00     0.077 A 
HETATM   13  C10 UNL     1      21.399   0.908  49.606  1.00  0.00     0.035 A 
HETATM   14  N4  UNL     1      22.900   1.918  50.829  1.00  0.00    -0.221 N 
HETATM   15  C11 UNL     1      21.345   0.324  50.856  1.00  0.00     0.030 A 
HETATM   16  C12 UNL     1      22.296   0.975  51.606  1.00  0.00     0.041 A 
HETATM   17  N5  UNL     1      23.862   2.752  51.175  1.00  0.00     0.026 NA
BRANCH  16  18
HETATM   18  C13 UNL     1      22.610   0.687  53.039  1.00  0.00     0.038 A 
HETATM   19  C14 UNL     1      23.793  -0.233  53.271  1.00  0.00     0.011 A 
HETATM   20  C15 UNL     1      22.420  -0.709  53.536  1.00  0.00     0.011 A 
ENDBRANCH  16  18
ENDBRANCH   7   9
ENDBRANCH   3   7
BRANCH   1  21
HETATM   21  N1  UNL     1      26.634   8.624  48.244  1.00  0.00    -0.322 N 
HETATM   22  C3  UNL     1      26.931   9.837  48.916  1.00  0.00     0.244 C 
HETATM   23  O1  UNL     1      27.374   9.788  50.090  1.00  0.00    -0.268 OA
HETATM   24  H4  UNL     1      26.279   8.842  47.286  1.00  0.00     0.169 HD
BRANCH  22  25
HETATM   25  C2  UNL     1      26.781  11.169  48.399  1.00  0.00     0.064 C 
HETATM   26  C1  UNL     1      27.230  11.266  47.155  1.00  0.00     0.017 C 
ENDBRANCH  22  25
ENDBRANCH   1  21
BRANCH   6  27
HETATM   27  N6  UNL     1      29.161   7.161  47.888  1.00  0.00    -0.378 N 
HETATM   28  C19 UNL     1      29.309   7.709  46.558  1.00  0.00     0.125 C 
HETATM   29  C20 UNL     1      30.286   8.853  46.493  1.00  0.00     0.055 C 
HETATM   30  C21 UNL     1      30.395   9.422  47.870  1.00  0.00     0.225 C 
HETATM   31  C24 UNL     1      31.137   8.408  48.709  1.00  0.00     0.055 C 
HETATM   32  C25 UNL     1      30.234   7.212  48.849  1.00  0.00     0.125 C 
BRANCH  30  33
HETATM   33  N7  UNL     1      30.991  10.734  47.942  1.00  0.00     0.084 N 
HETATM   34  C22 UNL     1      30.481  11.524  49.021  1.00  0.00     0.309 C 
HETATM   35  C23 UNL     1      31.014  11.461  46.716  1.00  0.00     0.309 C 
ENDBRANCH  30  33
ENDBRANCH   6  27
TORSDOF 7
ENDMDL
MODEL 4
REMARK VINA RESULT:      -7.9      6.164      9.502
REMARK  7 active torsions:
REMARK  status: ('A' for Active; 'I' for Inactive)
REMARK    1  A    between atoms: C2_2  and  C3_3 
REMARK       I    between atoms: C3_3  and  N1_5 
REMARK    2  A    between atoms: N1_5  and  C4_6 
REMARK    3  A    between atoms: C6_8  and  N2_9 
REMARK    4  A    between atoms: N2_9  and  C7_10 
REMARK    5  A    between atoms: C12_16  and  C13_17 
REMARK    6  A    between atoms: C18_24  and  N6_25 
REMARK    7  A    between atoms: C21_28  and  N7_29 
ROOT
HETATM    1  C4  UNL     1      28.589   7.879  48.340  1.00  0.00     0.065 C 
HETATM    2  C5  UNL     1      27.376   7.755  48.840  1.00  0.00     0.062 C 
HETATM    3  C6  UNL     1      26.834   6.439  49.170  1.00  0.00     0.063 C 
HETATM    4  C16 UNL     1      27.492   5.380  48.792  1.00  0.00     0.018 C 
HETATM    5  C17 UNL     1      28.594   5.490  48.127  1.00  0.00     0.020 C 
HETATM    6  C18 UNL     1      29.254   6.606  48.179  1.00  0.00     0.069 C 
ENDROOT
BRANCH   3   7
HETATM    7  N2  UNL     1      25.631   6.316  49.879  1.00  0.00    -0.186 N 
HETATM    8  H6  UNL     1      25.438   7.046  50.597  1.00  0.00     0.184 HD
BRANCH   7   9
HETATM    9  C7  UNL     1      24.702   5.269  49.657  1.00  0.00     0.744 A 
HETATM   10  N3  UNL     1      23.913   5.275  48.572  1.00  0.00    -0.071 NA
HETATM   11  C8  UNL     1      23.031   4.280  48.361  1.00  0.00     0.168 A 
HETATM   12  C9  UNL     1      22.911   3.225  49.254  1.00  0.00     0.077 A 
HETATM   13  C10 UNL     1      22.175   2.084  49.390  1.00  0.00     0.035 A 
HETATM   14  N4  UNL     1      23.741   3.280  50.333  1.00  0.00    -0.221 N 
HETATM   15  C11 UNL     1      22.535   1.420  50.546  1.00  0.00     0.030 A 
HETATM   16  C12 UNL     1      23.518   2.190  51.120  1.00  0.00     0.041 A 
HETATM   17  N5  UNL     1      24.604   4.258  50.535  1.00  0.00     0.026 NA
BRANCH  16  18
HETATM   18  C13 UNL     1      24.223   1.874  52.400  1.00  0.00     0.038 A 
HETATM   19  C14 UNL     1      25.453   0.997  52.262  1.00  0.00     0.011 A 
HETATM   20  C15 UNL     1      24.222   0.458  52.875  1.00  0.00     0.011 A 
ENDBRANCH  16  18
ENDBRANCH   7   9
ENDBRANCH   3   7
BRANCH   1  21
HETATM   21  N1  UNL     1      29.255   9.048  47.972  1.00  0.00    -0.322 N 
HETATM   22  C3  UNL     1      30.136   9.881  48.706  1.00  0.00     0.244 C 
HETATM   23  O1  UNL     1      30.407   9.579  49.895  1.00  0.00    -0.268 OA
HETATM   24  H4  UNL     1      29.138   9.438  47.010  1.00  0.00     0.169 HD
BRANCH  22  25
HETATM   25  C2  UNL     1      30.782  11.076  48.241  1.00  0.00     0.064 C 
HETATM   26  C1  UNL     1      30.479  12.123  48.996  1.00  0.00     0.017 C 
ENDBRANCH  22  25
ENDBRANCH   1  21
BRANCH   6  27
HETATM   27  N6  UNL     1      30.688   6.480  48.063  1.00  0.00    -0.378 N 
HETATM   28  C19 UNL     1      31.517   6.379  49.244  1.00  0.00     0.125 C 
HETATM   29  C20 UNL     1      32.788   5.605  49.012  1.00  0.00     0.055 C 
HETATM   30  C21 UNL     1      32.564   4.733  47.821  1.00  0.00     0.225 C 
HETATM   31  C24 UNL     1      32.511   5.640  46.614  1.00  0.00     0.055 C 
HETATM   32  C25 UNL     1      31.256   6.460  46.739  1.00  0.00     0.125 C 
BRANCH  30  33
HETATM   33  N7  UNL     1      33.519   3.664  47.661  1.00  0.00     0.084 N 
HETATM   34  C22 UNL     1      34.711   4.072  46.981  1.00  0.00     0.309 C 
HETATM   35  C23 UNL     1      32.993   2.451  47.127  1.00  0.00     0.309 C 
ENDBRANCH  30  33
ENDBRANCH   6  27
TORSDOF 7
ENDMDL
MODEL 5
REMARK VINA RESULT:      -7.9      3.543      6.114
REMARK  7 active torsions:
REMARK  status: ('A' for Active; 'I' for Inactive)
REMARK    1  A    between atoms: C2_2  and  C3_3 
REMARK       I    between atoms: C3_3  and  N1_5 
REMARK    2  A    between atoms: N1_5  and  C4_6 
REMARK    3  A    between atoms: C6_8  and  N2_9 
REMARK    4  A    between atoms: N2_9  and  C7_10 
REMARK    5  A    between atoms: C12_16  and  C13_17 
REMARK    6  A    between atoms: C18_24  and  N6_25 
REMARK    7  A    between atoms: C21_28  and  N7_29 
ROOT
HETATM    1  C4  UNL     1      24.753   3.273  50.739  1.00  0.00     0.065 C 
HETATM    2  C5  UNL     1      23.800   2.407  50.459  1.00  0.00     0.062 C 
HETATM    3  C6  UNL     1      22.887   2.635  49.341  1.00  0.00     0.063 C 
HETATM    4  C16 UNL     1      22.910   3.792  48.743  1.00  0.00     0.018 C 
HETATM    5  C17 UNL     1      23.713   4.724  49.137  1.00  0.00     0.020 C 
HETATM    6  C18 UNL     1      24.757   4.403  49.838  1.00  0.00     0.069 C 
ENDROOT
BRANCH   3   7
HETATM    7  N2  UNL     1      22.004   1.631  48.920  1.00  0.00    -0.186 N 
HETATM    8  H6  UNL     1      22.195   1.205  47.988  1.00  0.00     0.184 HD
BRANCH   7   9
HETATM    9  C7  UNL     1      20.901   1.192  49.694  1.00  0.00     0.744 A 
HETATM   10  N3  UNL     1      19.644   1.424  49.284  1.00  0.00    -0.071 NA
HETATM   11  C8  UNL     1      18.597   1.007  50.019  1.00  0.00     0.168 A 
HETATM   12  C9  UNL     1      18.782   0.329  51.216  1.00  0.00     0.077 A 
HETATM   13  C10 UNL     1      18.019  -0.228  52.200  1.00  0.00     0.035 A 
HETATM   14  N4  UNL     1      20.082   0.128  51.573  1.00  0.00    -0.221 N 
HETATM   15  C11 UNL     1      18.828  -0.780  53.174  1.00  0.00     0.030 A 
HETATM   16  C12 UNL     1      20.117  -0.544  52.759  1.00  0.00     0.041 A 
HETATM   17  N5  UNL     1      21.105   0.539  50.849  1.00  0.00     0.026 NA
BRANCH  16  18
HETATM   18  C13 UNL     1      21.350  -0.960  53.495  1.00  0.00     0.038 A 
HETATM   19  C14 UNL     1      21.505  -0.371  54.883  1.00  0.00     0.011 A 
HETATM   20  C15 UNL     1      22.383   0.079  53.784  1.00  0.00     0.011 A 
ENDBRANCH  16  18
ENDBRANCH   7   9
ENDBRANCH   3   7
BRANCH   1  21
HETATM   21  N1  UNL     1      25.701   3.212  51.760  1.00  0.00    -0.322 N 
HETATM   22  C3  UNL     1      26.717   2.259  52.023  1.00  0.00     0.244 C 
HETATM   23  O1  UNL     1      26.843   1.277  51.250  1.00  0.00    -0.268 OA
HETATM   24  H4  UNL     1      25.735   3.958  52.491  1.00  0.00     0.169 HD
BRANCH  22  25
HETATM   25  C2  UNL     1      27.658   2.278  53.108  1.00  0.00     0.064 C 
HETATM   26  C1  UNL     1      27.539   1.205  53.878  1.00  0.00     0.017 C 
ENDBRANCH  22  25
ENDBRANCH   1  21
BRANCH   6  27
HETATM   27  N6  UNL     1      25.910   5.252  49.650  1.00  0.00    -0.378 N 
HETATM   28  C19 UNL     1      27.105   4.743  49.014  1.00  0.00     0.125 C 
HETATM   29  C20 UNL     1      27.894   5.806  48.296  1.00  0.00     0.055 C 
HETATM   30  C21 UNL     1      26.955   6.929  47.999  1.00  0.00     0.225 C 
HETATM   31  C24 UNL     1      26.634   7.597  49.316  1.00  0.00     0.055 C 
HETATM   32  C25 UNL     1      25.825   6.613  50.118  1.00  0.00     0.125 C 
BRANCH  30  33
HETATM   33  N7  UNL     1      27.423   7.869  47.009  1.00  0.00     0.084 N 
HETATM   34  C22 UNL     1      28.816   7.725  46.712  1.00  0.00     0.309 C 
HETATM   35  C23 UNL     1      27.068   9.230  47.245  1.00  0.00     0.309 C 
ENDBRANCH  30  33
ENDBRANCH   6  27
TORSDOF 7
ENDMDL
MODEL 6
REMARK VINA RESULT:      -7.9      2.507      4.137
REMARK  7 active torsions:
REMARK  status: ('A' for Active; 'I' for Inactive)
REMARK    1  A    between atoms: C2_2  and  C3_3 
REMARK       I    between atoms: C3_3  and  N1_5 
REMARK    2  A    between atoms: N1_5  and  C4_6 
REMARK    3  A    between atoms: C6_8  and  N2_9 
REMARK    4  A    between atoms: N2_9  and  C7_10 
REMARK    5  A    between atoms: C12_16  and  C13_17 
REMARK    6  A    between atoms: C18_24  and  N6_25 
REMARK    7  A    between atoms: C21_28  and  N7_29 
ROOT
HETATM    1  C4  UNL     1      22.684   4.218  50.696  1.00  0.00     0.065 C 
HETATM    2  C5  UNL     1      21.474   3.948  50.251  1.00  0.00     0.062 C 
HETATM    3  C6  UNL     1      21.086   2.578  49.924  1.00  0.00     0.063 C 
HETATM    4  C16 UNL     1      22.006   1.657  49.903  1.00  0.00     0.018 C 
HETATM    5  C17 UNL     1      23.239   1.949  50.152  1.00  0.00     0.020 C 
HETATM    6  C18 UNL     1      23.511   3.037  50.805  1.00  0.00     0.069 C 
ENDROOT
BRANCH   3   7
HETATM    7  N2  UNL     1      19.750   2.259  49.639  1.00  0.00    -0.186 N 
HETATM    8  H6  UNL     1      19.296   2.803  48.876  1.00  0.00     0.184 HD
BRANCH   7   9
HETATM    9  C7  UNL     1      19.026   1.257  50.331  1.00  0.00     0.744 A 
HETATM   10  N3  UNL     1      17.855   0.809  49.854  1.00  0.00    -0.071 NA
HETATM   11  C8  UNL     1      17.168  -0.144  50.511  1.00  0.00     0.168 A 
HETATM   12  C9  UNL     1      17.645  -0.688  51.695  1.00  0.00     0.077 A 
HETATM   13  C10 UNL     1      17.264  -1.622  52.613  1.00  0.00     0.035 A 
HETATM   14  N4  UNL     1      18.838  -0.189  52.123  1.00  0.00    -0.221 N 
HETATM   15  C11 UNL     1      18.208  -1.716  53.617  1.00  0.00     0.030 A 
HETATM   16  C12 UNL     1      19.185  -0.807  53.288  1.00  0.00     0.041 A 
HETATM   17  N5  UNL     1      19.508   0.745  51.475  1.00  0.00     0.026 NA
BRANCH  16  18
HETATM   18  C13 UNL     1      20.424  -0.546  54.083  1.00  0.00     0.038 A 
HETATM   19  C14 UNL     1      21.727  -0.863  53.374  1.00  0.00     0.011 A 
HETATM   20  C15 UNL     1      21.261  -1.716  54.487  1.00  0.00     0.011 A 
ENDBRANCH  16  18
ENDBRANCH   7   9
ENDBRANCH   3   7
BRANCH   1  21
HETATM   21  N1  UNL     1      23.216   5.457  51.052  1.00  0.00    -0.322 N 
HETATM   22  C3  UNL     1      24.072   6.335  50.340  1.00  0.00     0.244 C 
HETATM   23  O1  UNL     1      24.458   6.007  49.191  1.00  0.00    -0.268 OA
HETATM   24  H4  UNL     1      22.992   5.877  51.982  1.00  0.00     0.169 HD
BRANCH  22  25
HETATM   25  C2  UNL     1      24.573   7.604  50.790  1.00  0.00     0.064 C 
HETATM   26  C1  UNL     1      24.519   8.519  49.832  1.00  0.00     0.017 C 
ENDBRANCH  22  25
ENDBRANCH   1  21
BRANCH   6  27
HETATM   27  N6  UNL     1      24.689   2.979  51.638  1.00  0.00    -0.378 N 
HETATM   28  C19 UNL     1      24.571   2.852  53.074  1.00  0.00     0.125 C 
HETATM   29  C20 UNL     1      25.742   2.147  53.705  1.00  0.00     0.055 C 
HETATM   30  C21 UNL     1      26.393   1.328  52.639  1.00  0.00     0.225 C 
HETATM   31  C24 UNL     1      27.068   2.293  51.692  1.00  0.00     0.055 C 
HETATM   32  C25 UNL     1      25.974   3.052  50.990  1.00  0.00     0.125 C 
BRANCH  30  33
HETATM   33  N7  UNL     1      27.296   0.310  53.119  1.00  0.00     0.084 N 
HETATM   34  C22 UNL     1      26.944  -1.006  52.680  1.00  0.00     0.309 C 
HETATM   35  C23 UNL     1      27.569   0.349  54.518  1.00  0.00     0.309 C 
ENDBRANCH  30  33
ENDBRANCH   6  27
TORSDOF 7
ENDMDL
MODEL 7
REMARK VINA RESULT:      -7.8      5.607     12.350
REMARK  7 active torsions:
REMARK  status: ('A' for Active; 'I' for Inactive)
REMARK    1  A    between atoms: C2_2  and  C3_3 
REMARK       I    between atoms: C3_3  and  N1_5 
REMARK    2  A    between atoms: N1_5  and  C4_6 
REMARK    3  A    between atoms: C6_8  and  N2_9 
REMARK    4  A    between atoms: N2_9  and  C7_10 
REMARK    5  A    between atoms: C12_16  and  C13_17 
REMARK    6  A    between atoms: C18_24  and  N6_25 
REMARK    7  A    between atoms: C21_28  and  N7_29 
ROOT
HETATM    1  C4  UNL     1      25.278   5.799  49.908  1.00  0.00     0.065 C 
HETATM    2  C5  UNL     1      26.218   6.465  49.268  1.00  0.00     0.062 C 
HETATM    3  C6  UNL     1      27.318   5.762  48.612  1.00  0.00     0.063 C 
HETATM    4  C16 UNL     1      27.458   4.485  48.826  1.00  0.00     0.018 C 
HETATM    5  C17 UNL     1      26.650   3.855  49.612  1.00  0.00     0.020 C 
HETATM    6  C18 UNL     1      25.487   4.370  49.867  1.00  0.00     0.069 C 
ENDROOT
BRANCH   3   7
HETATM    7  N2  UNL     1      28.206   6.447  47.770  1.00  0.00    -0.186 N 
HETATM    8  H6  UNL     1      27.807   6.828  46.886  1.00  0.00     0.184 HD
BRANCH   7   9
HETATM    9  C7  UNL     1      29.579   6.630  48.072  1.00  0.00     0.744 A 
HETATM   10  N3  UNL     1      29.990   7.718  48.740  1.00  0.00    -0.071 NA
HETATM   11  C8  UNL     1      31.294   7.891  49.028  1.00  0.00     0.168 A 
HETATM   12  C9  UNL     1      32.246   6.956  48.644  1.00  0.00     0.077 A 
HETATM   13  C10 UNL     1      33.595   6.777  48.741  1.00  0.00     0.035 A 
HETATM   14  N4  UNL     1      31.760   5.877  47.970  1.00  0.00    -0.221 N 
HETATM   15  C11 UNL     1      33.963   5.593  48.133  1.00  0.00     0.030 A 
HETATM   16  C12 UNL     1      32.795   5.046  47.657  1.00  0.00     0.041 A 
HETATM   17  N5  UNL     1      30.481   5.712  47.691  1.00  0.00     0.026 NA
BRANCH  16  18
HETATM   18  C13 UNL     1      32.687   3.752  46.918  1.00  0.00     0.038 A 
HETATM   19  C14 UNL     1      33.103   2.522  47.702  1.00  0.00     0.011 A 
HETATM   20  C15 UNL     1      33.947   3.017  46.595  1.00  0.00     0.011 A 
ENDBRANCH  16  18
ENDBRANCH   7   9
ENDBRANCH   3   7
BRANCH   1  21
HETATM   21  N1  UNL     1      24.168   6.307  50.582  1.00  0.00    -0.322 N 
HETATM   22  C3  UNL     1      22.890   6.689  50.104  1.00  0.00     0.244 C 
HETATM   23  O1  UNL     1      22.644   6.581  48.877  1.00  0.00    -0.268 OA
HETATM   24  H4  UNL     1      24.206   6.459  51.616  1.00  0.00     0.169 HD
BRANCH  22  25
HETATM   25  C2  UNL     1      21.797   7.206  50.880  1.00  0.00     0.064 C 
HETATM   26  C1  UNL     1      20.968   7.928  50.138  1.00  0.00     0.017 C 
ENDBRANCH  22  25
ENDBRANCH   1  21
BRANCH   6  27
HETATM   27  N6  UNL     1      24.428   3.416  50.104  1.00  0.00    -0.378 N 
HETATM   28  C19 UNL     1      24.327   2.728  51.373  1.00  0.00     0.125 C 
HETATM   29  C20 UNL     1      22.916   2.342  51.727  1.00  0.00     0.055 C 
HETATM   30  C21 UNL     1      22.004   3.237  50.954  1.00  0.00     0.225 C 
HETATM   31  C24 UNL     1      22.101   2.821  49.505  1.00  0.00     0.055 C 
HETATM   32  C25 UNL     1      23.487   3.179  49.040  1.00  0.00     0.125 C 
BRANCH  30  33
HETATM   33  N7  UNL     1      20.640   3.271  51.424  1.00  0.00     0.084 N 
HETATM   34  C22 UNL     1      20.316   2.174  52.285  1.00  0.00     0.309 C 
HETATM   35  C23 UNL     1      19.652   3.463  50.414  1.00  0.00     0.309 C 
ENDBRANCH  30  33
ENDBRANCH   6  27
TORSDOF 7
ENDMDL
MODEL 8
REMARK VINA RESULT:      -7.8      6.656      9.785
REMARK  7 active torsions:
REMARK  status: ('A' for Active; 'I' for Inactive)
REMARK    1  A    between atoms: C2_2  and  C3_3 
REMARK       I    between atoms: C3_3  and  N1_5 
REMARK    2  A    between atoms: N1_5  and  C4_6 
REMARK    3  A    between atoms: C6_8  and  N2_9 
REMARK    4  A    between atoms: N2_9  and  C7_10 
REMARK    5  A    between atoms: C12_16  and  C13_17 
REMARK    6  A    between atoms: C18_24  and  N6_25 
REMARK    7  A    between atoms: C21_28  and  N7_29 
ROOT
HETATM    1  C4  UNL     1      27.792   8.764  48.970  1.00  0.00     0.065 C 
HETATM    2  C5  UNL     1      26.878   8.718  49.918  1.00  0.00     0.062 C 
HETATM    3  C6  UNL     1      26.072   7.516  50.121  1.00  0.00     0.063 C 
HETATM    4  C16 UNL     1      26.140   6.563  49.238  1.00  0.00     0.018 C 
HETATM    5  C17 UNL     1      26.893   6.680  48.195  1.00  0.00     0.020 C 
HETATM    6  C18 UNL     1      27.870   7.534  48.215  1.00  0.00     0.069 C 
ENDROOT
BRANCH   3   7
HETATM    7  N2  UNL     1      25.242   7.392  51.244  1.00  0.00    -0.186 N 
HETATM    8  H6  UNL     1      25.585   7.826  52.127  1.00  0.00     0.184 HD
BRANCH   7   9
HETATM    9  C7  UNL     1      23.994   6.718  51.217  1.00  0.00     0.744 A 
HETATM   10  N3  UNL     1      22.898   7.333  50.749  1.00  0.00    -0.071 NA
HETATM   11  C8  UNL     1      21.714   6.692  50.723  1.00  0.00     0.168 A 
HETATM   12  C9  UNL     1      21.592   5.387  51.177  1.00  0.00     0.077 A 
HETATM   13  C10 UNL     1      20.617   4.442  51.311  1.00  0.00     0.035 A 
HETATM   14  N4  UNL     1      22.743   4.823  51.639  1.00  0.00    -0.221 N 
HETATM   15  C11 UNL     1      21.145   3.286  51.853  1.00  0.00     0.030 A 
HETATM   16  C12 UNL     1      22.480   3.550  52.050  1.00  0.00     0.041 A 
HETATM   17  N5  UNL     1      23.901   5.455  51.662  1.00  0.00     0.026 NA
BRANCH  16  18
HETATM   18  C13 UNL     1      23.473   2.591  52.623  1.00  0.00     0.038 A 
HETATM   19  C14 UNL     1      24.202   1.731  51.608  1.00  0.00     0.011 A 
HETATM   20  C15 UNL     1      23.192   1.129  52.503  1.00  0.00     0.011 A 
ENDBRANCH  16  18
ENDBRANCH   7   9
ENDBRANCH   3   7
BRANCH   1  21
HETATM   21  N1  UNL     1      28.641   9.820  48.642  1.00  0.00    -0.322 N 
HETATM   22  C3  UNL     1      29.949  10.131  49.093  1.00  0.00     0.244 C 
HETATM   23  O1  UNL     1      30.498   9.374  49.932  1.00  0.00    -0.268 OA
HETATM   24  H4  UNL     1      28.336  10.545  47.953  1.00  0.00     0.169 HD
BRANCH  22  25
HETATM   25  C2  UNL     1      30.756  11.251  48.696  1.00  0.00     0.064 C 
HETATM   26  C1  UNL     1      30.240  12.399  49.114  1.00  0.00     0.017 C 
ENDBRANCH  22  25
ENDBRANCH   1  21
BRANCH   6  27
HETATM   27  N6  UNL     1      29.028   7.166  47.434  1.00  0.00    -0.378 N 
HETATM   28  C19 UNL     1      29.328   7.847  46.194  1.00  0.00     0.125 C 
HETATM   29  C20 UNL     1      30.798   7.870  45.870  1.00  0.00     0.055 C 
HETATM   30  C21 UNL     1      31.537   7.672  47.153  1.00  0.00     0.225 C 
HETATM   31  C24 UNL     1      31.319   6.236  47.570  1.00  0.00     0.055 C 
HETATM   32  C25 UNL     1      29.864   6.104  47.933  1.00  0.00     0.125 C 
BRANCH  30  33
HETATM   33  N7  UNL     1      32.936   8.023  47.110  1.00  0.00     0.084 N 
HETATM   34  C22 UNL     1      33.632   7.709  48.321  1.00  0.00     0.309 C 
HETATM   35  C23 UNL     1      33.218   9.348  46.664  1.00  0.00     0.309 C 
ENDBRANCH  30  33
ENDBRANCH   6  27
TORSDOF 7
ENDMDL
MODEL 9
REMARK VINA RESULT:      -7.8      4.882     11.409
REMARK  7 active torsions:
REMARK  status: ('A' for Active; 'I' for Inactive)
REMARK    1  A    between atoms: C2_2  and  C3_3 
REMARK       I    between atoms: C3_3  and  N1_5 
REMARK    2  A    between atoms: N1_5  and  C4_6 
REMARK    3  A    between atoms: C6_8  and  N2_9 
REMARK    4  A    between atoms: N2_9  and  C7_10 
REMARK    5  A    between atoms: C12_16  and  C13_17 
REMARK    6  A    between atoms: C18_24  and  N6_25 
REMARK    7  A    between atoms: C21_28  and  N7_29 
ROOT
HETATM    1  C4  UNL     1      24.782   3.286  50.459  1.00  0.00     0.065 C 
HETATM    2  C5  UNL     1      25.539   4.303  50.103  1.00  0.00     0.062 C 
HETATM    3  C6  UNL     1      25.030   5.335  49.201  1.00  0.00     0.063 C 
HETATM    4  C16 UNL     1      23.886   5.137  48.610  1.00  0.00     0.018 C 
HETATM    5  C17 UNL     1      23.221   4.047  48.805  1.00  0.00     0.020 C 
HETATM    6  C18 UNL     1      23.465   3.340  49.865  1.00  0.00     0.069 C 
ENDROOT
BRANCH   3   7
HETATM    7  N2  UNL     1      25.756   6.512  48.975  1.00  0.00    -0.186 N 
HETATM    8  H6  UNL     1      25.213   7.402  48.984  1.00  0.00     0.184 HD
BRANCH   7   9
HETATM    9  C7  UNL     1      27.155   6.530  48.745  1.00  0.00     0.744 A 
HETATM   10  N3  UNL     1      27.798   5.416  48.365  1.00  0.00    -0.071 NA
HETATM   11  C8  UNL     1      29.125   5.434  48.145  1.00  0.00     0.168 A 
HETATM   12  C9  UNL     1      29.866   6.597  48.305  1.00  0.00     0.077 A 
HETATM   13  C10 UNL     1      31.162   7.005  48.186  1.00  0.00     0.035 A 
HETATM   14  N4  UNL     1      29.151   7.691  48.691  1.00  0.00    -0.221 N 
HETATM   15  C11 UNL     1      31.270   8.347  48.494  1.00  0.00     0.030 A 
HETATM   16  C12 UNL     1      29.996   8.755  48.809  1.00  0.00     0.041 A 
HETATM   17  N5  UNL     1      27.849   7.668  48.905  1.00  0.00     0.026 NA
BRANCH  16  18
HETATM   18  C13 UNL     1      29.609  10.141  49.211  1.00  0.00     0.038 A 
HETATM   19  C14 UNL     1      29.468  11.131  48.071  1.00  0.00     0.011 A 
HETATM   20  C15 UNL     1      30.604  11.237  49.010  1.00  0.00     0.011 A 
ENDBRANCH  16  18
ENDBRANCH   7   9
ENDBRANCH   3   7
BRANCH   1  21
HETATM   21  N1  UNL     1      25.106   2.224  51.303  1.00  0.00    -0.322 N 
HETATM   22  C3  UNL     1      25.028   2.106  52.714  1.00  0.00     0.244 C 
HETATM   23  O1  UNL     1      24.608   3.083  53.382  1.00  0.00    -0.268 OA
HETATM   24  H4  UNL     1      25.472   1.330  50.905  1.00  0.00     0.169 HD
BRANCH  22  25
HETATM   25  C2  UNL     1      25.387   0.962  53.505  1.00  0.00     0.064 C 
HETATM   26  C1  UNL     1      26.034   0.053  52.788  1.00  0.00     0.017 C 
ENDBRANCH  22  25
ENDBRANCH   1  21
BRANCH   6  27
HETATM   27  N6  UNL     1      22.334   2.618  50.399  1.00  0.00    -0.378 N 
HETATM   28  C19 UNL     1      21.964   1.326  49.863  1.00  0.00     0.125 C 
HETATM   29  C20 UNL     1      21.287   0.437  50.872  1.00  0.00     0.055 C 
HETATM   30  C21 UNL     1      21.679   0.927  52.227  1.00  0.00     0.225 C 
HETATM   31  C24 UNL     1      20.979   2.249  52.438  1.00  0.00     0.055 C 
HETATM   32  C25 UNL     1      21.596   3.228  51.476  1.00  0.00     0.125 C 
BRANCH  30  33
HETATM   33  N7  UNL     1      21.433  -0.001  53.305  1.00  0.00     0.084 N 
HETATM   34  C22 UNL     1      22.321  -1.123  53.294  1.00  0.00     0.309 C 
HETATM   35  C23 UNL     1      20.073  -0.400  53.466  1.00  0.00     0.309 C 
ENDBRANCH  30  33
ENDBRANCH   6  27
TORSDOF 7
ENDMDL
