MODEL 1
REMARK VINA RESULT:      -7.5      0.000      0.000
REMARK  6 active torsions:
REMARK  status: ('A' for Active; 'I' for Inactive)
REMARK    1  A    between atoms: C2_2  and  C3_3 
REMARK    2  A    between atoms: C5_5  and  N1_6 
REMARK    3  A    between atoms: C5_5  and  S1_14 
REMARK    4  A    between atoms: N1_6  and  C6_7 
REMARK    5  A    between atoms: S1_14  and  N2_15 
REMARK    6  A    between atoms: C15_20  and  O1_21 
ROOT
HETATM    1  C3  UNL     1      34.089   4.979  47.963  1.00  0.00    -0.027 C 
HETATM    2  C4  UNL     1      32.876   5.405  47.650  1.00  0.00     0.032 C 
HETATM    3  C5  UNL     1      32.120   6.649  47.815  1.00  0.00     0.147 C 
HETATM    4  C12 UNL     1      32.766   7.868  47.356  1.00  0.00     0.137 C 
HETATM    5  N3  UNL     1      33.926   8.424  47.533  1.00  0.00    -0.274 NA
HETATM    6  C13 UNL     1      35.087   8.086  48.260  1.00  0.00     0.115 C 
HETATM    7  C14 UNL     1      35.547   6.903  48.635  1.00  0.00     0.028 C 
HETATM    8  C15 UNL     1      35.302   5.462  48.609  1.00  0.00     0.175 C 
ENDROOT
BRANCH   3   9
HETATM    9  N1  UNL     1      30.880   6.504  47.071  1.00  0.00    -0.363 N 
HETATM   10  H5  UNL     1      30.880   6.347  46.022  1.00  0.00     0.162 HD
BRANCH   9  11
HETATM   11  C6  UNL     1      29.568   6.547  47.603  1.00  0.00     0.031 A 
HETATM   12  C7  UNL     1      28.778   7.699  47.711  1.00  0.00     0.029 A 
HETATM   13  C8  UNL     1      27.519   7.648  48.243  1.00  0.00     0.004 A 
HETATM   14  C9  UNL     1      26.943   6.485  48.704  1.00  0.00     0.024 A 
HETATM   15  C10 UNL     1      27.708   5.343  48.606  1.00  0.00     0.036 A 
HETATM   16 CL1  UNL     1      26.951   3.871  49.202  1.00  0.00    -0.084 Cl
HETATM   17  C11 UNL     1      28.976   5.396  48.070  1.00  0.00     0.053 A 
ENDBRANCH   9  11
ENDBRANCH   3   9
BRANCH   3  18
HETATM   18  S1  UNL     1      31.600   6.941  49.545  1.00  0.00    -0.045 SA
BRANCH  18  19
HETATM   19  N2  UNL     1      31.546   5.484  50.492  1.00  0.00    -0.275 NA
HETATM   20  H10 UNL     1      30.892   5.674  51.302  1.00  0.00     0.131 HD
HETATM   21  H11 UNL     1      32.497   5.305  50.915  1.00  0.00     0.131 HD
ENDBRANCH  18  19
ENDBRANCH   3  18
BRANCH   1  22
HETATM   22  C2  UNL     1      34.303   3.576  47.529  1.00  0.00    -0.001 C 
HETATM   23  C1  UNL     1      34.913   3.166  46.428  1.00  0.00     0.012 C 
ENDBRANCH   1  22
BRANCH   8  24
HETATM   24  O1  UNL     1      35.493   4.958  49.896  1.00  0.00    -0.387 OA
HETATM   25  H16 UNL     1      36.166   4.243  49.927  1.00  0.00     0.210 HD
ENDBRANCH   8  24
TORSDOF 6
ENDMDL
MODEL 2
REMARK VINA RESULT:      -7.5      8.596     11.155
REMARK  6 active torsions:
REMARK  status: ('A' for Active; 'I' for Inactive)
REMARK    1  A    between atoms: C2_2  and  C3_3 
REMARK    2  A    between atoms: C5_5  and  N1_6 
REMARK    3  A    between atoms: C5_5  and  S1_14 
REMARK    4  A    between atoms: N1_6  and  C6_7 
REMARK    5  A    between atoms: S1_14  and  N2_15 
REMARK    6  A    between atoms: C15_20  and  O1_21 
ROOT
HETATM    1  C3  UNL     1      22.921   0.586  52.733  1.00  0.00    -0.027 C 
HETATM    2  C4  UNL     1      24.120   0.761  53.265  1.00  0.00     0.032 C 
HETATM    3  C5  UNL     1      25.179   1.769  53.170  1.00  0.00     0.147 C 
HETATM    4  C12 UNL     1      24.781   3.151  53.382  1.00  0.00     0.137 C 
HETATM    5  N3  UNL     1      23.851   3.929  52.918  1.00  0.00    -0.274 NA
HETATM    6  C13 UNL     1      22.802   3.774  51.988  1.00  0.00     0.115 C 
HETATM    7  C14 UNL     1      22.142   2.690  51.616  1.00  0.00     0.028 C 
HETATM    8  C15 UNL     1      22.011   1.246  51.807  1.00  0.00     0.175 C 
ENDROOT
BRANCH   3   9
HETATM    9  N1  UNL     1      26.180   1.442  54.171  1.00  0.00    -0.363 N 
HETATM   10  H5  UNL     1      26.030   1.667  55.197  1.00  0.00     0.162 HD
BRANCH   9  11
HETATM   11  C6  UNL     1      27.427   0.811  53.941  1.00  0.00     0.031 A 
HETATM   12  C7  UNL     1      28.675   1.446  53.990  1.00  0.00     0.029 A 
HETATM   13  C8  UNL     1      29.831   0.758  53.751  1.00  0.00     0.004 A 
HETATM   14  C9  UNL     1      29.858  -0.586  53.448  1.00  0.00     0.024 A 
HETATM   15  C10 UNL     1      28.638  -1.225  53.395  1.00  0.00     0.036 A 
HETATM   16 CL1  UNL     1      28.700  -2.940  53.006  1.00  0.00    -0.084 Cl
HETATM   17  C11 UNL     1      27.474  -0.530  53.637  1.00  0.00     0.053 A 
ENDBRANCH   9  11
ENDBRANCH   3   9
BRANCH   3  18
HETATM   18  S1  UNL     1      26.072   1.712  51.574  1.00  0.00    -0.045 SA
BRANCH  18  19
HETATM   19  N2  UNL     1      26.845   3.218  51.175  1.00  0.00    -0.275 NA
HETATM   20  H10 UNL     1      27.574   3.391  51.922  1.00  0.00     0.131 HD
HETATM   21  H11 UNL     1      26.145   4.004  51.258  1.00  0.00     0.131 HD
ENDBRANCH  18  19
ENDBRANCH   3  18
BRANCH   1  22
HETATM   22  C2  UNL     1      22.287  -0.665  53.220  1.00  0.00    -0.001 C 
HETATM   23  C1  UNL     1      22.221  -1.091  54.472  1.00  0.00     0.012 C 
ENDBRANCH   1  22
BRANCH   8  24
HETATM   24  O1  UNL     1      21.948   0.639  50.552  1.00  0.00    -0.387 OA
HETATM   25  H16 UNL     1      22.728   0.845  49.992  1.00  0.00     0.210 HD
ENDBRANCH   8  24
TORSDOF 6
ENDMDL
MODEL 3
REMARK VINA RESULT:      -7.2      7.893     10.357
REMARK  6 active torsions:
REMARK  status: ('A' for Active; 'I' for Inactive)
REMARK    1  A    between atoms: C2_2  and  C3_3 
REMARK    2  A    between atoms: C5_5  and  N1_6 
REMARK    3  A    between atoms: C5_5  and  S1_14 
REMARK    4  A    between atoms: N1_6  and  C6_7 
REMARK    5  A    between atoms: S1_14  and  N2_15 
REMARK    6  A    between atoms: C15_20  and  O1_21 
ROOT
HETATM    1  C3  UNL     1      25.604   1.602  51.651  1.00  0.00    -0.027 C 
HETATM    2  C4  UNL     1      24.307   1.765  51.855  1.00  0.00     0.032 C 
HETATM    3  C5  UNL     1      23.336   2.845  51.658  1.00  0.00     0.147 C 
HETATM    4  C12 UNL     1      23.297   3.450  50.336  1.00  0.00     0.137 C 
HETATM    5  N3  UNL     1      24.176   3.945  49.519  1.00  0.00    -0.274 NA
HETATM    6  C13 UNL     1      25.575   4.119  49.553  1.00  0.00     0.115 C 
HETATM    7  C14 UNL     1      26.504   3.448  50.214  1.00  0.00     0.028 C 
HETATM    8  C15 UNL     1      26.750   2.345  51.142  1.00  0.00     0.175 C 
ENDROOT
BRANCH   3   9
HETATM    9  N1  UNL     1      22.018   2.296  51.928  1.00  0.00    -0.363 N 
HETATM   10  H5  UNL     1      21.142   2.737  51.523  1.00  0.00     0.162 HD
BRANCH   9  11
HETATM   11  C6  UNL     1      21.725   1.161  52.722  1.00  0.00     0.031 A 
HETATM   12  C7  UNL     1      22.616   0.543  53.609  1.00  0.00     0.029 A 
HETATM   13  C8  UNL     1      22.246  -0.555  54.336  1.00  0.00     0.004 A 
HETATM   14  C9  UNL     1      20.996  -1.126  54.253  1.00  0.00     0.024 A 
HETATM   15  C10 UNL     1      20.108  -0.531  53.384  1.00  0.00     0.036 A 
HETATM   16 CL1  UNL     1      18.518  -1.280  53.297  1.00  0.00    -0.084 Cl
HETATM   17  C11 UNL     1      20.481   0.575  52.653  1.00  0.00     0.053 A 
ENDBRANCH   9  11
ENDBRANCH   3   9
BRANCH   3  18
HETATM   18  S1  UNL     1      23.534   4.208  52.861  1.00  0.00    -0.045 SA
BRANCH  18  19
HETATM   19  N2  UNL     1      23.840   5.743  52.104  1.00  0.00    -0.275 NA
HETATM   20  H10 UNL     1      24.496   5.556  51.294  1.00  0.00     0.131 HD
HETATM   21  H11 UNL     1      24.368   6.366  52.773  1.00  0.00     0.131 HD
ENDBRANCH  18  19
ENDBRANCH   3  18
BRANCH   1  22
HETATM   22  C2  UNL     1      26.053   0.246  52.055  1.00  0.00    -0.001 C 
HETATM   23  C1  UNL     1      26.186  -0.215  53.290  1.00  0.00     0.012 C 
ENDBRANCH   1  22
BRANCH   8  24
HETATM   24  O1  UNL     1      27.618   2.791  52.138  1.00  0.00    -0.387 OA
HETATM   25  H16 UNL     1      27.229   2.723  53.038  1.00  0.00     0.210 HD
ENDBRANCH   8  24
TORSDOF 6
ENDMDL
MODEL 4
REMARK VINA RESULT:      -7.2      7.176      9.814
REMARK  6 active torsions:
REMARK  status: ('A' for Active; 'I' for Inactive)
REMARK    1  A    between atoms: C2_2  and  C3_3 
REMARK    2  A    between atoms: C5_5  and  N1_6 
REMARK    3  A    between atoms: C5_5  and  S1_14 
REMARK    4  A    between atoms: N1_6  and  C6_7 
REMARK    5  A    between atoms: S1_14  and  N2_15 
REMARK    6  A    between atoms: C15_20  and  O1_21 
ROOT
HETATM    1  C3  UNL     1      25.226   3.479  49.883  1.00  0.00    -0.027 C 
HETATM    2  C4  UNL     1      25.415   3.249  51.172  1.00  0.00     0.032 C 
HETATM    3  C5  UNL     1      24.569   2.896  52.315  1.00  0.00     0.147 C 
HETATM    4  C12 UNL     1      23.694   1.747  52.145  1.00  0.00     0.137 C 
HETATM    5  N3  UNL     1      22.833   1.363  51.252  1.00  0.00    -0.274 NA
HETATM    6  C13 UNL     1      22.359   1.899  50.036  1.00  0.00     0.115 C 
HETATM    7  C14 UNL     1      22.939   2.730  49.185  1.00  0.00     0.028 C 
HETATM    8  C15 UNL     1      24.144   3.510  48.908  1.00  0.00     0.175 C 
ENDROOT
BRANCH   3   9
HETATM    9  N1  UNL     1      25.451   2.613  53.435  1.00  0.00    -0.363 N 
HETATM   10  H5  UNL     1      25.291   3.051  54.388  1.00  0.00     0.162 HD
BRANCH   9  11
HETATM   11  C6  UNL     1      26.583   1.763  53.422  1.00  0.00     0.031 A 
HETATM   12  C7  UNL     1      27.902   2.170  53.665  1.00  0.00     0.029 A 
HETATM   13  C8  UNL     1      28.937   1.278  53.630  1.00  0.00     0.004 A 
HETATM   14  C9  UNL     1      28.768  -0.061  53.357  1.00  0.00     0.024 A 
HETATM   15  C10 UNL     1      27.477  -0.477  53.114  1.00  0.00     0.036 A 
HETATM   16 CL1  UNL     1      27.288  -2.192  52.768  1.00  0.00    -0.084 Cl
HETATM   17  C11 UNL     1      26.435   0.422  53.151  1.00  0.00     0.053 A 
ENDBRANCH   9  11
ENDBRANCH   3   9
BRANCH   3  18
HETATM   18  S1  UNL     1      23.520   4.284  52.880  1.00  0.00    -0.045 SA
BRANCH  18  19
HETATM   19  N2  UNL     1      24.102   5.834  52.349  1.00  0.00    -0.275 NA
HETATM   20  H10 UNL     1      24.910   6.088  52.983  1.00  0.00     0.131 HD
HETATM   21  H11 UNL     1      23.358   6.564  52.513  1.00  0.00     0.131 HD
ENDBRANCH  18  19
ENDBRANCH   3  18
BRANCH   1  22
HETATM   22  C2  UNL     1      26.501   3.805  49.195  1.00  0.00    -0.001 C 
HETATM   23  C1  UNL     1      26.971   5.011  48.917  1.00  0.00     0.012 C 
ENDBRANCH   1  22
BRANCH   8  24
HETATM   24  O1  UNL     1      23.761   4.798  48.534  1.00  0.00    -0.387 OA
HETATM   25  H16 UNL     1      24.302   5.155  47.796  1.00  0.00     0.210 HD
ENDBRANCH   8  24
TORSDOF 6
ENDMDL
MODEL 5
REMARK VINA RESULT:      -7.2      6.716      9.441
REMARK  6 active torsions:
REMARK  status: ('A' for Active; 'I' for Inactive)
REMARK    1  A    between atoms: C2_2  and  C3_3 
REMARK    2  A    between atoms: C5_5  and  N1_6 
REMARK    3  A    between atoms: C5_5  and  S1_14 
REMARK    4  A    between atoms: N1_6  and  C6_7 
REMARK    5  A    between atoms: S1_14  and  N2_15 
REMARK    6  A    between atoms: C15_20  and  O1_21 
ROOT
HETATM    1  C3  UNL     1      25.633   4.781  49.678  1.00  0.00    -0.027 C 
HETATM    2  C4  UNL     1      24.875   3.783  50.104  1.00  0.00     0.032 C 
HETATM    3  C5  UNL     1      23.503   3.635  50.595  1.00  0.00     0.147 C 
HETATM    4  C12 UNL     1      22.451   4.200  49.766  1.00  0.00     0.137 C 
HETATM    5  N3  UNL     1      22.238   5.347  49.195  1.00  0.00    -0.274 NA
HETATM    6  C13 UNL     1      22.942   6.568  49.128  1.00  0.00     0.115 C 
HETATM    7  C14 UNL     1      24.236   6.816  49.243  1.00  0.00     0.028 C 
HETATM    8  C15 UNL     1      25.553   6.219  49.461  1.00  0.00     0.175 C 
ENDROOT
BRANCH   3   9
HETATM    9  N1  UNL     1      23.241   2.212  50.727  1.00  0.00    -0.363 N 
HETATM   10  H5  UNL     1      22.624   1.697  50.034  1.00  0.00     0.162 HD
BRANCH   9  11
HETATM   11  C6  UNL     1      23.739   1.353  51.736  1.00  0.00     0.031 A 
HETATM   12  C7  UNL     1      25.094   1.101  51.986  1.00  0.00     0.029 A 
HETATM   13  C8  UNL     1      25.486   0.253  52.984  1.00  0.00     0.004 A 
HETATM   14  C9  UNL     1      24.596  -0.406  53.804  1.00  0.00     0.024 A 
HETATM   15  C10 UNL     1      23.259  -0.170  53.570  1.00  0.00     0.036 A 
HETATM   16 CL1  UNL     1      22.144  -1.024  54.630  1.00  0.00    -0.084 Cl
HETATM   17  C11 UNL     1      22.866   0.686  52.565  1.00  0.00     0.053 A 
ENDBRANCH   9  11
ENDBRANCH   3   9
BRANCH   3  18
HETATM   18  S1  UNL     1      23.274   4.314  52.279  1.00  0.00    -0.045 SA
BRANCH  18  19
HETATM   19  N2  UNL     1      24.036   5.862  52.496  1.00  0.00    -0.275 NA
HETATM   20  H10 UNL     1      25.074   5.679  52.589  1.00  0.00     0.131 HD
HETATM   21  H11 UNL     1      23.726   6.280  53.415  1.00  0.00     0.131 HD
ENDBRANCH  18  19
ENDBRANCH   3  18
BRANCH   1  22
HETATM   22  C2  UNL     1      26.988   4.312  49.296  1.00  0.00    -0.001 C 
HETATM   23  C1  UNL     1      27.860   4.939  48.521  1.00  0.00     0.012 C 
ENDBRANCH   1  22
BRANCH   8  24
HETATM   24  O1  UNL     1      26.225   6.972  50.425  1.00  0.00    -0.387 OA
HETATM   25  H16 UNL     1      26.206   6.553  51.313  1.00  0.00     0.210 HD
ENDBRANCH   8  24
TORSDOF 6
ENDMDL
MODEL 6
REMARK VINA RESULT:      -7.1      8.353     10.891
REMARK  6 active torsions:
REMARK  status: ('A' for Active; 'I' for Inactive)
REMARK    1  A    between atoms: C2_2  and  C3_3 
REMARK    2  A    between atoms: C5_5  and  N1_6 
REMARK    3  A    between atoms: C5_5  and  S1_14 
REMARK    4  A    between atoms: N1_6  and  C6_7 
REMARK    5  A    between atoms: S1_14  and  N2_15 
REMARK    6  A    between atoms: C15_20  and  O1_21 
ROOT
HETATM    1  C3  UNL     1      23.928   3.111  49.641  1.00  0.00    -0.027 C 
HETATM    2  C4  UNL     1      23.890   2.728  50.907  1.00  0.00     0.032 C 
HETATM    3  C5  UNL     1      22.879   2.177  51.812  1.00  0.00     0.147 C 
HETATM    4  C12 UNL     1      22.154   1.007  51.342  1.00  0.00     0.137 C 
HETATM    5  N3  UNL     1      21.514   0.689  50.258  1.00  0.00    -0.274 NA
HETATM    6  C13 UNL     1      21.232   1.347  49.043  1.00  0.00     0.115 C 
HETATM    7  C14 UNL     1      21.887   2.316  48.424  1.00  0.00     0.028 C 
HETATM    8  C15 UNL     1      23.050   3.199  48.481  1.00  0.00     0.175 C 
ENDROOT
BRANCH   3   9
HETATM    9  N1  UNL     1      23.555   1.808  53.044  1.00  0.00    -0.363 N 
HETATM   10  H5  UNL     1      23.099   1.957  53.991  1.00  0.00     0.162 HD
BRANCH   9  11
HETATM   11  C6  UNL     1      24.843   1.230  53.158  1.00  0.00     0.031 A 
HETATM   12  C7  UNL     1      25.121  -0.142  53.098  1.00  0.00     0.029 A 
HETATM   13  C8  UNL     1      26.399  -0.612  53.220  1.00  0.00     0.004 A 
HETATM   14  C9  UNL     1      27.488   0.209  53.408  1.00  0.00     0.024 A 
HETATM   15  C10 UNL     1      27.232   1.561  53.470  1.00  0.00     0.036 A 
HETATM   16 CL1  UNL     1      28.640   2.589  53.711  1.00  0.00    -0.084 Cl
HETATM   17  C11 UNL     1      25.944   2.034  53.346  1.00  0.00     0.053 A 
ENDBRANCH   9  11
ENDBRANCH   3   9
BRANCH   3  18
HETATM   18  S1  UNL     1      21.625   3.412  52.314  1.00  0.00    -0.045 SA
BRANCH  18  19
HETATM   19  N2  UNL     1      20.051   2.717  52.564  1.00  0.00    -0.275 NA
HETATM   20  H10 UNL     1      19.482   3.438  53.090  1.00  0.00     0.131 HD
HETATM   21  H11 UNL     1      20.133   1.882  53.204  1.00  0.00     0.131 HD
ENDBRANCH  18  19
ENDBRANCH   3  18
BRANCH   1  22
HETATM   22  C2  UNL     1      25.276   3.603  49.261  1.00  0.00    -0.001 C 
HETATM   23  C1  UNL     1      26.441   3.188  49.736  1.00  0.00     0.012 C 
ENDBRANCH   1  22
BRANCH   8  24
HETATM   24  O1  UNL     1      22.634   4.498  48.190  1.00  0.00    -0.387 OA
HETATM   25  H16 UNL     1      22.975   4.821  47.327  1.00  0.00     0.210 HD
ENDBRANCH   8  24
TORSDOF 6
ENDMDL
MODEL 7
REMARK VINA RESULT:      -6.9      3.976      5.251
REMARK  6 active torsions:
REMARK  status: ('A' for Active; 'I' for Inactive)
REMARK    1  A    between atoms: C2_2  and  C3_3 
REMARK    2  A    between atoms: C5_5  and  N1_6 
REMARK    3  A    between atoms: C5_5  and  S1_14 
REMARK    4  A    between atoms: N1_6  and  C6_7 
REMARK    5  A    between atoms: S1_14  and  N2_15 
REMARK    6  A    between atoms: C15_20  and  O1_21 
ROOT
HETATM    1  C3  UNL     1      29.888   8.513  48.841  1.00  0.00    -0.027 C 
HETATM    2  C4  UNL     1      28.712   8.001  48.516  1.00  0.00     0.032 C 
HETATM    3  C5  UNL     1      27.351   8.514  48.341  1.00  0.00     0.147 C 
HETATM    4  C12 UNL     1      27.197   9.661  47.461  1.00  0.00     0.137 C 
HETATM    5  N3  UNL     1      27.765  10.824  47.348  1.00  0.00    -0.274 NA
HETATM    6  C13 UNL     1      28.795  11.496  48.038  1.00  0.00     0.115 C 
HETATM    7  C14 UNL     1      29.816  11.015  48.730  1.00  0.00     0.028 C 
HETATM    8  C15 UNL     1      30.482   9.797  49.188  1.00  0.00     0.175 C 
ENDROOT
BRANCH   3   9
HETATM    9  N1  UNL     1      26.547   7.432  47.796  1.00  0.00    -0.363 N 
HETATM   10  H5  UNL     1      26.068   7.521  46.853  1.00  0.00     0.162 HD
BRANCH   9  11
HETATM   11  C6  UNL     1      26.301   6.178  48.403  1.00  0.00     0.031 A 
HETATM   12  C7  UNL     1      27.273   5.207  48.677  1.00  0.00     0.029 A 
HETATM   13  C8  UNL     1      26.943   4.018  49.266  1.00  0.00     0.004 A 
HETATM   14  C9  UNL     1      25.656   3.690  49.628  1.00  0.00     0.024 A 
HETATM   15  C10 UNL     1      24.687   4.633  49.364  1.00  0.00     0.036 A 
HETATM   16 CL1  UNL     1      23.051   4.189  49.835  1.00  0.00    -0.084 Cl
HETATM   17  C11 UNL     1      25.021   5.831  48.771  1.00  0.00     0.053 A 
ENDBRANCH   9  11
ENDBRANCH   3   9
BRANCH   3  18
HETATM   18  S1  UNL     1      26.545   8.947  49.926  1.00  0.00    -0.045 SA
BRANCH  18  19
HETATM   19  N2  UNL     1      27.665   9.536  51.117  1.00  0.00    -0.275 NA
HETATM   20  H10 UNL     1      27.348  10.513  51.373  1.00  0.00     0.131 HD
HETATM   21  H11 UNL     1      28.620   9.641  50.680  1.00  0.00     0.131 HD
ENDBRANCH  18  19
ENDBRANCH   3  18
BRANCH   1  22
HETATM   22  C2  UNL     1      30.948   7.474  48.861  1.00  0.00    -0.001 C 
HETATM   23  C1  UNL     1      30.846   6.222  48.439  1.00  0.00     0.012 C 
ENDBRANCH   1  22
BRANCH   8  24
HETATM   24  O1  UNL     1      30.769   9.935  50.546  1.00  0.00    -0.387 OA
HETATM   25  H16 UNL     1      29.963  10.052  51.094  1.00  0.00     0.210 HD
ENDBRANCH   8  24
TORSDOF 6
ENDMDL
MODEL 8
REMARK VINA RESULT:      -6.8      5.339      7.035
REMARK  6 active torsions:
REMARK  status: ('A' for Active; 'I' for Inactive)
REMARK    1  A    between atoms: C2_2  and  C3_3 
REMARK    2  A    between atoms: C5_5  and  N1_6 
REMARK    3  A    between atoms: C5_5  and  S1_14 
REMARK    4  A    between atoms: N1_6  and  C6_7 
REMARK    5  A    between atoms: S1_14  and  N2_15 
REMARK    6  A    between atoms: C15_20  and  O1_21 
ROOT
HETATM    1  C3  UNL     1      27.062   5.802  48.577  1.00  0.00    -0.027 C 
HETATM    2  C4  UNL     1      25.783   6.046  48.809  1.00  0.00     0.032 C 
HETATM    3  C5  UNL     1      24.883   7.193  48.661  1.00  0.00     0.147 C 
HETATM    4  C12 UNL     1      24.864   7.839  47.359  1.00  0.00     0.137 C 
HETATM    5  N3  UNL     1      25.760   8.299  46.540  1.00  0.00    -0.274 NA
HETATM    6  C13 UNL     1      27.168   8.378  46.554  1.00  0.00     0.115 C 
HETATM    7  C14 UNL     1      28.061   7.626  47.178  1.00  0.00     0.028 C 
HETATM    8  C15 UNL     1      28.247   6.482  48.069  1.00  0.00     0.175 C 
ENDROOT
BRANCH   3   9
HETATM    9  N1  UNL     1      23.536   6.725  48.940  1.00  0.00    -0.363 N 
HETATM   10  H5  UNL     1      22.693   7.356  48.805  1.00  0.00     0.162 HD
BRANCH   9  11
HETATM   11  C6  UNL     1      23.169   5.438  49.402  1.00  0.00     0.031 A 
HETATM   12  C7  UNL     1      22.975   5.086  50.744  1.00  0.00     0.029 A 
HETATM   13  C8  UNL     1      22.623   3.814  51.100  1.00  0.00     0.004 A 
HETATM   14  C9  UNL     1      22.437   2.801  50.186  1.00  0.00     0.024 A 
HETATM   15  C10 UNL     1      22.625   3.130  48.861  1.00  0.00     0.036 A 
HETATM   16 CL1  UNL     1      22.382   1.819  47.714  1.00  0.00    -0.084 Cl
HETATM   17  C11 UNL     1      22.979   4.413  48.504  1.00  0.00     0.053 A 
ENDBRANCH   9  11
ENDBRANCH   3   9
BRANCH   3  18
HETATM   18  S1  UNL     1      25.193   8.503  49.901  1.00  0.00    -0.045 SA
BRANCH  18  19
HETATM   19  N2  UNL     1      26.766   8.388  50.631  1.00  0.00    -0.275 NA
HETATM   20  H10 UNL     1      27.253   9.309  50.447  1.00  0.00     0.131 HD
HETATM   21  H11 UNL     1      27.332   7.650  50.132  1.00  0.00     0.131 HD
ENDBRANCH  18  19
ENDBRANCH   3  18
BRANCH   1  22
HETATM   22  C2  UNL     1      27.425   4.408  48.934  1.00  0.00    -0.001 C 
HETATM   23  C1  UNL     1      26.633   3.488  49.463  1.00  0.00     0.012 C 
ENDBRANCH   1  22
BRANCH   8  24
HETATM   24  O1  UNL     1      29.159   6.838  49.062  1.00  0.00    -0.387 OA
HETATM   25  H16 UNL     1      29.942   7.313  48.704  1.00  0.00     0.210 HD
ENDBRANCH   8  24
TORSDOF 6
ENDMDL
MODEL 9
REMARK VINA RESULT:      -6.8      2.308      3.133
REMARK  6 active torsions:
REMARK  status: ('A' for Active; 'I' for Inactive)
REMARK    1  A    between atoms: C2_2  and  C3_3 
REMARK    2  A    between atoms: C5_5  and  N1_6 
REMARK    3  A    between atoms: C5_5  and  S1_14 
REMARK    4  A    between atoms: N1_6  and  C6_7 
REMARK    5  A    between atoms: S1_14  and  N2_15 
REMARK    6  A    between atoms: C15_20  and  O1_21 
ROOT
HETATM    1  C3  UNL     1      33.527   3.548  47.196  1.00  0.00    -0.027 C 
HETATM    2  C4  UNL     1      32.973   4.525  47.895  1.00  0.00     0.032 C 
HETATM    3  C5  UNL     1      32.980   5.990  47.850  1.00  0.00     0.147 C 
HETATM    4  C12 UNL     1      32.661   6.601  46.570  1.00  0.00     0.137 C 
HETATM    5  N3  UNL     1      33.069   6.454  45.346  1.00  0.00    -0.274 NA
HETATM    6  C13 UNL     1      34.017   5.626  44.710  1.00  0.00     0.115 C 
HETATM    7  C14 UNL     1      34.479   4.435  45.054  1.00  0.00     0.028 C 
HETATM    8  C15 UNL     1      34.406   3.365  46.048  1.00  0.00     0.175 C 
ENDROOT
BRANCH   3   9
HETATM    9  N1  UNL     1      32.000   6.457  48.816  1.00  0.00    -0.363 N 
HETATM   10  H5  UNL     1      32.284   6.740  49.799  1.00  0.00     0.162 HD
BRANCH   9  11
HETATM   11  C6  UNL     1      30.607   6.597  48.603  1.00  0.00     0.031 A 
HETATM   12  C7  UNL     1      29.714   5.542  48.377  1.00  0.00     0.029 A 
HETATM   13  C8  UNL     1      28.381   5.771  48.177  1.00  0.00     0.004 A 
HETATM   14  C9  UNL     1      27.825   7.031  48.183  1.00  0.00     0.024 A 
HETATM   15  C10 UNL     1      28.690   8.080  48.402  1.00  0.00     0.036 A 
HETATM   16 CL1  UNL     1      27.955   9.679  48.404  1.00  0.00    -0.084 Cl
HETATM   17  C11 UNL     1      30.033   7.848  48.604  1.00  0.00     0.053 A 
ENDBRANCH   9  11
ENDBRANCH   3   9
BRANCH   3  18
HETATM   18  S1  UNL     1      34.568   6.711  48.403  1.00  0.00    -0.045 SA
BRANCH  18  19
HETATM   19  N2  UNL     1      35.165   7.941  47.329  1.00  0.00    -0.275 NA
HETATM   20  H10 UNL     1      34.572   8.802  47.495  1.00  0.00     0.131 HD
HETATM   21  H11 UNL     1      34.989   7.650  46.329  1.00  0.00     0.131 HD
ENDBRANCH  18  19
ENDBRANCH   3  18
BRANCH   1  22
HETATM   22  C2  UNL     1      33.147   2.215  47.727  1.00  0.00    -0.001 C 
HETATM   23  C1  UNL     1      32.516   1.248  47.078  1.00  0.00     0.012 C 
ENDBRANCH   1  22
BRANCH   8  24
HETATM   24  O1  UNL     1      35.705   2.988  46.389  1.00  0.00    -0.387 OA
HETATM   25  H16 UNL     1      36.380   3.627  46.070  1.00  0.00     0.210 HD
ENDBRANCH   8  24
TORSDOF 6
ENDMDL
