MODEL 1
REMARK VINA RESULT:      -7.5      0.000      0.000
REMARK  7 active torsions:
REMARK  status: ('A' for Active; 'I' for Inactive)
REMARK    1  A    between atoms: C2_2  and  C3_3 
REMARK    2  A    between atoms: N2_13  and  C11_14 
REMARK    3  A    between atoms: C11_14  and  C12_15 
REMARK    4  A    between atoms: C12_15  and  N3_16 
REMARK    5  A    between atoms: N3_16  and  C14_18 
REMARK    6  A    between atoms: C14_18  and  C15_19 
REMARK    7  A    between atoms: C19_26  and  N6_27 
ROOT
HETATM    1  C15 UNL     1      26.968  -0.309  52.934  1.00  0.00    -0.002 C 
HETATM    2  C16 UNL     1      27.168  -1.771  52.789  1.00  0.00     0.049 C 
HETATM    3  C17 UNL     1      27.614   0.046  54.026  1.00  0.00     0.225 C 
HETATM    4  O2  UNL     1      28.133   0.531  55.036  1.00  0.00    -0.284 OA
ENDROOT
BRANCH   1   5
HETATM    5  C14 UNL     1      26.256   0.751  52.187  1.00  0.00     0.310 C 
BRANCH   5   6
HETATM    6  N3  UNL     1      25.150   1.338  52.917  1.00  0.00     0.089 N 
HETATM    7  C13 UNL     1      24.045   0.418  52.969  1.00  0.00     0.310 C 
BRANCH   6   8
HETATM    8  C12 UNL     1      24.791   2.535  52.192  1.00  0.00     0.295 C 
BRANCH   8   9
HETATM    9  C11 UNL     1      25.072   2.512  50.738  1.00  0.00     0.202 C 
BRANCH   9  10
HETATM   10  N2  UNL     1      24.563   3.730  50.068  1.00  0.00    -0.205 N 
HETATM   11  N1  UNL     1      23.541   3.440  49.184  1.00  0.00    -0.161 NA
HETATM   12  C10 UNL     1      22.666   2.516  49.155  1.00  0.00     0.060 C 
HETATM   13  C9  UNL     1      21.735   2.621  47.957  1.00  0.00     0.091 C 
HETATM   14  C22 UNL     1      22.028   1.290  49.732  1.00  0.00     0.032 C 
HETATM   15  C8  UNL     1      20.382   2.240  48.499  1.00  0.00     0.016 C 
HETATM   16  C7  UNL     1      19.789   2.590  49.619  1.00  0.00     0.071 C 
HETATM   17  O1  UNL     1      18.970   3.071  50.710  1.00  0.00    -0.323 OA
HETATM   18  C23 UNL     1      20.971   1.903  50.228  1.00  0.00     0.039 C 
HETATM   19  C6  UNL     1      19.756   3.314  51.904  1.00  0.00     0.142 C 
HETATM   20  C5  UNL     1      20.795   4.080  51.534  1.00  0.00     0.025 C 
HETATM   21  C4  UNL     1      21.983   4.896  51.345  1.00  0.00     0.011 C 
HETATM   22  C3  UNL     1      22.661   5.592  50.487  1.00  0.00    -0.030 C 
HETATM   23  C21 UNL     1      23.982   5.876  51.026  1.00  0.00     0.170 A 
HETATM   24  N4  UNL     1      24.970   5.105  50.195  1.00  0.00    -0.255 N 
HETATM   25  C20 UNL     1      24.335   7.281  50.933  1.00  0.00     0.055 A 
HETATM   26  C18 UNL     1      26.130   5.584  49.529  1.00  0.00     0.231 A 
HETATM   27  N5  UNL     1      26.288   6.872  49.594  1.00  0.00    -0.226 NA
HETATM   28  C19 UNL     1      25.384   7.685  50.284  1.00  0.00     0.121 A 
BRANCH  22  29
HETATM   29  C2  UNL     1      22.448   5.919  49.109  1.00  0.00    -0.001 C 
HETATM   30  C1  UNL     1      21.342   6.279  48.513  1.00  0.00     0.012 C 
ENDBRANCH  22  29
BRANCH  28  31
HETATM   31  N6  UNL     1      25.605   9.107  50.298  1.00  0.00    -0.384 N 
HETATM   32  H23 UNL     1      24.961   9.789  50.750  1.00  0.00     0.157 HD
HETATM   33  H24 UNL     1      26.416   9.612  49.870  1.00  0.00     0.157 HD
ENDBRANCH  28  31
ENDBRANCH   9  10
ENDBRANCH   8   9
ENDBRANCH   6   8
ENDBRANCH   5   6
ENDBRANCH   1   5
TORSDOF 7
ENDMDL
MODEL 2
REMARK VINA RESULT:      -7.2      3.129      6.158
REMARK  7 active torsions:
REMARK  status: ('A' for Active; 'I' for Inactive)
REMARK    1  A    between atoms: C2_2  and  C3_3 
REMARK    2  A    between atoms: N2_13  and  C11_14 
REMARK    3  A    between atoms: C11_14  and  C12_15 
REMARK    4  A    between atoms: C12_15  and  N3_16 
REMARK    5  A    between atoms: N3_16  and  C14_18 
REMARK    6  A    between atoms: C14_18  and  C15_19 
REMARK    7  A    between atoms: C19_26  and  N6_27 
ROOT
HETATM    1  C15 UNL     1      18.012   1.779  51.286  1.00  0.00    -0.002 C 
HETATM    2  C16 UNL     1      17.309   3.038  50.936  1.00  0.00     0.049 C 
HETATM    3  C17 UNL     1      17.593   0.871  50.429  1.00  0.00     0.225 C 
HETATM    4  O2  UNL     1      17.276  -0.098  49.732  1.00  0.00    -0.284 OA
ENDROOT
BRANCH   1   5
HETATM    5  C14 UNL     1      18.994   1.353  52.307  1.00  0.00     0.310 C 
BRANCH   5   6
HETATM    6  N3  UNL     1      19.409  -0.029  52.177  1.00  0.00     0.089 N 
HETATM    7  C13 UNL     1      18.802  -0.829  53.208  1.00  0.00     0.310 C 
BRANCH   6   8
HETATM    8  C12 UNL     1      20.849  -0.022  52.310  1.00  0.00     0.295 C 
BRANCH   8   9
HETATM    9  C11 UNL     1      21.455   1.289  52.635  1.00  0.00     0.202 C 
BRANCH   9  10
HETATM   10  N2  UNL     1      22.876   1.346  52.224  1.00  0.00    -0.205 N 
HETATM   11  N1  UNL     1      23.010   1.662  50.885  1.00  0.00    -0.161 NA
HETATM   12  C10 UNL     1      22.287   2.338  50.085  1.00  0.00     0.060 C 
HETATM   13  C9  UNL     1      22.867   2.409  48.680  1.00  0.00     0.091 C 
HETATM   14  C22 UNL     1      21.074   3.163  49.787  1.00  0.00     0.032 C 
HETATM   15  C8  UNL     1      22.581   3.817  48.228  1.00  0.00     0.016 C 
HETATM   16  C7  UNL     1      22.706   4.956  48.872  1.00  0.00     0.071 C 
HETATM   17  O1  UNL     1      23.001   6.265  49.412  1.00  0.00    -0.323 OA
HETATM   18  C23 UNL     1      21.695   4.327  49.777  1.00  0.00     0.039 C 
HETATM   19  C6  UNL     1      22.777   6.319  50.843  1.00  0.00     0.142 C 
HETATM   20  C5  UNL     1      23.432   5.275  51.376  1.00  0.00     0.025 C 
HETATM   21  C4  UNL     1      24.061   4.215  52.147  1.00  0.00     0.011 C 
HETATM   22  C3  UNL     1      24.842   3.183  52.084  1.00  0.00    -0.030 C 
HETATM   23  C21 UNL     1      24.746   2.423  53.321  1.00  0.00     0.170 A 
HETATM   24  N4  UNL     1      24.078   1.119  52.983  1.00  0.00    -0.255 N 
HETATM   25  C20 UNL     1      26.046   2.114  53.890  1.00  0.00     0.055 A 
HETATM   26  C18 UNL     1      24.522  -0.202  53.265  1.00  0.00     0.231 A 
HETATM   27  N5  UNL     1      25.698  -0.263  53.811  1.00  0.00    -0.226 NA
HETATM   28  C19 UNL     1      26.431   0.892  54.099  1.00  0.00     0.121 A 
BRANCH  22  29
HETATM   29  C2  UNL     1      25.562   2.569  51.008  1.00  0.00    -0.001 C 
HETATM   30  C1  UNL     1      26.281   3.133  50.075  1.00  0.00     0.012 C 
ENDBRANCH  22  29
BRANCH  28  31
HETATM   31  N6  UNL     1      27.739   0.753  54.684  1.00  0.00    -0.384 N 
HETATM   32  H23 UNL     1      28.391  -0.028  54.466  1.00  0.00     0.157 HD
HETATM   33  H24 UNL     1      28.178   1.403  55.378  1.00  0.00     0.157 HD
ENDBRANCH  28  31
ENDBRANCH   9  10
ENDBRANCH   8   9
ENDBRANCH   6   8
ENDBRANCH   5   6
ENDBRANCH   1   5
TORSDOF 7
ENDMDL
MODEL 3
REMARK VINA RESULT:      -7.1      3.423      5.981
REMARK  7 active torsions:
REMARK  status: ('A' for Active; 'I' for Inactive)
REMARK    1  A    between atoms: C2_2  and  C3_3 
REMARK    2  A    between atoms: N2_13  and  C11_14 
REMARK    3  A    between atoms: C11_14  and  C12_15 
REMARK    4  A    between atoms: C12_15  and  N3_16 
REMARK    5  A    between atoms: N3_16  and  C14_18 
REMARK    6  A    between atoms: C14_18  and  C15_19 
REMARK    7  A    between atoms: C19_26  and  N6_27 
ROOT
HETATM    1  C15 UNL     1      17.515   3.681  51.221  1.00  0.00    -0.002 C 
HETATM    2  C16 UNL     1      17.033   3.963  49.848  1.00  0.00     0.049 C 
HETATM    3  C17 UNL     1      16.587   4.133  52.040  1.00  0.00     0.225 C 
HETATM    4  O2  UNL     1      15.837   4.535  52.934  1.00  0.00    -0.284 OA
ENDROOT
BRANCH   1   5
HETATM    5  C14 UNL     1      18.715   3.060  51.825  1.00  0.00     0.310 C 
BRANCH   5   6
HETATM    6  N3  UNL     1      18.981   1.718  51.346  1.00  0.00     0.089 N 
HETATM    7  C13 UNL     1      17.885   0.847  51.677  1.00  0.00     0.310 C 
BRANCH   6   8
HETATM    8  C12 UNL     1      20.194   1.298  52.010  1.00  0.00     0.295 C 
BRANCH   8   9
HETATM    9  C11 UNL     1      21.118   0.475  51.196  1.00  0.00     0.202 C 
BRANCH   9  10
HETATM   10  N2  UNL     1      22.424   1.147  51.014  1.00  0.00    -0.205 N 
HETATM   11  N1  UNL     1      22.608   1.566  49.709  1.00  0.00    -0.161 NA
HETATM   12  C10 UNL     1      21.793   1.919  48.798  1.00  0.00     0.060 C 
HETATM   13  C9  UNL     1      22.489   2.307  47.502  1.00  0.00     0.091 C 
HETATM   14  C22 UNL     1      20.403   2.174  48.303  1.00  0.00     0.032 C 
HETATM   15  C8  UNL     1      21.704   3.488  46.993  1.00  0.00     0.016 C 
HETATM   16  C7  UNL     1      21.238   4.535  47.636  1.00  0.00     0.071 C 
HETATM   17  O1  UNL     1      20.867   5.815  48.201  1.00  0.00    -0.323 OA
HETATM   18  C23 UNL     1      20.467   3.490  48.378  1.00  0.00     0.039 C 
HETATM   19  C6  UNL     1      20.432   5.688  49.578  1.00  0.00     0.142 C 
HETATM   20  C5  UNL     1      21.381   4.988  50.220  1.00  0.00     0.025 C 
HETATM   21  C4  UNL     1      22.278   4.249  51.093  1.00  0.00     0.011 C 
HETATM   22  C3  UNL     1      23.423   3.646  51.165  1.00  0.00    -0.030 C 
HETATM   23  C21 UNL     1      23.477   2.846  52.380  1.00  0.00     0.170 A 
HETATM   24  N4  UNL     1      23.482   1.404  51.956  1.00  0.00    -0.255 N 
HETATM   25  C20 UNL     1      24.685   3.081  53.151  1.00  0.00     0.055 A 
HETATM   26  C18 UNL     1      24.397   0.378  52.319  1.00  0.00     0.231 A 
HETATM   27  N5  UNL     1      25.394   0.786  53.045  1.00  0.00    -0.226 NA
HETATM   28  C19 UNL     1      25.516   2.124  53.432  1.00  0.00     0.121 A 
BRANCH  22  29
HETATM   29  C2  UNL     1      24.485   3.453  50.224  1.00  0.00    -0.001 C 
HETATM   30  C1  UNL     1      25.306   4.336  49.721  1.00  0.00     0.012 C 
ENDBRANCH  22  29
BRANCH  28  31
HETATM   31  N6  UNL     1      26.657   2.515  54.218  1.00  0.00    -0.384 N 
HETATM   32  H23 UNL     1      27.639   2.466  53.877  1.00  0.00     0.157 HD
HETATM   33  H24 UNL     1      26.636   2.886  55.197  1.00  0.00     0.157 HD
ENDBRANCH  28  31
ENDBRANCH   9  10
ENDBRANCH   8   9
ENDBRANCH   6   8
ENDBRANCH   5   6
ENDBRANCH   1   5
TORSDOF 7
ENDMDL
MODEL 4
REMARK VINA RESULT:      -7.1      2.470      5.886
REMARK  7 active torsions:
REMARK  status: ('A' for Active; 'I' for Inactive)
REMARK    1  A    between atoms: C2_2  and  C3_3 
REMARK    2  A    between atoms: N2_13  and  C11_14 
REMARK    3  A    between atoms: C11_14  and  C12_15 
REMARK    4  A    between atoms: C12_15  and  N3_16 
REMARK    5  A    between atoms: N3_16  and  C14_18 
REMARK    6  A    between atoms: C14_18  and  C15_19 
REMARK    7  A    between atoms: C19_26  and  N6_27 
ROOT
HETATM    1  C15 UNL     1      26.484   7.407  49.262  1.00  0.00    -0.002 C 
HETATM    2  C16 UNL     1      27.666   7.002  48.464  1.00  0.00     0.049 C 
HETATM    3  C17 UNL     1      26.798   8.553  49.832  1.00  0.00     0.225 C 
HETATM    4  O2  UNL     1      26.949   9.602  50.466  1.00  0.00    -0.284 OA
ENDROOT
BRANCH   1   5
HETATM    5  C14 UNL     1      25.142   6.850  49.541  1.00  0.00     0.310 C 
BRANCH   5   6
HETATM    6  N3  UNL     1      25.000   5.456  49.172  1.00  0.00     0.089 N 
HETATM    7  C13 UNL     1      23.692   5.219  48.621  1.00  0.00     0.310 C 
BRANCH   6   8
HETATM    8  C12 UNL     1      25.190   4.705  50.393  1.00  0.00     0.295 C 
BRANCH   8   9
HETATM    9  C11 UNL     1      24.178   4.934  51.449  1.00  0.00     0.202 C 
BRANCH   9  10
HETATM   10  N2  UNL     1      23.873   3.687  52.187  1.00  0.00    -0.205 N 
HETATM   11  N1  UNL     1      22.522   3.567  52.457  1.00  0.00    -0.161 NA
HETATM   12  C10 UNL     1      21.485   3.996  51.856  1.00  0.00     0.060 C 
HETATM   13  C9  UNL     1      20.193   3.595  52.551  1.00  0.00     0.091 C 
HETATM   14  C22 UNL     1      20.828   4.740  50.736  1.00  0.00     0.032 C 
HETATM   15  C8  UNL     1      19.246   3.272  51.424  1.00  0.00     0.016 C 
HETATM   16  C7  UNL     1      19.446   2.588  50.320  1.00  0.00     0.071 C 
HETATM   17  O1  UNL     1      19.498   1.687  49.189  1.00  0.00    -0.323 OA
HETATM   18  C23 UNL     1      20.444   3.672  50.064  1.00  0.00     0.039 C 
HETATM   19  C6  UNL     1      20.796   1.713  48.542  1.00  0.00     0.142 C 
HETATM   20  C5  UNL     1      21.712   1.537  49.508  1.00  0.00     0.025 C 
HETATM   21  C4  UNL     1      22.854   1.367  50.391  1.00  0.00     0.011 C 
HETATM   22  C3  UNL     1      23.219   1.137  51.613  1.00  0.00    -0.030 C 
HETATM   23  C21 UNL     1      24.637   1.430  51.761  1.00  0.00     0.170 A 
HETATM   24  N4  UNL     1      24.745   2.638  52.649  1.00  0.00    -0.255 N 
HETATM   25  C20 UNL     1      25.368   0.351  52.401  1.00  0.00     0.055 A 
HETATM   26  C18 UNL     1      25.512   2.800  53.834  1.00  0.00     0.231 A 
HETATM   27  N5  UNL     1      26.123   1.723  54.224  1.00  0.00    -0.226 NA
HETATM   28  C19 UNL     1      26.028   0.527  53.505  1.00  0.00     0.121 A 
BRANCH  22  29
HETATM   29  C2  UNL     1      22.489   0.881  52.819  1.00  0.00    -0.001 C 
HETATM   30  C1  UNL     1      21.443   0.119  52.998  1.00  0.00     0.012 C 
ENDBRANCH  22  29
BRANCH  28  31
HETATM   31  N6  UNL     1      26.713  -0.636  54.003  1.00  0.00    -0.384 N 
HETATM   32  H23 UNL     1      27.334  -0.629  54.838  1.00  0.00     0.157 HD
HETATM   33  H24 UNL     1      26.669  -1.601  53.597  1.00  0.00     0.157 HD
ENDBRANCH  28  31
ENDBRANCH   9  10
ENDBRANCH   8   9
ENDBRANCH   6   8
ENDBRANCH   5   6
ENDBRANCH   1   5
TORSDOF 7
ENDMDL
MODEL 5
REMARK VINA RESULT:      -6.9      6.746     10.522
REMARK  7 active torsions:
REMARK  status: ('A' for Active; 'I' for Inactive)
REMARK    1  A    between atoms: C2_2  and  C3_3 
REMARK    2  A    between atoms: N2_13  and  C11_14 
REMARK    3  A    between atoms: C11_14  and  C12_15 
REMARK    4  A    between atoms: C12_15  and  N3_16 
REMARK    5  A    between atoms: N3_16  and  C14_18 
REMARK    6  A    between atoms: C14_18  and  C15_19 
REMARK    7  A    between atoms: C19_26  and  N6_27 
ROOT
HETATM    1  C15 UNL     1      25.581   6.250  49.314  1.00  0.00    -0.002 C 
HETATM    2  C16 UNL     1      25.284   7.048  50.527  1.00  0.00     0.049 C 
HETATM    3  C17 UNL     1      24.417   5.942  48.779  1.00  0.00     0.225 C 
HETATM    4  O2  UNL     1      23.417   5.540  48.178  1.00  0.00    -0.284 OA
ENDROOT
BRANCH   1   5
HETATM    5  C14 UNL     1      26.798   5.758  48.631  1.00  0.00     0.310 C 
BRANCH   5   6
HETATM    6  N3  UNL     1      27.838   6.759  48.498  1.00  0.00     0.089 N 
HETATM    7  C13 UNL     1      27.362   7.868  47.715  1.00  0.00     0.310 C 
BRANCH   6   8
HETATM    8  C12 UNL     1      28.940   6.096  47.838  1.00  0.00     0.295 C 
BRANCH   8   9
HETATM    9  C11 UNL     1      30.135   5.849  48.677  1.00  0.00     0.202 C 
BRANCH   9  10
HETATM   10  N2  UNL     1      31.159   6.900  48.484  1.00  0.00    -0.205 N 
HETATM   11  N1  UNL     1      32.440   6.382  48.529  1.00  0.00    -0.161 NA
HETATM   12  C10 UNL     1      32.915   5.237  48.239  1.00  0.00     0.060 C 
HETATM   13  C9  UNL     1      34.418   5.149  48.455  1.00  0.00     0.091 C 
HETATM   14  C22 UNL     1      32.750   3.829  47.756  1.00  0.00     0.032 C 
HETATM   15  C8  UNL     1      34.914   4.319  47.299  1.00  0.00     0.016 C 
HETATM   16  C7  UNL     1      34.601   4.370  46.024  1.00  0.00     0.071 C 
HETATM   17  O1  UNL     1      34.485   4.477  44.586  1.00  0.00    -0.323 OA
HETATM   18  C23 UNL     1      33.240   4.037  46.549  1.00  0.00     0.039 C 
HETATM   19  C6  UNL     1      33.143   4.851  44.181  1.00  0.00     0.142 C 
HETATM   20  C5  UNL     1      32.808   5.930  44.905  1.00  0.00     0.025 C 
HETATM   21  C4  UNL     1      32.251   7.089  45.583  1.00  0.00     0.011 C 
HETATM   22  C3  UNL     1      32.496   8.033  46.437  1.00  0.00    -0.030 C 
HETATM   23  C21 UNL     1      31.248   8.668  46.833  1.00  0.00     0.170 A 
HETATM   24  N4  UNL     1      31.016   8.317  48.276  1.00  0.00    -0.255 N 
HETATM   25  C20 UNL     1      31.301  10.115  46.737  1.00  0.00     0.055 A 
HETATM   26  C18 UNL     1      30.755   9.189  49.368  1.00  0.00     0.231 A 
HETATM   27  N5  UNL     1      30.814  10.451  49.067  1.00  0.00    -0.226 NA
HETATM   28  C19 UNL     1      31.094  10.880  47.766  1.00  0.00     0.121 A 
BRANCH  22  29
HETATM   29  C2  UNL     1      33.663   8.393  47.185  1.00  0.00    -0.001 C 
HETATM   30  C1  UNL     1      34.817   8.821  46.748  1.00  0.00     0.012 C 
ENDBRANCH  22  29
BRANCH  28  31
HETATM   31  N6  UNL     1      31.166  12.293  47.504  1.00  0.00    -0.384 N 
HETATM   32  H23 UNL     1      31.984  12.759  47.059  1.00  0.00     0.157 HD
HETATM   33  H24 UNL     1      30.426  13.002  47.722  1.00  0.00     0.157 HD
ENDBRANCH  28  31
ENDBRANCH   9  10
ENDBRANCH   8   9
ENDBRANCH   6   8
ENDBRANCH   5   6
ENDBRANCH   1   5
TORSDOF 7
ENDMDL
MODEL 6
REMARK VINA RESULT:      -6.9      2.281      5.897
REMARK  7 active torsions:
REMARK  status: ('A' for Active; 'I' for Inactive)
REMARK    1  A    between atoms: C2_2  and  C3_3 
REMARK    2  A    between atoms: N2_13  and  C11_14 
REMARK    3  A    between atoms: C11_14  and  C12_15 
REMARK    4  A    between atoms: C12_15  and  N3_16 
REMARK    5  A    between atoms: N3_16  and  C14_18 
REMARK    6  A    between atoms: C14_18  and  C15_19 
REMARK    7  A    between atoms: C19_26  and  N6_27 
ROOT
HETATM    1  C15 UNL     1      18.217   2.971  49.835  1.00  0.00    -0.002 C 
HETATM    2  C16 UNL     1      18.185   4.227  50.623  1.00  0.00     0.049 C 
HETATM    3  C17 UNL     1      17.459   2.109  50.481  1.00  0.00     0.225 C 
HETATM    4  O2  UNL     1      16.820   1.179  50.982  1.00  0.00    -0.284 OA
ENDROOT
BRANCH   1   5
HETATM    5  C14 UNL     1      18.864   2.510  48.587  1.00  0.00     0.310 C 
BRANCH   5   6
HETATM    6  N3  UNL     1      20.044   3.271  48.225  1.00  0.00     0.089 N 
HETATM    7  C13 UNL     1      19.719   4.235  47.207  1.00  0.00     0.310 C 
BRANCH   6   8
HETATM    8  C12 UNL     1      21.000   2.304  47.735  1.00  0.00     0.295 C 
BRANCH   8   9
HETATM    9  C11 UNL     1      21.853   1.668  48.765  1.00  0.00     0.202 C 
BRANCH   9  10
HETATM   10  N2  UNL     1      22.353   2.660  49.743  1.00  0.00    -0.205 N 
HETATM   11  N1  UNL     1      21.639   2.619  50.926  1.00  0.00    -0.161 NA
HETATM   12  C10 UNL     1      21.013   1.683  51.519  1.00  0.00     0.060 C 
HETATM   13  C9  UNL     1      20.375   2.134  52.824  1.00  0.00     0.091 C 
HETATM   14  C22 UNL     1      20.547   0.263  51.608  1.00  0.00     0.032 C 
HETATM   15  C8  UNL     1      20.573   0.970  53.760  1.00  0.00     0.016 C 
HETATM   16  C7  UNL     1      21.631   0.216  53.962  1.00  0.00     0.071 C 
HETATM   17  O1  UNL     1      22.787  -0.531  54.407  1.00  0.00    -0.323 OA
HETATM   18  C23 UNL     1      21.424  -0.115  52.518  1.00  0.00     0.039 C 
HETATM   19  C6  UNL     1      23.694  -0.819  53.313  1.00  0.00     0.142 C 
HETATM   20  C5  UNL     1      23.921   0.344  52.683  1.00  0.00     0.025 C 
HETATM   21  C4  UNL     1      24.294   1.485  51.863  1.00  0.00     0.011 C 
HETATM   22  C3  UNL     1      24.178   2.768  51.722  1.00  0.00    -0.030 C 
HETATM   23  C21 UNL     1      24.631   3.156  50.395  1.00  0.00     0.170 A 
HETATM   24  N4  UNL     1      23.419   3.622  49.637  1.00  0.00    -0.255 N 
HETATM   25  C20 UNL     1      25.578   4.256  50.426  1.00  0.00     0.055 A 
HETATM   26  C18 UNL     1      23.228   4.847  48.942  1.00  0.00     0.231 A 
HETATM   27  N5  UNL     1      24.209   5.688  49.063  1.00  0.00    -0.226 NA
HETATM   28  C19 UNL     1      25.351   5.375  49.808  1.00  0.00     0.121 A 
BRANCH  22  29
HETATM   29  C2  UNL     1      23.520   3.779  52.495  1.00  0.00    -0.001 C 
HETATM   30  C1  UNL     1      24.002   4.518  53.458  1.00  0.00     0.012 C 
ENDBRANCH  22  29
BRANCH  28  31
HETATM   31  N6  UNL     1      26.394   6.360  49.921  1.00  0.00    -0.384 N 
HETATM   32  H23 UNL     1      26.504   7.165  49.270  1.00  0.00     0.157 HD
HETATM   33  H24 UNL     1      27.145   6.385  50.651  1.00  0.00     0.157 HD
ENDBRANCH  28  31
ENDBRANCH   9  10
ENDBRANCH   8   9
ENDBRANCH   6   8
ENDBRANCH   5   6
ENDBRANCH   1   5
TORSDOF 7
ENDMDL
MODEL 7
REMARK VINA RESULT:      -6.8      6.193     10.033
REMARK  7 active torsions:
REMARK  status: ('A' for Active; 'I' for Inactive)
REMARK    1  A    between atoms: C2_2  and  C3_3 
REMARK    2  A    between atoms: N2_13  and  C11_14 
REMARK    3  A    between atoms: C11_14  and  C12_15 
REMARK    4  A    between atoms: C12_15  and  N3_16 
REMARK    5  A    between atoms: N3_16  and  C14_18 
REMARK    6  A    between atoms: C14_18  and  C15_19 
REMARK    7  A    between atoms: C19_26  and  N6_27 
ROOT
HETATM    1  C15 UNL     1      26.638   5.660  48.934  1.00  0.00    -0.002 C 
HETATM    2  C16 UNL     1      27.755   4.742  48.606  1.00  0.00     0.049 C 
HETATM    3  C17 UNL     1      25.748   4.941  49.587  1.00  0.00     0.225 C 
HETATM    4  O2  UNL     1      24.804   4.402  50.173  1.00  0.00    -0.284 OA
ENDROOT
BRANCH   1   5
HETATM    5  C14 UNL     1      26.326   7.088  48.704  1.00  0.00     0.310 C 
BRANCH   5   6
HETATM    6  N3  UNL     1      26.338   7.890  49.911  1.00  0.00     0.089 N 
HETATM    7  C13 UNL     1      25.049   8.496  50.117  1.00  0.00     0.310 C 
BRANCH   6   8
HETATM    8  C12 UNL     1      27.355   8.896  49.705  1.00  0.00     0.295 C 
BRANCH   8   9
HETATM    9  C11 UNL     1      28.032   8.862  48.388  1.00  0.00     0.202 C 
BRANCH   9  10
HETATM   10  N2  UNL     1      29.110   9.873  48.307  1.00  0.00    -0.205 N 
HETATM   11  N1  UNL     1      30.337   9.345  48.666  1.00  0.00    -0.161 NA
HETATM   12  C10 UNL     1      30.820   8.170  48.595  1.00  0.00     0.060 C 
HETATM   13  C9  UNL     1      32.244   8.084  49.123  1.00  0.00     0.091 C 
HETATM   14  C22 UNL     1      30.708   6.722  48.231  1.00  0.00     0.032 C 
HETATM   15  C8  UNL     1      32.936   7.132  48.182  1.00  0.00     0.016 C 
HETATM   16  C7  UNL     1      32.890   7.053  46.871  1.00  0.00     0.071 C 
HETATM   17  O1  UNL     1      33.073   7.011  45.437  1.00  0.00    -0.323 OA
HETATM   18  C23 UNL     1      31.440   6.796  47.136  1.00  0.00     0.039 C 
HETATM   19  C6  UNL     1      31.855   7.359  44.730  1.00  0.00     0.142 C 
HETATM   20  C5  UNL     1      31.418   8.513  45.258  1.00  0.00     0.025 C 
HETATM   21  C4  UNL     1      30.775   9.744  45.688  1.00  0.00     0.011 C 
HETATM   22  C3  UNL     1      30.874  10.768  46.476  1.00  0.00    -0.030 C 
HETATM   23  C21 UNL     1      29.594  11.458  46.542  1.00  0.00     0.170 A 
HETATM   24  N4  UNL     1      29.062  11.263  47.934  1.00  0.00    -0.255 N 
HETATM   25  C20 UNL     1      29.716  12.887  46.316  1.00  0.00     0.055 A 
HETATM   26  C18 UNL     1      28.615  12.248  48.857  1.00  0.00     0.231 A 
HETATM   27  N5  UNL     1      28.778  13.471  48.451  1.00  0.00    -0.226 NA
HETATM   28  C19 UNL     1      29.331  13.757  47.199  1.00  0.00     0.121 A 
BRANCH  22  29
HETATM   29  C2  UNL     1      31.876  11.188  47.409  1.00  0.00    -0.001 C 
HETATM   30  C1  UNL     1      33.170  11.263  47.244  1.00  0.00     0.012 C 
ENDBRANCH  22  29
BRANCH  28  31
HETATM   31  N6  UNL     1      29.504  15.134  46.818  1.00  0.00    -0.384 N 
HETATM   32  H23 UNL     1      30.359  15.504  46.354  1.00  0.00     0.157 HD
HETATM   33  H24 UNL     1      28.811  15.907  46.958  1.00  0.00     0.157 HD
ENDBRANCH  28  31
ENDBRANCH   9  10
ENDBRANCH   8   9
ENDBRANCH   6   8
ENDBRANCH   5   6
ENDBRANCH   1   5
TORSDOF 7
ENDMDL
MODEL 8
REMARK VINA RESULT:      -6.7      2.689      5.902
REMARK  7 active torsions:
REMARK  status: ('A' for Active; 'I' for Inactive)
REMARK    1  A    between atoms: C2_2  and  C3_3 
REMARK    2  A    between atoms: N2_13  and  C11_14 
REMARK    3  A    between atoms: C11_14  and  C12_15 
REMARK    4  A    between atoms: C12_15  and  N3_16 
REMARK    5  A    between atoms: N3_16  and  C14_18 
REMARK    6  A    between atoms: C14_18  and  C15_19 
REMARK    7  A    between atoms: C19_26  and  N6_27 
ROOT
HETATM    1  C15 UNL     1      21.042   4.899  46.266  1.00  0.00    -0.002 C 
HETATM    2  C16 UNL     1      21.834   3.977  45.417  1.00  0.00     0.049 C 
HETATM    3  C17 UNL     1      20.040   4.191  46.746  1.00  0.00     0.225 C 
HETATM    4  O2  UNL     1      19.032   3.682  47.245  1.00  0.00    -0.284 OA
ENDROOT
BRANCH   1   5
HETATM    5  C14 UNL     1      21.119   6.325  46.655  1.00  0.00     0.310 C 
BRANCH   5   6
HETATM    6  N3  UNL     1      20.348   6.650  47.838  1.00  0.00     0.089 N 
HETATM    7  C13 UNL     1      19.336   7.622  47.519  1.00  0.00     0.310 C 
BRANCH   6   8
HETATM    8  C12 UNL     1      21.295   7.184  48.790  1.00  0.00     0.295 C 
BRANCH   8   9
HETATM    9  C11 UNL     1      21.279   6.556  50.131  1.00  0.00     0.202 C 
BRANCH   9  10
HETATM   10  N2  UNL     1      22.593   5.963  50.468  1.00  0.00    -0.205 N 
HETATM   11  N1  UNL     1      22.466   4.892  51.333  1.00  0.00    -0.161 NA
HETATM   12  C10 UNL     1      21.533   4.048  51.523  1.00  0.00     0.060 C 
HETATM   13  C9  UNL     1      21.867   3.032  52.605  1.00  0.00     0.091 C 
HETATM   14  C22 UNL     1      20.179   3.491  51.209  1.00  0.00     0.032 C 
HETATM   15  C8  UNL     1      21.308   1.733  52.086  1.00  0.00     0.016 C 
HETATM   16  C7  UNL     1      21.362   1.208  50.882  1.00  0.00     0.071 C 
HETATM   17  O1  UNL     1      21.541   0.452  49.661  1.00  0.00    -0.323 OA
HETATM   18  C23 UNL     1      20.611   2.451  50.522  1.00  0.00     0.039 C 
HETATM   19  C6  UNL     1      21.540   1.312  48.493  1.00  0.00     0.142 C 
HETATM   20  C5  UNL     1      22.418   2.297  48.737  1.00  0.00     0.025 C 
HETATM   21  C4  UNL     1      23.311   3.442  48.803  1.00  0.00     0.011 C 
HETATM   22  C3  UNL     1      24.217   4.036  49.514  1.00  0.00    -0.030 C 
HETATM   23  C21 UNL     1      24.432   5.382  49.004  1.00  0.00     0.170 A 
HETATM   24  N4  UNL     1      23.920   6.334  50.050  1.00  0.00    -0.255 N 
HETATM   25  C20 UNL     1      25.836   5.682  48.790  1.00  0.00     0.055 A 
HETATM   26  C18 UNL     1      24.593   7.429  50.655  1.00  0.00     0.231 A 
HETATM   27  N5  UNL     1      25.837   7.550  50.303  1.00  0.00    -0.226 NA
HETATM   28  C19 UNL     1      26.427   6.671  49.389  1.00  0.00     0.121 A 
BRANCH  22  29
HETATM   29  C2  UNL     1      24.842   3.718  50.764  1.00  0.00    -0.001 C 
HETATM   30  C1  UNL     1      25.279   2.563  51.191  1.00  0.00     0.012 C 
ENDBRANCH  22  29
BRANCH  28  31
HETATM   31  N6  UNL     1      27.816   6.846  49.058  1.00  0.00    -0.384 N 
HETATM   32  H23 UNL     1      28.598   6.406  49.586  1.00  0.00     0.157 HD
HETATM   33  H24 UNL     1      28.196   7.421  48.269  1.00  0.00     0.157 HD
ENDBRANCH  28  31
ENDBRANCH   9  10
ENDBRANCH   8   9
ENDBRANCH   6   8
ENDBRANCH   5   6
ENDBRANCH   1   5
TORSDOF 7
ENDMDL
MODEL 9
REMARK VINA RESULT:      -6.6      6.656     10.257
REMARK  7 active torsions:
REMARK  status: ('A' for Active; 'I' for Inactive)
REMARK    1  A    between atoms: C2_2  and  C3_3 
REMARK    2  A    between atoms: N2_13  and  C11_14 
REMARK    3  A    between atoms: C11_14  and  C12_15 
REMARK    4  A    between atoms: C12_15  and  N3_16 
REMARK    5  A    between atoms: N3_16  and  C14_18 
REMARK    6  A    between atoms: C14_18  and  C15_19 
REMARK    7  A    between atoms: C19_26  and  N6_27 
ROOT
HETATM    1  C15 UNL     1      29.250  12.023  45.366  1.00  0.00    -0.002 C 
HETATM    2  C16 UNL     1      28.588  11.685  44.082  1.00  0.00     0.049 C 
HETATM    3  C17 UNL     1      29.381  13.334  45.379  1.00  0.00     0.225 C 
HETATM    4  O2  UNL     1      29.612  14.537  45.530  1.00  0.00    -0.284 OA
ENDROOT
BRANCH   1   5
HETATM    5  C14 UNL     1      29.758  11.273  46.535  1.00  0.00     0.310 C 
BRANCH   5   6
HETATM    6  N3  UNL     1      31.198  11.105  46.540  1.00  0.00     0.089 N 
HETATM    7  C13 UNL     1      31.591  10.165  45.524  1.00  0.00     0.310 C 
BRANCH   6   8
HETATM    8  C12 UNL     1      31.531  10.611  47.857  1.00  0.00     0.295 C 
BRANCH   8   9
HETATM    9  C11 UNL     1      30.389  10.428  48.781  1.00  0.00     0.202 C 
BRANCH   9  10
HETATM   10  N2  UNL     1      30.043   8.998  48.939  1.00  0.00    -0.205 N 
HETATM   11  N1  UNL     1      28.733   8.829  49.348  1.00  0.00    -0.161 NA
HETATM   12  C10 UNL     1      27.682   9.526  49.175  1.00  0.00     0.060 C 
HETATM   13  C9  UNL     1      26.453   8.913  49.828  1.00  0.00     0.091 C 
HETATM   14  C22 UNL     1      26.975  10.722  48.619  1.00  0.00     0.032 C 
HETATM   15  C8  UNL     1      25.339   9.171  48.847  1.00  0.00     0.016 C 
HETATM   16  C7  UNL     1      25.317   9.048  47.539  1.00  0.00     0.071 C 
HETATM   17  O1  UNL     1      25.122   8.750  46.137  1.00  0.00    -0.323 OA
HETATM   18  C23 UNL     1      26.390  10.087  47.621  1.00  0.00     0.039 C 
HETATM   19  C6  UNL     1      26.321   9.006  45.362  1.00  0.00     0.142 C 
HETATM   20  C5  UNL     1      27.327   8.377  45.988  1.00  0.00     0.025 C 
HETATM   21  C4  UNL     1      28.547   7.778  46.506  1.00  0.00     0.011 C 
HETATM   22  C3  UNL     1      29.038   7.008  47.425  1.00  0.00    -0.030 C 
HETATM   23  C21 UNL     1      30.487   7.141  47.450  1.00  0.00     0.170 A 
HETATM   24  N4  UNL     1      30.843   7.817  48.745  1.00  0.00    -0.255 N 
HETATM   25  C20 UNL     1      31.167   5.859  47.424  1.00  0.00     0.055 A 
HETATM   26  C18 UNL     1      31.769   7.395  49.737  1.00  0.00     0.231 A 
HETATM   27  N5  UNL     1      32.301   6.232  49.511  1.00  0.00    -0.226 NA
HETATM   28  C19 UNL     1      31.980   5.493  48.368  1.00  0.00     0.121 A 
BRANCH  22  29
HETATM   29  C2  UNL     1      28.444   6.271  48.500  1.00  0.00    -0.001 C 
HETATM   30  C1  UNL     1      27.350   5.557  48.499  1.00  0.00     0.012 C 
ENDBRANCH  22  29
BRANCH  28  31
HETATM   31  N6  UNL     1      32.587   4.201  48.187  1.00  0.00    -0.384 N 
HETATM   32  H23 UNL     1      32.092   3.300  48.349  1.00  0.00     0.157 HD
HETATM   33  H24 UNL     1      33.571   4.018  47.879  1.00  0.00     0.157 HD
ENDBRANCH  28  31
ENDBRANCH   9  10
ENDBRANCH   8   9
ENDBRANCH   6   8
ENDBRANCH   5   6
ENDBRANCH   1   5
TORSDOF 7
ENDMDL
