MODEL 1
REMARK VINA RESULT:      -9.6      0.000      0.000
REMARK  4 active torsions:
REMARK  status: ('A' for Active; 'I' for Inactive)
REMARK    1  A    between atoms: C5_5  and  N1_6 
REMARK    2  A    between atoms: N1_6  and  C6_7 
REMARK    3  A    between atoms: C17_23  and  N4_24 
REMARK    4  A    between atoms: C18_25  and  N5_26 
ROOT
HETATM    1  C6  UNL     1      24.455   2.569  51.753  1.00  0.00     0.045 C 
HETATM    2  C7  UNL     1      23.322   1.771  51.842  1.00  0.00     0.098 C 
HETATM    3  C8  UNL     1      23.167   1.223  53.161  1.00  0.00     0.144 C 
HETATM    4  N2  UNL     1      22.227   0.453  53.585  1.00  0.00    -0.289 NA
HETATM    5  C9  UNL     1      21.206   0.100  52.645  1.00  0.00     0.161 C 
HETATM    6  C10 UNL     1      19.876   0.225  53.419  1.00  0.00     0.204 C 
HETATM    7  O1  UNL     1      18.867   0.666  52.493  1.00  0.00    -0.361 OA
HETATM    8  C11 UNL     1      18.965   0.162  51.177  1.00  0.00     0.133 C 
HETATM    9  C12 UNL     1      20.139   0.360  50.572  1.00  0.00     0.027 C 
HETATM   10  C13 UNL     1      21.051   1.098  51.510  1.00  0.00     0.166 C 
HETATM   11  N3  UNL     1      22.301   1.415  50.840  1.00  0.00    -0.242 N 
HETATM   12  O2  UNL     1      22.314   1.300  49.563  1.00  0.00    -0.251 OA
HETATM   13  C14 UNL     1      21.723   1.951  48.558  1.00  0.00     0.370 C 
HETATM   14  O3  UNL     1      22.028   3.354  48.562  1.00  0.00    -0.361 OA
HETATM   15  C15 UNL     1      23.384   3.537  48.497  1.00  0.00     0.200 C 
HETATM   16  C16 UNL     1      23.960   4.854  48.845  1.00  0.00     0.026 C 
HETATM   17  C17 UNL     1      24.757   4.549  49.981  1.00  0.00     0.039 C 
HETATM   18  C19 UNL     1      24.673   3.232  50.540  1.00  0.00     0.118 C 
ENDROOT
BRANCH   1  19
HETATM   19  N1  UNL     1      25.357   2.829  52.763  1.00  0.00    -0.357 N 
HETATM   20  H6  UNL     1      25.229   3.708  53.357  1.00  0.00     0.166 HD
BRANCH  19  21
HETATM   21  C5  UNL     1      26.425   1.869  52.911  1.00  0.00     0.034 A 
HETATM   22  C4  UNL     1      27.699   2.183  53.338  1.00  0.00     0.030 A 
HETATM   23  C3  UNL     1      28.749   1.316  53.507  1.00  0.00     0.011 A 
HETATM   24  C2  UNL     1      28.525  -0.013  53.222  1.00  0.00    -0.040 A 
HETATM   25  C1  UNL     1      29.584  -1.049  53.367  1.00  0.00     0.050 C 
HETATM   26  C21 UNL     1      27.270  -0.429  52.781  1.00  0.00     0.042 A 
HETATM   27  C20 UNL     1      26.276   0.518  52.644  1.00  0.00     0.053 A 
HETATM   28 CL1  UNL     1      27.014  -2.120  52.422  1.00  0.00    -0.084 Cl
ENDBRANCH  19  21
ENDBRANCH   1  19
BRANCH  17  29
HETATM   29  N4  UNL     1      25.331   5.769  50.326  1.00  0.00    -0.249 NA
HETATM   30  C18 UNL     1      24.794   6.820  50.756  1.00  0.00     0.200 C 
BRANCH  30  31
HETATM   31  N5  UNL     1      26.125   7.391  50.779  1.00  0.00    -0.394 N 
HETATM   32  H20 UNL     1      27.137   7.425  50.536  1.00  0.00     0.156 HD
HETATM   33  H21 UNL     1      26.476   8.280  51.255  1.00  0.00     0.156 HD
ENDBRANCH  30  31
ENDBRANCH  17  29
TORSDOF 4
ENDMDL
MODEL 2
REMARK VINA RESULT:      -9.0      1.646      2.063
REMARK  4 active torsions:
REMARK  status: ('A' for Active; 'I' for Inactive)
REMARK    1  A    between atoms: C5_5  and  N1_6 
REMARK    2  A    between atoms: N1_6  and  C6_7 
REMARK    3  A    between atoms: C17_23  and  N4_24 
REMARK    4  A    between atoms: C18_25  and  N5_26 
ROOT
HETATM    1  C6  UNL     1      22.705   2.143  52.062  1.00  0.00     0.045 C 
HETATM    2  C7  UNL     1      21.553   1.387  51.888  1.00  0.00     0.098 C 
HETATM    3  C8  UNL     1      21.198   0.685  53.089  1.00  0.00     0.144 C 
HETATM    4  N2  UNL     1      20.189  -0.094  53.275  1.00  0.00    -0.289 NA
HETATM    5  C9  UNL     1      19.306  -0.283  52.163  1.00  0.00     0.161 C 
HETATM    6  C10 UNL     1      17.881  -0.201  52.754  1.00  0.00     0.204 C 
HETATM    7  O1  UNL     1      17.026   0.394  51.762  1.00  0.00    -0.361 OA
HETATM    8  C11 UNL     1      17.300   0.057  50.419  1.00  0.00     0.133 C 
HETATM    9  C12 UNL     1      18.553   0.281  50.013  1.00  0.00     0.027 C 
HETATM   10  C13 UNL     1      19.339   0.856  51.158  1.00  0.00     0.166 C 
HETATM   11  N3  UNL     1      20.678   1.203  50.716  1.00  0.00    -0.242 N 
HETATM   12  O2  UNL     1      20.871   1.250  49.449  1.00  0.00    -0.251 OA
HETATM   13  C14 UNL     1      20.446   2.046  48.465  1.00  0.00     0.370 C 
HETATM   14  O3  UNL     1      20.779   3.423  48.695  1.00  0.00    -0.361 OA
HETATM   15  C15 UNL     1      22.134   3.557  48.844  1.00  0.00     0.200 C 
HETATM   16  C16 UNL     1      22.685   4.794  49.438  1.00  0.00     0.026 C 
HETATM   17  C17 UNL     1      23.304   4.316  50.624  1.00  0.00     0.039 C 
HETATM   18  C19 UNL     1      23.110   2.943  50.989  1.00  0.00     0.118 C 
ENDROOT
BRANCH   1  19
HETATM   19  N1  UNL     1      23.459   2.236  53.214  1.00  0.00    -0.357 N 
HETATM   20  H6  UNL     1      23.083   2.812  54.032  1.00  0.00     0.166 HD
BRANCH  19  21
HETATM   21  C5  UNL     1      24.724   1.540  53.192  1.00  0.00     0.034 A 
HETATM   22  C4  UNL     1      24.865   0.192  52.930  1.00  0.00     0.030 A 
HETATM   23  C3  UNL     1      26.037  -0.520  52.886  1.00  0.00     0.011 A 
HETATM   24  C2  UNL     1      27.206   0.168  53.127  1.00  0.00    -0.040 A 
HETATM   25  C1  UNL     1      28.539  -0.494  53.106  1.00  0.00     0.050 C 
HETATM   26  C21 UNL     1      27.166   1.533  53.404  1.00  0.00     0.042 A 
HETATM   27  C20 UNL     1      25.938   2.162  53.425  1.00  0.00     0.053 A 
HETATM   28 CL1  UNL     1      28.664   2.380  53.712  1.00  0.00    -0.084 Cl
ENDBRANCH  19  21
ENDBRANCH   1  19
BRANCH  17  29
HETATM   29  N4  UNL     1      23.850   5.458  51.202  1.00  0.00    -0.249 NA
HETATM   30  C18 UNL     1      24.614   6.325  50.709  1.00  0.00     0.200 C 
BRANCH  30  31
HETATM   31  N5  UNL     1      24.570   6.978  52.001  1.00  0.00    -0.394 N 
HETATM   32  H20 UNL     1      24.982   7.331  52.890  1.00  0.00     0.156 HD
HETATM   33  H21 UNL     1      23.743   7.420  52.513  1.00  0.00     0.156 HD
ENDBRANCH  30  31
ENDBRANCH  17  29
TORSDOF 4
ENDMDL
MODEL 3
REMARK VINA RESULT:      -8.7      2.904      6.467
REMARK  4 active torsions:
REMARK  status: ('A' for Active; 'I' for Inactive)
REMARK    1  A    between atoms: C5_5  and  N1_6 
REMARK    2  A    between atoms: N1_6  and  C6_7 
REMARK    3  A    between atoms: C17_23  and  N4_24 
REMARK    4  A    between atoms: C18_25  and  N5_26 
ROOT
HETATM    1  C6  UNL     1      25.328   3.827  50.334  1.00  0.00     0.045 C 
HETATM    2  C7  UNL     1      25.915   4.982  49.833  1.00  0.00     0.098 C 
HETATM    3  C8  UNL     1      27.099   4.685  49.077  1.00  0.00     0.144 C 
HETATM    4  N2  UNL     1      27.875   5.517  48.474  1.00  0.00    -0.289 NA
HETATM    5  C9  UNL     1      27.522   6.902  48.551  1.00  0.00     0.161 C 
HETATM    6  C10 UNL     1      27.728   7.458  47.126  1.00  0.00     0.204 C 
HETATM    7  O1  UNL     1      26.738   8.478  46.902  1.00  0.00    -0.361 OA
HETATM    8  C11 UNL     1      26.406   9.279  48.016  1.00  0.00     0.133 C 
HETATM    9  C12 UNL     1      26.016   8.615  49.107  1.00  0.00     0.027 C 
HETATM   10  C13 UNL     1      26.044   7.141  48.815  1.00  0.00     0.166 C 
HETATM   11  N3  UNL     1      25.528   6.399  49.952  1.00  0.00    -0.242 N 
HETATM   12  O2  UNL     1      24.893   7.075  50.838  1.00  0.00    -0.251 OA
HETATM   13  C14 UNL     1      23.729   7.728  50.860  1.00  0.00     0.370 C 
HETATM   14  O3  UNL     1      22.620   6.879  50.528  1.00  0.00    -0.361 OA
HETATM   15  C15 UNL     1      22.570   5.816  51.391  1.00  0.00     0.200 C 
HETATM   16  C16 UNL     1      21.755   4.632  51.045  1.00  0.00     0.026 C 
HETATM   17  C17 UNL     1      22.733   3.606  50.941  1.00  0.00     0.039 C 
HETATM   18  C19 UNL     1      24.117   3.973  51.019  1.00  0.00     0.118 C 
ENDROOT
BRANCH   1  19
HETATM   19  N1  UNL     1      25.785   2.536  50.168  1.00  0.00    -0.357 N 
HETATM   20  H6  UNL     1      25.725   2.087  49.200  1.00  0.00     0.166 HD
BRANCH  19  21
HETATM   21  C5  UNL     1      26.299   1.896  51.356  1.00  0.00     0.034 A 
HETATM   22  C4  UNL     1      25.781   0.739  51.901  1.00  0.00     0.030 A 
HETATM   23  C3  UNL     1      26.231   0.081  53.018  1.00  0.00     0.011 A 
HETATM   24  C2  UNL     1      27.313   0.622  53.679  1.00  0.00    -0.040 A 
HETATM   25  C1  UNL     1      27.892  -0.000  54.901  1.00  0.00     0.050 C 
HETATM   26  C21 UNL     1      27.904   1.792  53.206  1.00  0.00     0.042 A 
HETATM   27  C20 UNL     1      27.380   2.380  52.073  1.00  0.00     0.053 A 
HETATM   28 CL1  UNL     1      29.272   2.459  54.067  1.00  0.00    -0.084 Cl
ENDBRANCH  19  21
ENDBRANCH   1  19
BRANCH  17  29
HETATM   29  N4  UNL     1      21.995   2.467  50.632  1.00  0.00    -0.249 NA
HETATM   30  C18 UNL     1      22.228   1.261  50.892  1.00  0.00     0.200 C 
BRANCH  30  31
HETATM   31  N5  UNL     1      20.990   0.960  50.203  1.00  0.00    -0.394 N 
HETATM   32  H20 UNL     1      20.254   1.115  49.483  1.00  0.00     0.156 HD
HETATM   33  H21 UNL     1      20.289   0.173  50.376  1.00  0.00     0.156 HD
ENDBRANCH  30  31
ENDBRANCH  17  29
TORSDOF 4
ENDMDL
MODEL 4
REMARK VINA RESULT:      -8.6      2.959      6.946
REMARK  4 active torsions:
REMARK  status: ('A' for Active; 'I' for Inactive)
REMARK    1  A    between atoms: C5_5  and  N1_6 
REMARK    2  A    between atoms: N1_6  and  C6_7 
REMARK    3  A    between atoms: C17_23  and  N4_24 
REMARK    4  A    between atoms: C18_25  and  N5_26 
ROOT
HETATM    1  C6  UNL     1      23.207   2.232  52.132  1.00  0.00     0.045 C 
HETATM    2  C7  UNL     1      23.356   3.447  51.475  1.00  0.00     0.098 C 
HETATM    3  C8  UNL     1      22.275   4.344  51.777  1.00  0.00     0.144 C 
HETATM    4  N2  UNL     1      22.108   5.545  51.345  1.00  0.00    -0.289 NA
HETATM    5  C9  UNL     1      23.114   6.063  50.467  1.00  0.00     0.161 C 
HETATM    6  C10 UNL     1      23.375   7.506  50.949  1.00  0.00     0.204 C 
HETATM    7  O1  UNL     1      24.766   7.800  50.729  1.00  0.00    -0.361 OA
HETATM    8  C11 UNL     1      25.344   7.244  49.567  1.00  0.00     0.133 C 
HETATM    9  C12 UNL     1      25.218   5.921  49.438  1.00  0.00     0.027 C 
HETATM   10  C13 UNL     1      24.466   5.387  50.624  1.00  0.00     0.166 C 
HETATM   11  N3  UNL     1      24.402   3.937  50.560  1.00  0.00    -0.242 N 
HETATM   12  O2  UNL     1      25.197   3.363  49.733  1.00  0.00    -0.251 OA
HETATM   13  C14 UNL     1      26.521   3.210  49.660  1.00  0.00     0.370 C 
HETATM   14  O3  UNL     1      27.062   2.567  50.823  1.00  0.00    -0.361 OA
HETATM   15  C15 UNL     1      26.466   1.346  51.001  1.00  0.00     0.200 C 
HETATM   16  C16 UNL     1      26.586   0.660  52.305  1.00  0.00     0.026 C 
HETATM   17  C17 UNL     1      25.237   0.603  52.748  1.00  0.00     0.039 C 
HETATM   18  C19 UNL     1      24.240   1.300  51.987  1.00  0.00     0.118 C 
ENDROOT
BRANCH   1  19
HETATM   19  N1  UNL     1      22.171   1.873  52.968  1.00  0.00    -0.357 N 
HETATM   20  H6  UNL     1      22.293   1.993  54.023  1.00  0.00     0.166 HD
BRANCH  19  21
HETATM   21  C5  UNL     1      20.997   1.340  52.317  1.00  0.00     0.034 A 
HETATM   22  C4  UNL     1      20.630   1.630  51.019  1.00  0.00     0.030 A 
HETATM   23  C3  UNL     1      19.535   1.148  50.345  1.00  0.00     0.011 A 
HETATM   24  C2  UNL     1      18.704   0.284  51.024  1.00  0.00    -0.040 A 
HETATM   25  C1  UNL     1      17.488  -0.306  50.400  1.00  0.00     0.050 C 
HETATM   26  C21 UNL     1      18.990  -0.067  52.342  1.00  0.00     0.042 A 
HETATM   27  C20 UNL     1      20.115   0.468  52.933  1.00  0.00     0.053 A 
HETATM   28 CL1  UNL     1      17.916  -1.162  53.180  1.00  0.00    -0.084 Cl
ENDBRANCH  19  21
ENDBRANCH   1  19
BRANCH  17  29
HETATM   29  N4  UNL     1      25.310  -0.056  53.971  1.00  0.00    -0.249 NA
HETATM   30  C18 UNL     1      26.192  -0.004  54.863  1.00  0.00     0.200 C 
BRANCH  30  31
HETATM   31  N5  UNL     1      25.384  -0.954  55.600  1.00  0.00    -0.394 N 
HETATM   32  H20 UNL     1      24.493  -1.424  55.863  1.00  0.00     0.156 HD
HETATM   33  H21 UNL     1      25.677  -1.670  56.336  1.00  0.00     0.156 HD
ENDBRANCH  30  31
ENDBRANCH  17  29
TORSDOF 4
ENDMDL
MODEL 5
REMARK VINA RESULT:      -8.6      3.232      6.400
REMARK  4 active torsions:
REMARK  status: ('A' for Active; 'I' for Inactive)
REMARK    1  A    between atoms: C5_5  and  N1_6 
REMARK    2  A    between atoms: N1_6  and  C6_7 
REMARK    3  A    between atoms: C17_23  and  N4_24 
REMARK    4  A    between atoms: C18_25  and  N5_26 
ROOT
HETATM    1  C6  UNL     1      23.088   3.244  50.278  1.00  0.00     0.045 C 
HETATM    2  C7  UNL     1      24.227   4.022  50.116  1.00  0.00     0.098 C 
HETATM    3  C8  UNL     1      25.359   3.224  49.734  1.00  0.00     0.144 C 
HETATM    4  N2  UNL     1      26.559   3.626  49.497  1.00  0.00    -0.289 NA
HETATM    5  C9  UNL     1      26.805   5.032  49.617  1.00  0.00     0.161 C 
HETATM    6  C10 UNL     1      27.676   5.401  48.396  1.00  0.00     0.204 C 
HETATM    7  O1  UNL     1      27.328   6.738  47.995  1.00  0.00    -0.361 OA
HETATM    8  C11 UNL     1      27.013   7.639  49.035  1.00  0.00     0.133 C 
HETATM    9  C12 UNL     1      26.051   7.239  49.870  1.00  0.00     0.027 C 
HETATM   10  C13 UNL     1      25.562   5.886  49.437  1.00  0.00     0.166 C 
HETATM   11  N3  UNL     1      24.445   5.472  50.269  1.00  0.00    -0.242 N 
HETATM   12  O2  UNL     1      23.895   6.381  50.986  1.00  0.00    -0.251 OA
HETATM   13  C14 UNL     1      23.167   7.469  50.722  1.00  0.00     0.370 C 
HETATM   14  O3  UNL     1      21.983   7.165  49.971  1.00  0.00    -0.361 OA
HETATM   15  C15 UNL     1      21.219   6.253  50.651  1.00  0.00     0.200 C 
HETATM   16  C16 UNL     1      20.151   5.520  49.939  1.00  0.00     0.026 C 
HETATM   17  C17 UNL     1      20.592   4.172  50.027  1.00  0.00     0.039 C 
HETATM   18  C19 UNL     1      21.895   3.915  50.568  1.00  0.00     0.118 C 
ENDROOT
BRANCH   1  19
HETATM   19  N1  UNL     1      22.998   1.877  50.116  1.00  0.00    -0.357 N 
HETATM   20  H6  UNL     1      23.019   1.471  49.128  1.00  0.00     0.166 HD
BRANCH  19  21
HETATM   21  C5  UNL     1      22.863   1.111  51.333  1.00  0.00     0.034 A 
HETATM   22  C4  UNL     1      21.675   0.573  51.784  1.00  0.00     0.030 A 
HETATM   23  C3  UNL     1      21.486  -0.170  52.922  1.00  0.00     0.011 A 
HETATM   24  C2  UNL     1      22.590  -0.412  53.711  1.00  0.00    -0.040 A 
HETATM   25  C1  UNL     1      22.513  -1.204  54.968  1.00  0.00     0.050 C 
HETATM   26  C21 UNL     1      23.835   0.093  53.340  1.00  0.00     0.042 A 
HETATM   27  C20 UNL     1      23.924   0.828  52.176  1.00  0.00     0.053 A 
HETATM   28 CL1  UNL     1      25.218  -0.224  54.361  1.00  0.00    -0.084 Cl
ENDBRANCH  19  21
ENDBRANCH   1  19
BRANCH  17  29
HETATM   29  N4  UNL     1      19.596   3.448  49.379  1.00  0.00    -0.249 NA
HETATM   30  C18 UNL     1      19.655   2.334  48.803  1.00  0.00     0.200 C 
BRANCH  30  31
HETATM   31  N5  UNL     1      18.244   2.502  48.517  1.00  0.00    -0.394 N 
HETATM   32  H20 UNL     1      17.432   2.773  47.925  1.00  0.00     0.156 HD
HETATM   33  H21 UNL     1      17.395   2.275  49.123  1.00  0.00     0.156 HD
ENDBRANCH  30  31
ENDBRANCH  17  29
TORSDOF 4
ENDMDL
MODEL 6
REMARK VINA RESULT:      -8.5      2.490      2.976
REMARK  4 active torsions:
REMARK  status: ('A' for Active; 'I' for Inactive)
REMARK    1  A    between atoms: C5_5  and  N1_6 
REMARK    2  A    between atoms: N1_6  and  C6_7 
REMARK    3  A    between atoms: C17_23  and  N4_24 
REMARK    4  A    between atoms: C18_25  and  N5_26 
ROOT
HETATM    1  C6  UNL     1      22.867   4.032  51.022  1.00  0.00     0.045 C 
HETATM    2  C7  UNL     1      21.516   3.752  50.864  1.00  0.00     0.098 C 
HETATM    3  C8  UNL     1      20.924   3.305  52.094  1.00  0.00     0.144 C 
HETATM    4  N2  UNL     1      19.697   2.971  52.300  1.00  0.00    -0.289 NA
HETATM    5  C9  UNL     1      18.807   3.061  51.182  1.00  0.00     0.161 C 
HETATM    6  C10 UNL     1      17.517   3.703  51.735  1.00  0.00     0.204 C 
HETATM    7  O1  UNL     1      16.946   4.515  50.694  1.00  0.00    -0.361 OA
HETATM    8  C11 UNL     1      17.074   4.021  49.377  1.00  0.00     0.133 C 
HETATM    9  C12 UNL     1      18.319   3.737  48.988  1.00  0.00     0.027 C 
HETATM   10  C13 UNL     1      19.263   4.043  50.116  1.00  0.00     0.166 C 
HETATM   11  N3  UNL     1      20.635   3.839  49.685  1.00  0.00    -0.242 N 
HETATM   12  O2  UNL     1      20.831   3.735  48.422  1.00  0.00    -0.251 OA
HETATM   13  C14 UNL     1      20.734   4.573  47.387  1.00  0.00     0.370 C 
HETATM   14  O3  UNL     1      21.559   5.737  47.549  1.00  0.00    -0.361 OA
HETATM   15  C15 UNL     1      22.866   5.364  47.719  1.00  0.00     0.200 C 
HETATM   16  C16 UNL     1      23.839   6.339  48.256  1.00  0.00     0.026 C 
HETATM   17  C17 UNL     1      24.235   5.736  49.480  1.00  0.00     0.039 C 
HETATM   18  C19 UNL     1      23.542   4.558  49.915  1.00  0.00     0.118 C 
ENDROOT
BRANCH   1  19
HETATM   19  N1  UNL     1      23.601   3.904  52.183  1.00  0.00    -0.357 N 
HETATM   20  H6  UNL     1      23.512   4.658  52.936  1.00  0.00     0.166 HD
BRANCH  19  21
HETATM   21  C5  UNL     1      24.453   2.740  52.261  1.00  0.00     0.034 A 
HETATM   22  C4  UNL     1      25.630   2.592  51.557  1.00  0.00     0.030 A 
HETATM   23  C3  UNL     1      26.484   1.518  51.597  1.00  0.00     0.011 A 
HETATM   24  C2  UNL     1      26.142   0.467  52.420  1.00  0.00    -0.040 A 
HETATM   25  C1  UNL     1      26.987  -0.751  52.549  1.00  0.00     0.050 C 
HETATM   26  C21 UNL     1      24.968   0.523  53.170  1.00  0.00     0.042 A 
HETATM   27  C20 UNL     1      24.175   1.647  53.063  1.00  0.00     0.053 A 
HETATM   28 CL1  UNL     1      24.556  -0.826  54.202  1.00  0.00    -0.084 Cl
ENDBRANCH  19  21
ENDBRANCH   1  19
BRANCH  17  29
HETATM   29  N4  UNL     1      25.169   6.623  50.007  1.00  0.00    -0.249 NA
HETATM   30  C18 UNL     1      26.168   7.156  49.465  1.00  0.00     0.200 C 
BRANCH  30  31
HETATM   31  N5  UNL     1      26.406   7.807  50.738  1.00  0.00    -0.394 N 
HETATM   32  H20 UNL     1      26.635   7.829  51.753  1.00  0.00     0.156 HD
HETATM   33  H21 UNL     1      26.387   8.846  50.984  1.00  0.00     0.156 HD
ENDBRANCH  30  31
ENDBRANCH  17  29
TORSDOF 4
ENDMDL
MODEL 7
REMARK VINA RESULT:      -8.5      3.114      6.668
REMARK  4 active torsions:
REMARK  status: ('A' for Active; 'I' for Inactive)
REMARK    1  A    between atoms: C5_5  and  N1_6 
REMARK    2  A    between atoms: N1_6  and  C6_7 
REMARK    3  A    between atoms: C17_23  and  N4_24 
REMARK    4  A    between atoms: C18_25  and  N5_26 
ROOT
HETATM    1  C6  UNL     1      23.073   1.647  50.832  1.00  0.00     0.045 C 
HETATM    2  C7  UNL     1      24.261   1.337  51.481  1.00  0.00     0.098 C 
HETATM    3  C8  UNL     1      25.380   2.001  50.874  1.00  0.00     0.144 C 
HETATM    4  N2  UNL     1      26.616   1.939  51.229  1.00  0.00    -0.289 NA
HETATM    5  C9  UNL     1      26.923   1.124  52.366  1.00  0.00     0.161 C 
HETATM    6  C10 UNL     1      27.922   1.949  53.205  1.00  0.00     0.204 C 
HETATM    7  O1  UNL     1      27.683   1.653  54.592  1.00  0.00    -0.361 OA
HETATM    8  C11 UNL     1      27.318   0.323  54.892  1.00  0.00     0.133 C 
HETATM    9  C12 UNL     1      26.262  -0.149  54.224  1.00  0.00     0.027 C 
HETATM   10  C13 UNL     1      25.747   0.925  53.308  1.00  0.00     0.166 C 
HETATM   11  N3  UNL     1      24.538   0.473  52.643  1.00  0.00    -0.242 N 
HETATM   12  O2  UNL     1      23.969  -0.569  53.130  1.00  0.00    -0.251 OA
HETATM   13  C14 UNL     1      23.327  -0.839  54.269  1.00  0.00     0.370 C 
HETATM   14  O3  UNL     1      22.204   0.030  54.481  1.00  0.00    -0.361 OA
HETATM   15  C15 UNL     1      21.335  -0.064  53.427  1.00  0.00     0.200 C 
HETATM   16  C16 UNL     1      20.301   0.976  53.238  1.00  0.00     0.026 C 
HETATM   17  C17 UNL     1      20.663   1.544  51.987  1.00  0.00     0.039 C 
HETATM   18  C19 UNL     1      21.894   1.129  51.380  1.00  0.00     0.118 C 
ENDROOT
BRANCH   1  19
HETATM   19  N1  UNL     1      22.928   2.470  49.735  1.00  0.00    -0.357 N 
HETATM   20  H6  UNL     1      22.670   2.035  48.793  1.00  0.00     0.166 HD
BRANCH  19  21
HETATM   21  C5  UNL     1      23.163   3.875  49.971  1.00  0.00     0.034 A 
HETATM   22  C4  UNL     1      22.678   4.572  51.058  1.00  0.00     0.030 A 
HETATM   23  C3  UNL     1      22.875   5.901  51.340  1.00  0.00     0.011 A 
HETATM   24  C2  UNL     1      23.635   6.631  50.453  1.00  0.00    -0.040 A 
HETATM   25  C1  UNL     1      23.921   8.078  50.650  1.00  0.00     0.050 C 
HETATM   26  C21 UNL     1      24.168   6.015  49.321  1.00  0.00     0.042 A 
HETATM   27  C20 UNL     1      23.915   4.673  49.125  1.00  0.00     0.053 A 
HETATM   28 CL1  UNL     1      25.124   6.966  48.209  1.00  0.00    -0.084 Cl
ENDBRANCH  19  21
ENDBRANCH   1  19
BRANCH  17  29
HETATM   29  N4  UNL     1      19.696   2.521  51.768  1.00  0.00    -0.249 NA
HETATM   30  C18 UNL     1      19.292   3.029  50.693  1.00  0.00     0.200 C 
BRANCH  30  31
HETATM   31  N5  UNL     1      18.399   3.831  51.504  1.00  0.00    -0.394 N 
HETATM   32  H20 UNL     1      17.759   4.632  51.685  1.00  0.00     0.156 HD
HETATM   33  H21 UNL     1      18.086   3.688  52.515  1.00  0.00     0.156 HD
ENDBRANCH  30  31
ENDBRANCH  17  29
TORSDOF 4
ENDMDL
MODEL 8
REMARK VINA RESULT:      -8.5      3.739      7.097
REMARK  4 active torsions:
REMARK  status: ('A' for Active; 'I' for Inactive)
REMARK    1  A    between atoms: C5_5  and  N1_6 
REMARK    2  A    between atoms: N1_6  and  C6_7 
REMARK    3  A    between atoms: C17_23  and  N4_24 
REMARK    4  A    between atoms: C18_25  and  N5_26 
ROOT
HETATM    1  C6  UNL     1      25.435   4.644  49.782  1.00  0.00     0.045 C 
HETATM    2  C7  UNL     1      26.451   5.496  49.367  1.00  0.00     0.098 C 
HETATM    3  C8  UNL     1      27.546   4.766  48.791  1.00  0.00     0.144 C 
HETATM    4  N2  UNL     1      28.637   5.244  48.303  1.00  0.00    -0.289 NA
HETATM    5  C9  UNL     1      28.785   6.669  48.323  1.00  0.00     0.161 C 
HETATM    6  C10 UNL     1      29.362   7.040  46.940  1.00  0.00     0.204 C 
HETATM    7  O1  UNL     1      28.832   8.326  46.571  1.00  0.00    -0.361 OA
HETATM    8  C11 UNL     1      28.655   9.252  47.623  1.00  0.00     0.133 C 
HETATM    9  C12 UNL     1      27.915   8.824  48.649  1.00  0.00     0.027 C 
HETATM   10  C13 UNL     1      27.464   7.418  48.369  1.00  0.00     0.166 C 
HETATM   11  N3  UNL     1      26.574   6.963  49.423  1.00  0.00    -0.242 N 
HETATM   12  O2  UNL     1      26.103   7.864  50.206  1.00  0.00    -0.251 OA
HETATM   13  C14 UNL     1      25.249   8.880  50.057  1.00  0.00     0.370 C 
HETATM   14  O3  UNL     1      23.969   8.451  49.572  1.00  0.00    -0.361 OA
HETATM   15  C15 UNL     1      23.435   7.520  50.423  1.00  0.00     0.200 C 
HETATM   16  C16 UNL     1      22.311   6.674  49.967  1.00  0.00     0.026 C 
HETATM   17  C17 UNL     1      22.871   5.370  50.010  1.00  0.00     0.039 C 
HETATM   18  C19 UNL     1      24.272   5.238  50.285  1.00  0.00     0.118 C 
ENDROOT
BRANCH   1  19
HETATM   19  N1  UNL     1      25.429   3.268  49.689  1.00  0.00    -0.357 N 
HETATM   20  H6  UNL     1      25.258   2.815  48.735  1.00  0.00     0.166 HD
BRANCH  19  21
HETATM   21  C5  UNL     1      25.643   2.556  50.927  1.00  0.00     0.034 A 
HETATM   22  C4  UNL     1      24.686   1.785  51.555  1.00  0.00     0.030 A 
HETATM   23  C3  UNL     1      24.833   1.080  52.723  1.00  0.00     0.011 A 
HETATM   24  C2  UNL     1      26.059   1.138  53.348  1.00  0.00    -0.040 A 
HETATM   25  C1  UNL     1      26.341   0.415  54.618  1.00  0.00     0.050 C 
HETATM   26  C21 UNL     1      27.090   1.893  52.791  1.00  0.00     0.042 A 
HETATM   27  C20 UNL     1      26.846   2.567  51.612  1.00  0.00     0.053 A 
HETATM   28 CL1  UNL     1      28.634   1.953  53.607  1.00  0.00    -0.084 Cl
ENDBRANCH  19  21
ENDBRANCH   1  19
BRANCH  17  29
HETATM   29  N4  UNL     1      21.830   4.542  49.601  1.00  0.00    -0.249 NA
HETATM   30  C18 UNL     1      20.605   4.790  49.474  1.00  0.00     0.200 C 
BRANCH  30  31
HETATM   31  N5  UNL     1      20.455   3.412  49.054  1.00  0.00    -0.394 N 
HETATM   32  H20 UNL     1      20.776   2.431  48.919  1.00  0.00     0.156 HD
HETATM   33  H21 UNL     1      19.614   2.923  48.613  1.00  0.00     0.156 HD
ENDBRANCH  30  31
ENDBRANCH  17  29
TORSDOF 4
ENDMDL
MODEL 9
REMARK VINA RESULT:      -8.3      3.219      6.131
REMARK  4 active torsions:
REMARK  status: ('A' for Active; 'I' for Inactive)
REMARK    1  A    between atoms: C5_5  and  N1_6 
REMARK    2  A    between atoms: N1_6  and  C6_7 
REMARK    3  A    between atoms: C17_23  and  N4_24 
REMARK    4  A    between atoms: C18_25  and  N5_26 
ROOT
HETATM    1  C6  UNL     1      23.807   3.297  49.887  1.00  0.00     0.045 C 
HETATM    2  C7  UNL     1      24.664   2.620  50.745  1.00  0.00     0.098 C 
HETATM    3  C8  UNL     1      26.039   2.915  50.455  1.00  0.00     0.144 C 
HETATM    4  N2  UNL     1      27.083   2.465  51.060  1.00  0.00    -0.289 NA
HETATM    5  C9  UNL     1      26.860   1.572  52.157  1.00  0.00     0.161 C 
HETATM    6  C10 UNL     1      27.836   2.029  53.263  1.00  0.00     0.204 C 
HETATM    7  O1  UNL     1      27.204   1.794  54.534  1.00  0.00    -0.361 OA
HETATM    8  C11 UNL     1      26.400   0.637  54.626  1.00  0.00     0.133 C 
HETATM    9  C12 UNL     1      25.438   0.530  53.706  1.00  0.00     0.027 C 
HETATM   10  C13 UNL     1      25.493   1.730  52.803  1.00  0.00     0.166 C 
HETATM   11  N3  UNL     1      24.393   1.690  51.856  1.00  0.00    -0.242 N 
HETATM   12  O2  UNL     1      23.444   0.866  52.112  1.00  0.00    -0.251 OA
HETATM   13  C14 UNL     1      22.504   0.786  53.057  1.00  0.00     0.370 C 
HETATM   14  O3  UNL     1      21.674   1.956  53.102  1.00  0.00    -0.361 OA
HETATM   15  C15 UNL     1      21.085   2.158  51.881  1.00  0.00     0.200 C 
HETATM   16  C16 UNL     1      20.482   3.472  51.570  1.00  0.00     0.026 C 
HETATM   17  C17 UNL     1      21.277   3.924  50.482  1.00  0.00     0.039 C 
HETATM   18  C19 UNL     1      22.434   3.160  50.119  1.00  0.00     0.118 C 
ENDROOT
BRANCH   1  19
HETATM   19  N1  UNL     1      24.173   4.146  48.863  1.00  0.00    -0.357 N 
HETATM   20  H6  UNL     1      23.974   3.855  47.854  1.00  0.00     0.166 HD
BRANCH  19  21
HETATM   21  C5  UNL     1      24.824   5.370  49.268  1.00  0.00     0.034 A 
HETATM   22  C4  UNL     1      24.339   6.224  50.237  1.00  0.00     0.030 A 
HETATM   23  C3  UNL     1      24.916   7.392  50.670  1.00  0.00     0.011 A 
HETATM   24  C2  UNL     1      26.105   7.766  50.083  1.00  0.00    -0.040 A 
HETATM   25  C1  UNL     1      26.826   9.010  50.467  1.00  0.00     0.050 C 
HETATM   26  C21 UNL     1      26.673   6.969  49.090  1.00  0.00     0.042 A 
HETATM   27  C20 UNL     1      26.018   5.812  48.724  1.00  0.00     0.053 A 
HETATM   28 CL1  UNL     1      28.180   7.471  48.359  1.00  0.00    -0.084 Cl
ENDBRANCH  19  21
ENDBRANCH   1  19
BRANCH  17  29
HETATM   29  N4  UNL     1      20.723   5.158  50.151  1.00  0.00    -0.249 NA
HETATM   30  C18 UNL     1      19.894   5.454  49.255  1.00  0.00     0.200 C 
BRANCH  30  31
HETATM   31  N5  UNL     1      20.000   6.820  49.727  1.00  0.00    -0.394 N 
HETATM   32  H20 UNL     1      20.037   7.561  50.457  1.00  0.00     0.156 HD
HETATM   33  H21 UNL     1      20.114   7.724  49.171  1.00  0.00     0.156 HD
ENDBRANCH  30  31
ENDBRANCH  17  29
TORSDOF 4
ENDMDL
