MODEL 1
REMARK VINA RESULT:      -8.0      0.000      0.000
REMARK  1 active torsions:
REMARK  status: ('A' for Active; 'I' for Inactive)
REMARK    1  A    between atoms: C7_9  and  N2_10 
ROOT
HETATM    1  O1  UNL     1      26.657   1.234  52.883  1.00  0.00     0.000 OA
HETATM    2  C1  UNL     1      27.030   0.903  54.046  1.00  0.00     0.033 A 
HETATM    3  C2  UNL     1      27.697   2.107  53.400  1.00  0.00     0.053 A 
HETATM    4  C3  UNL     1      27.138   2.349  52.243  1.00  0.00     0.031 A 
HETATM    5  C4  UNL     1      26.452   2.570  50.926  1.00  0.00     0.275 C 
HETATM    6  N1  UNL     1      26.019   3.983  50.807  1.00  0.00     0.087 N 
HETATM    7  C5  UNL     1      25.031   4.104  49.718  1.00  0.00     0.299 C 
HETATM    8  C6  UNL     1      23.773   3.455  50.182  1.00  0.00     0.033 C 
HETATM    9  C7  UNL     1      22.595   4.103  50.330  1.00  0.00     0.035 C 
HETATM   10  C8  UNL     1      21.131   4.117  50.608  1.00  0.00     0.026 C 
HETATM   11  C9  UNL     1      20.623   2.914  50.804  1.00  0.00    -0.021 C 
HETATM   12  C10 UNL     1      19.979   1.628  51.034  1.00  0.00     0.055 C 
HETATM   13  C11 UNL     1      20.745   0.921  52.152  1.00  0.00    -0.006 C 
HETATM   14  C12 UNL     1      20.492   0.485  53.431  1.00  0.00     0.087 C 
HETATM   15  N3  UNL     1      21.711  -0.075  53.795  1.00  0.00    -0.358 N 
HETATM   16  C13 UNL     1      21.864  -1.128  54.483  1.00  0.00     0.090 A 
HETATM   17  C14 UNL     1      23.212  -0.668  54.165  1.00  0.00     0.133 A 
HETATM   18  C15 UNL     1      24.434  -0.188  53.839  1.00  0.00     0.039 C 
HETATM   19  C16 UNL     1      25.668  -0.948  54.254  1.00  0.00     0.127 C 
HETATM   20  N4  UNL     1      26.637  -0.163  54.957  1.00  0.00    -0.391 N 
HETATM   21  H5  UNL     1      26.860   4.534  50.471  1.00  0.00     0.316 HD
HETATM   22  H21 UNL     1      27.344   0.476  55.367  1.00  0.00     0.159 HD
ENDROOT
BRANCH   9  23
HETATM   23  N2  UNL     1      23.083   5.377  49.934  1.00  0.00    -0.323 N 
HETATM   24 BR1  UNL     1      21.919   6.604  50.832  1.00  0.00     0.047 Br
HETATM   25  H9  UNL     1      23.904   5.322  49.289  1.00  0.00     0.174 HD
ENDBRANCH   9  23
TORSDOF 1
ENDMDL
MODEL 2
REMARK VINA RESULT:      -7.8      2.316      5.102
REMARK  1 active torsions:
REMARK  status: ('A' for Active; 'I' for Inactive)
REMARK    1  A    between atoms: C7_9  and  N2_10 
ROOT
HETATM    1  O1  UNL     1      20.893   0.172  53.691  1.00  0.00     0.000 OA
HETATM    2  C1  UNL     1      20.831  -1.058  53.988  1.00  0.00     0.033 A 
HETATM    3  C2  UNL     1      19.645  -0.439  53.266  1.00  0.00     0.053 A 
HETATM    4  C3  UNL     1      19.913   0.807  52.973  1.00  0.00     0.031 A 
HETATM    5  C4  UNL     1      20.284   2.229  52.666  1.00  0.00     0.275 C 
HETATM    6  N1  UNL     1      20.054   2.518  51.230  1.00  0.00     0.087 N 
HETATM    7  C5  UNL     1      20.765   3.756  50.858  1.00  0.00     0.299 C 
HETATM    8  C6  UNL     1      22.222   3.451  50.859  1.00  0.00     0.033 C 
HETATM    9  C7  UNL     1      23.017   3.540  49.768  1.00  0.00     0.035 C 
HETATM   10  C8  UNL     1      24.355   3.499  49.112  1.00  0.00     0.026 C 
HETATM   11  C9  UNL     1      25.347   3.298  49.959  1.00  0.00    -0.021 C 
HETATM   12  C10 UNL     1      26.503   3.078  50.819  1.00  0.00     0.055 C 
HETATM   13  C11 UNL     1      26.245   1.804  51.623  1.00  0.00    -0.006 C 
HETATM   14  C12 UNL     1      26.802   0.553  51.739  1.00  0.00     0.087 C 
HETATM   15  N3  UNL     1      25.991  -0.039  52.700  1.00  0.00    -0.358 N 
HETATM   16  C13 UNL     1      26.382  -0.819  53.619  1.00  0.00     0.090 A 
HETATM   17  C14 UNL     1      24.941  -0.686  53.806  1.00  0.00     0.133 A 
HETATM   18  C15 UNL     1      23.603  -0.523  53.923  1.00  0.00     0.039 C 
HETATM   19  C16 UNL     1      22.870  -1.183  55.063  1.00  0.00     0.127 C 
HETATM   20  N4  UNL     1      21.743  -1.971  54.663  1.00  0.00    -0.391 N 
HETATM   21  H5  UNL     1      19.025   2.757  51.127  1.00  0.00     0.316 HD
HETATM   22  H21 UNL     1      20.881  -2.439  54.326  1.00  0.00     0.159 HD
ENDROOT
BRANCH   9  23
HETATM   23  N2  UNL     1      21.989   3.946  48.876  1.00  0.00    -0.323 N 
HETATM   24 BR1  UNL     1      22.134   2.703  47.426  1.00  0.00     0.047 Br
HETATM   25  H9  UNL     1      21.448   4.773  49.219  1.00  0.00     0.174 HD
ENDBRANCH   9  23
TORSDOF 1
ENDMDL
MODEL 3
REMARK VINA RESULT:      -7.8      1.524      2.121
REMARK  1 active torsions:
REMARK  status: ('A' for Active; 'I' for Inactive)
REMARK    1  A    between atoms: C7_9  and  N2_10 
ROOT
HETATM    1  O1  UNL     1      25.884  -0.110  54.027  1.00  0.00     0.000 OA
HETATM    2  C1  UNL     1      25.710  -0.507  55.217  1.00  0.00     0.033 A 
HETATM    3  C2  UNL     1      26.996   0.238  54.895  1.00  0.00     0.053 A 
HETATM    4  C3  UNL     1      26.971   0.637  53.650  1.00  0.00     0.031 A 
HETATM    5  C4  UNL     1      26.878   1.066  52.215  1.00  0.00     0.275 C 
HETATM    6  N1  UNL     1      27.167   2.515  52.094  1.00  0.00     0.087 N 
HETATM    7  C5  UNL     1      26.705   3.001  50.780  1.00  0.00     0.299 C 
HETATM    8  C6  UNL     1      25.216   3.006  50.804  1.00  0.00     0.033 C 
HETATM    9  C7  UNL     1      24.459   4.117  50.659  1.00  0.00     0.035 C 
HETATM   10  C8  UNL     1      23.142   4.796  50.501  1.00  0.00     0.026 C 
HETATM   11  C9  UNL     1      22.124   3.957  50.440  1.00  0.00    -0.021 C 
HETATM   12  C10 UNL     1      20.943   3.107  50.365  1.00  0.00     0.055 C 
HETATM   13  C11 UNL     1      20.951   2.197  51.593  1.00  0.00    -0.006 C 
HETATM   14  C12 UNL     1      20.166   1.991  52.703  1.00  0.00     0.087 C 
HETATM   15  N3  UNL     1      20.845   0.969  53.355  1.00  0.00    -0.358 N 
HETATM   16  C13 UNL     1      20.307  -0.002  53.967  1.00  0.00     0.090 A 
HETATM   17  C14 UNL     1      21.747  -0.208  54.093  1.00  0.00     0.133 A 
HETATM   18  C15 UNL     1      23.091  -0.340  54.176  1.00  0.00     0.039 C 
HETATM   19  C16 UNL     1      23.679  -1.544  54.865  1.00  0.00     0.127 C 
HETATM   20  N4  UNL     1      24.638  -1.234  55.882  1.00  0.00    -0.391 N 
HETATM   21  H5  UNL     1      28.223   2.615  52.063  1.00  0.00     0.316 HD
HETATM   22  H21 UNL     1      25.397  -0.954  56.531  1.00  0.00     0.159 HD
ENDROOT
BRANCH   9  23
HETATM   23  N2  UNL     1      25.550   5.017  50.529  1.00  0.00    -0.323 N 
HETATM   24 BR1  UNL     1      25.138   5.999  48.937  1.00  0.00     0.047 Br
HETATM   25  H9  UNL     1      26.260   4.918  51.292  1.00  0.00     0.174 HD
ENDBRANCH   9  23
TORSDOF 1
ENDMDL
MODEL 4
REMARK VINA RESULT:      -7.6      2.548      4.850
REMARK  1 active torsions:
REMARK  status: ('A' for Active; 'I' for Inactive)
REMARK    1  A    between atoms: C7_9  and  N2_10 
ROOT
HETATM    1  O1  UNL     1      24.508   2.728  50.051  1.00  0.00     0.000 OA
HETATM    2  C1  UNL     1      25.444   3.492  50.430  1.00  0.00     0.033 A 
HETATM    3  C2  UNL     1      24.290   4.109  49.656  1.00  0.00     0.053 A 
HETATM    4  C3  UNL     1      23.386   3.196  49.415  1.00  0.00     0.031 A 
HETATM    5  C4  UNL     1      22.389   2.100  49.174  1.00  0.00     0.275 C 
HETATM    6  N1  UNL     1      21.039   2.533  49.607  1.00  0.00     0.087 N 
HETATM    7  C5  UNL     1      20.160   1.355  49.730  1.00  0.00     0.299 C 
HETATM    8  C6  UNL     1      20.611   0.584  50.922  1.00  0.00     0.033 C 
HETATM    9  C7  UNL     1      19.843   0.353  52.011  1.00  0.00     0.035 C 
HETATM   10  C8  UNL     1      19.597  -0.298  53.329  1.00  0.00     0.026 C 
HETATM   11  C9  UNL     1      20.571  -1.106  53.704  1.00  0.00    -0.021 C 
HETATM   12  C10 UNL     1      21.598  -2.015  54.199  1.00  0.00     0.055 C 
HETATM   13  C11 UNL     1      22.925  -1.257  54.198  1.00  0.00    -0.006 C 
HETATM   14  C12 UNL     1      23.846  -0.833  55.126  1.00  0.00     0.087 C 
HETATM   15  N3  UNL     1      24.799  -0.211  54.327  1.00  0.00    -0.358 N 
HETATM   16  C13 UNL     1      26.054  -0.256  54.503  1.00  0.00     0.090 A 
HETATM   17  C14 UNL     1      25.854   0.558  53.308  1.00  0.00     0.133 A 
HETATM   18  C15 UNL     1      25.602   1.305  52.208  1.00  0.00     0.039 C 
HETATM   19  C16 UNL     1      26.751   1.859  51.406  1.00  0.00     0.127 C 
HETATM   20  N4  UNL     1      26.679   3.270  51.169  1.00  0.00    -0.391 N 
HETATM   21  H5  UNL     1      20.627   3.096  48.808  1.00  0.00     0.316 HD
HETATM   22  H21 UNL     1      26.521   4.270  50.941  1.00  0.00     0.159 HD
ENDROOT
BRANCH   9  23
HETATM   23  N2  UNL     1      18.708   1.062  51.538  1.00  0.00    -0.323 N 
HETATM   24 BR1  UNL     1      17.297  -0.229  51.635  1.00  0.00     0.047 Br
HETATM   25  H9  UNL     1      18.920   2.051  51.271  1.00  0.00     0.174 HD
ENDBRANCH   9  23
TORSDOF 1
ENDMDL
MODEL 5
REMARK VINA RESULT:      -7.6      2.086      5.222
REMARK  1 active torsions:
REMARK  status: ('A' for Active; 'I' for Inactive)
REMARK    1  A    between atoms: C7_9  and  N2_10 
ROOT
HETATM    1  O1  UNL     1      20.381   1.301  52.640  1.00  0.00     0.000 OA
HETATM    2  C1  UNL     1      19.783   0.193  52.781  1.00  0.00     0.033 A 
HETATM    3  C2  UNL     1      19.385   1.073  51.607  1.00  0.00     0.053 A 
HETATM    4  C3  UNL     1      20.152   2.131  51.573  1.00  0.00     0.031 A 
HETATM    5  C4  UNL     1      21.067   3.321  51.591  1.00  0.00     0.275 C 
HETATM    6  N1  UNL     1      21.684   3.512  50.257  1.00  0.00     0.087 N 
HETATM    7  C5  UNL     1      22.845   4.415  50.377  1.00  0.00     0.299 C 
HETATM    8  C6  UNL     1      23.920   3.668  51.086  1.00  0.00     0.033 C 
HETATM    9  C7  UNL     1      25.128   3.383  50.549  1.00  0.00     0.035 C 
HETATM   10  C8  UNL     1      26.517   2.852  50.649  1.00  0.00     0.026 C 
HETATM   11  C9  UNL     1      26.834   2.441  51.863  1.00  0.00    -0.021 C 
HETATM   12  C10 UNL     1      27.269   1.963  53.169  1.00  0.00     0.055 C 
HETATM   13  C11 UNL     1      26.249   0.930  53.647  1.00  0.00    -0.006 C 
HETATM   14  C12 UNL     1      26.233  -0.413  53.940  1.00  0.00     0.087 C 
HETATM   15  N3  UNL     1      24.912  -0.612  54.322  1.00  0.00    -0.358 N 
HETATM   16  C13 UNL     1      24.519  -1.371  55.258  1.00  0.00     0.090 A 
HETATM   17  C14 UNL     1      23.308  -0.771  54.707  1.00  0.00     0.133 A 
HETATM   18  C15 UNL     1      22.225  -0.183  54.149  1.00  0.00     0.039 C 
HETATM   19  C16 UNL     1      20.856  -0.451  54.721  1.00  0.00     0.127 C 
HETATM   20  N4  UNL     1      19.888  -0.883  53.758  1.00  0.00    -0.391 N 
HETATM   21  H5  UNL     1      20.983   4.050  49.670  1.00  0.00     0.316 HD
HETATM   22  H21 UNL     1      19.207  -1.089  53.003  1.00  0.00     0.159 HD
ENDROOT
BRANCH   9  23
HETATM   23  N2  UNL     1      24.872   3.994  49.292  1.00  0.00    -0.323 N 
HETATM   24 BR1  UNL     1      26.388   5.134  49.028  1.00  0.00     0.047 Br
HETATM   25  H9  UNL     1      23.972   3.684  48.858  1.00  0.00     0.174 HD
ENDBRANCH   9  23
TORSDOF 1
ENDMDL
MODEL 6
REMARK VINA RESULT:      -7.5      2.756      6.613
REMARK  1 active torsions:
REMARK  status: ('A' for Active; 'I' for Inactive)
REMARK    1  A    between atoms: C7_9  and  N2_10 
ROOT
HETATM    1  O1  UNL     1      21.060  -0.168  52.578  1.00  0.00     0.000 OA
HETATM    2  C1  UNL     1      19.902   0.342  52.626  1.00  0.00     0.033 A 
HETATM    3  C2  UNL     1      20.445  -0.312  53.887  1.00  0.00     0.053 A 
HETATM    4  C3  UNL     1      21.672  -0.712  53.679  1.00  0.00     0.031 A 
HETATM    5  C4  UNL     1      23.076  -1.145  53.374  1.00  0.00     0.275 C 
HETATM    6  N1  UNL     1      24.004  -0.644  54.415  1.00  0.00     0.087 N 
HETATM    7  C5  UNL     1      25.391  -0.733  53.923  1.00  0.00     0.299 C 
HETATM    8  C6  UNL     1      25.558   0.303  52.867  1.00  0.00     0.033 C 
HETATM    9  C7  UNL     1      26.432   1.332  52.945  1.00  0.00     0.035 C 
HETATM   10  C8  UNL     1      27.124   2.513  52.356  1.00  0.00     0.026 C 
HETATM   11  C9  UNL     1      26.795   2.740  51.098  1.00  0.00    -0.021 C 
HETATM   12  C10 UNL     1      26.490   3.066  49.711  1.00  0.00     0.055 C 
HETATM   13  C11 UNL     1      24.972   3.201  49.592  1.00  0.00    -0.006 C 
HETATM   14  C12 UNL     1      24.067   4.191  49.289  1.00  0.00     0.087 C 
HETATM   15  N3  UNL     1      22.855   3.517  49.384  1.00  0.00    -0.358 N 
HETATM   16  C13 UNL     1      21.855   3.684  48.623  1.00  0.00     0.090 A 
HETATM   17  C14 UNL     1      21.456   2.652  49.575  1.00  0.00     0.133 A 
HETATM   18  C15 UNL     1      21.146   1.703  50.488  1.00  0.00     0.039 C 
HETATM   19  C16 UNL     1      19.807   1.014  50.420  1.00  0.00     0.127 C 
HETATM   20  N4  UNL     1      19.071   1.031  51.648  1.00  0.00    -0.391 N 
HETATM   21  H5  UNL     1      23.958  -1.331  55.223  1.00  0.00     0.316 HD
HETATM   22  H21 UNL     1      18.632   0.984  52.587  1.00  0.00     0.159 HD
ENDROOT
BRANCH   9  23
HETATM   23  N2  UNL     1      26.939   0.991  54.227  1.00  0.00    -0.323 N 
HETATM   24 BR1  UNL     1      28.839   1.033  53.985  1.00  0.00     0.047 Br
HETATM   25  H9  UNL     1      26.189   0.813  54.934  1.00  0.00     0.174 HD
ENDBRANCH   9  23
TORSDOF 1
ENDMDL
MODEL 7
REMARK VINA RESULT:      -7.3      3.368      6.151
REMARK  1 active torsions:
REMARK  status: ('A' for Active; 'I' for Inactive)
REMARK    1  A    between atoms: C7_9  and  N2_10 
ROOT
HETATM    1  O1  UNL     1      21.190   3.214  48.635  1.00  0.00     0.000 OA
HETATM    2  C1  UNL     1      20.438   2.908  47.664  1.00  0.00     0.033 A 
HETATM    3  C2  UNL     1      21.897   3.214  47.366  1.00  0.00     0.053 A 
HETATM    4  C3  UNL     1      22.537   3.433  48.486  1.00  0.00     0.031 A 
HETATM    5  C4  UNL     1      23.209   3.671  49.806  1.00  0.00     0.275 C 
HETATM    6  N1  UNL     1      24.428   2.835  49.917  1.00  0.00     0.087 N 
HETATM    7  C5  UNL     1      24.859   2.778  51.327  1.00  0.00     0.299 C 
HETATM    8  C6  UNL     1      23.870   1.943  52.063  1.00  0.00     0.033 C 
HETATM    9  C7  UNL     1      24.174   0.785  52.690  1.00  0.00     0.035 C 
HETATM   10  C8  UNL     1      23.815  -0.367  53.566  1.00  0.00     0.026 C 
HETATM   11  C9  UNL     1      22.586  -0.297  54.046  1.00  0.00    -0.021 C 
HETATM   12  C10 UNL     1      21.246  -0.303  54.618  1.00  0.00     0.055 C 
HETATM   13  C11 UNL     1      20.251  -0.155  53.467  1.00  0.00    -0.006 C 
HETATM   14  C12 UNL     1      19.250  -0.903  52.896  1.00  0.00     0.087 C 
HETATM   15  N3  UNL     1      18.800  -0.064  51.884  1.00  0.00    -0.358 N 
HETATM   16  C13 UNL     1      17.592   0.085  51.530  1.00  0.00     0.090 A 
HETATM   17  C14 UNL     1      18.366   0.975  50.669  1.00  0.00     0.133 A 
HETATM   18  C15 UNL     1      19.139   1.777  49.901  1.00  0.00     0.039 C 
HETATM   19  C16 UNL     1      18.493   2.683  48.885  1.00  0.00     0.127 C 
HETATM   20  N4  UNL     1      19.027   2.563  47.562  1.00  0.00    -0.391 N 
HETATM   21  H5  UNL     1      25.205   3.358  49.418  1.00  0.00     0.316 HD
HETATM   22  H21 UNL     1      19.522   2.509  46.652  1.00  0.00     0.159 HD
ENDROOT
BRANCH   9  23
HETATM   23  N2  UNL     1      25.551   0.791  52.343  1.00  0.00    -0.323 N 
HETATM   24 BR1  UNL     1      26.209  -0.849  53.083  1.00  0.00     0.047 Br
HETATM   25  H9  UNL     1      25.837   1.640  51.805  1.00  0.00     0.174 HD
ENDBRANCH   9  23
TORSDOF 1
ENDMDL
MODEL 8
REMARK VINA RESULT:      -7.2      2.242      5.032
REMARK  1 active torsions:
REMARK  status: ('A' for Active; 'I' for Inactive)
REMARK    1  A    between atoms: C7_9  and  N2_10 
ROOT
HETATM    1  O1  UNL     1      22.775  -0.629  54.840  1.00  0.00     0.000 OA
HETATM    2  C1  UNL     1      23.522  -1.546  55.291  1.00  0.00     0.033 A 
HETATM    3  C2  UNL     1      22.077  -1.896  54.974  1.00  0.00     0.053 A 
HETATM    4  C3  UNL     1      21.480  -0.857  54.450  1.00  0.00     0.031 A 
HETATM    5  C4  UNL     1      20.856   0.371  53.854  1.00  0.00     0.275 C 
HETATM    6  N1  UNL     1      20.188   0.035  52.574  1.00  0.00     0.087 N 
HETATM    7  C5  UNL     1      19.921   1.273  51.818  1.00  0.00     0.299 C 
HETATM    8  C6  UNL     1      21.231   1.790  51.332  1.00  0.00     0.033 C 
HETATM    9  C7  UNL     1      21.551   1.935  50.026  1.00  0.00     0.035 C 
HETATM   10  C8  UNL     1      22.465   2.394  48.942  1.00  0.00     0.026 C 
HETATM   11  C9  UNL     1      23.540   3.015  49.392  1.00  0.00    -0.021 C 
HETATM   12  C10 UNL     1      24.756   3.709  49.798  1.00  0.00     0.055 C 
HETATM   13  C11 UNL     1      25.490   2.812  50.794  1.00  0.00    -0.006 C 
HETATM   14  C12 UNL     1      26.689   2.144  50.858  1.00  0.00     0.087 C 
HETATM   15  N3  UNL     1      26.625   1.549  52.112  1.00  0.00    -0.358 N 
HETATM   16  C13 UNL     1      27.594   1.419  52.919  1.00  0.00     0.090 A 
HETATM   17  C14 UNL     1      26.441   0.833  53.594  1.00  0.00     0.133 A 
HETATM   18  C15 UNL     1      25.335   0.302  54.165  1.00  0.00     0.039 C 
HETATM   19  C16 UNL     1      25.412  -0.250  55.565  1.00  0.00     0.127 C 
HETATM   20  N4  UNL     1      24.919  -1.587  55.701  1.00  0.00    -0.391 N 
HETATM   21  H5  UNL     1      19.227  -0.343  52.820  1.00  0.00     0.316 HD
HETATM   22  H21 UNL     1      24.455  -2.514  55.758  1.00  0.00     0.159 HD
ENDROOT
BRANCH   9  23
HETATM   23  N2  UNL     1      20.317   1.445  49.521  1.00  0.00    -0.323 N 
HETATM   24 BR1  UNL     1      19.816   2.751  48.213  1.00  0.00     0.047 Br
HETATM   25  H9  UNL     1      20.015   0.549  49.968  1.00  0.00     0.174 HD
ENDBRANCH   9  23
TORSDOF 1
ENDMDL
MODEL 9
REMARK VINA RESULT:      -7.2      3.042      5.737
REMARK  1 active torsions:
REMARK  status: ('A' for Active; 'I' for Inactive)
REMARK    1  A    between atoms: C7_9  and  N2_10 
ROOT
HETATM    1  O1  UNL     1      19.391  -0.089  53.058  1.00  0.00     0.000 OA
HETATM    2  C1  UNL     1      19.625  -1.174  53.668  1.00  0.00     0.033 A 
HETATM    3  C2  UNL     1      18.407  -1.115  52.759  1.00  0.00     0.053 A 
HETATM    4  C3  UNL     1      18.365   0.045  52.157  1.00  0.00     0.031 A 
HETATM    5  C4  UNL     1      18.378   1.394  51.500  1.00  0.00     0.275 C 
HETATM    6  N1  UNL     1      18.244   1.248  50.031  1.00  0.00     0.087 N 
HETATM    7  C5  UNL     1      18.639   2.509  49.373  1.00  0.00     0.299 C 
HETATM    8  C6  UNL     1      20.115   2.643  49.515  1.00  0.00     0.033 C 
HETATM    9  C7  UNL     1      20.976   2.688  48.474  1.00  0.00     0.035 C 
HETATM   10  C8  UNL     1      22.342   2.874  47.907  1.00  0.00     0.026 C 
HETATM   11  C9  UNL     1      23.249   3.178  48.817  1.00  0.00    -0.021 C 
HETATM   12  C10 UNL     1      24.316   3.515  49.752  1.00  0.00     0.055 C 
HETATM   13  C11 UNL     1      24.315   2.455  50.854  1.00  0.00    -0.006 C 
HETATM   14  C12 UNL     1      25.168   1.484  51.320  1.00  0.00     0.087 C 
HETATM   15  N3  UNL     1      24.440   0.935  52.369  1.00  0.00    -0.358 N 
HETATM   16  C13 UNL     1      24.917   0.549  53.478  1.00  0.00     0.090 A 
HETATM   17  C14 UNL     1      23.480   0.304  53.563  1.00  0.00     0.133 A 
HETATM   18  C15 UNL     1      22.143   0.100  53.578  1.00  0.00     0.039 C 
HETATM   19  C16 UNL     1      21.487  -0.445  54.820  1.00  0.00     0.127 C 
HETATM   20  N4  UNL     1      20.664  -1.595  54.598  1.00  0.00    -0.391 N 
HETATM   21  H5  UNL     1      17.208   1.149  49.826  1.00  0.00     0.316 HD
HETATM   22  H21 UNL     1      20.002  -2.358  54.361  1.00  0.00     0.159 HD
ENDROOT
BRANCH   9  23
HETATM   23  N2  UNL     1      19.986   2.554  47.464  1.00  0.00    -0.323 N 
HETATM   24 BR1  UNL     1      20.366   3.998  46.265  1.00  0.00     0.047 Br
HETATM   25  H9  UNL     1      19.339   1.748  47.625  1.00  0.00     0.174 HD
ENDBRANCH   9  23
TORSDOF 1
ENDMDL
