MODEL 1
REMARK VINA RESULT:      -8.0      0.000      0.000
REMARK  7 active torsions:
REMARK  status: ('A' for Active; 'I' for Inactive)
REMARK    1  A    between atoms: O1_2  and  C2_3 
REMARK    2  A    between atoms: C3_4  and  C4_5 
REMARK    3  A    between atoms: C4_5  and  C5_6 
REMARK    4  A    between atoms: C5_6  and  C6_7 
REMARK    5  A    between atoms: C7_8  and  C8_9 
REMARK    6  A    between atoms: C8_9  and  C9_10 
REMARK    7  A    between atoms: C9_10  and  O2_11 
ROOT
HETATM    1  C2  UNL     1      21.851   3.043  51.739  1.00  0.00     0.118 C 
HETATM    2  C3  UNL     1      22.969   2.278  51.765  1.00  0.00     0.080 C 
HETATM    3  O3  UNL     1      24.028   2.814  51.194  1.00  0.00    -0.348 OA
HETATM    4  C10 UNL     1      25.102   3.304  50.712  1.00  0.00     0.214 C 
HETATM    5  C11 UNL     1      24.993   4.160  49.400  1.00  0.00    -0.032 C 
HETATM    6  C12 UNL     1      25.251   5.394  48.969  1.00  0.00     0.028 C 
HETATM    7  C13 UNL     1      25.737   6.536  49.673  1.00  0.00     0.118 C 
HETATM    8  N1  UNL     1      25.030   6.660  50.795  1.00  0.00    -0.255 NA
HETATM    9  C14 UNL     1      23.977   5.742  51.005  1.00  0.00     0.229 C 
HETATM   10  N2  UNL     1      23.221   4.826  51.325  1.00  0.00    -0.250 NA
HETATM   11  C15 UNL     1      21.902   4.401  51.106  1.00  0.00     0.265 C 
HETATM   12  N3  UNL     1      21.399   4.544  49.828  1.00  0.00    -0.378 N 
HETATM   13  C16 UNL     1      20.168   3.869  49.503  1.00  0.00     0.150 C 
HETATM   14  C17 UNL     1      20.311   2.840  48.423  1.00  0.00     0.035 C 
HETATM   15  C18 UNL     1      21.502   2.214  48.259  1.00  0.00     0.122 C 
HETATM   16  F1  UNL     1      22.224   1.101  47.924  1.00  0.00    -0.206 F 
HETATM   17  C19 UNL     1      22.688   3.052  48.596  1.00  0.00    -0.002 C 
HETATM   18  C20 UNL     1      23.849   3.296  49.111  1.00  0.00     0.021 C 
HETATM   19  C21 UNL     1      22.224   4.484  48.638  1.00  0.00     0.161 C 
ENDROOT
BRANCH   2  20
HETATM   20  C4  UNL     1      23.408   0.982  52.236  1.00  0.00     0.071 C 
BRANCH  20  21
HETATM   21  C5  UNL     1      24.665   1.026  53.085  1.00  0.00     0.033 C 
BRANCH  21  22
HETATM   22  C6  UNL     1      25.452  -0.217  52.878  1.00  0.00    -0.030 C 
HETATM   23  C7  UNL     1      26.722  -0.555  52.917  1.00  0.00    -0.029 C 
BRANCH  23  24
HETATM   24  C8  UNL     1      27.130  -1.979  52.636  1.00  0.00     0.053 C 
BRANCH  24  25
HETATM   25  C9  UNL     1      28.568  -2.216  53.030  1.00  0.00     0.168 C 
BRANCH  25  26
HETATM   26  O2  UNL     1      28.671  -3.558  53.412  1.00  0.00    -0.401 OA
HETATM   27  H14 UNL     1      28.078  -3.736  54.199  1.00  0.00     0.209 HD
ENDBRANCH  25  26
ENDBRANCH  24  25
ENDBRANCH  23  24
ENDBRANCH  21  22
ENDBRANCH  20  21
ENDBRANCH   2  20
BRANCH   1  28
HETATM   28  O1  UNL     1      21.406   1.935  52.369  1.00  0.00    -0.354 OA
HETATM   29  C1  UNL     1      20.050   1.587  52.558  1.00  0.00     0.209 C 
ENDBRANCH   1  28
TORSDOF 7
ENDMDL
MODEL 2
REMARK VINA RESULT:      -7.6      1.710      1.809
REMARK  7 active torsions:
REMARK  status: ('A' for Active; 'I' for Inactive)
REMARK    1  A    between atoms: O1_2  and  C2_3 
REMARK    2  A    between atoms: C3_4  and  C4_5 
REMARK    3  A    between atoms: C4_5  and  C5_6 
REMARK    4  A    between atoms: C5_6  and  C6_7 
REMARK    5  A    between atoms: C7_8  and  C8_9 
REMARK    6  A    between atoms: C8_9  and  C9_10 
REMARK    7  A    between atoms: C9_10  and  O2_11 
ROOT
HETATM    1  C2  UNL     1      22.178   4.191  51.745  1.00  0.00     0.118 C 
HETATM    2  C3  UNL     1      23.233   3.370  51.966  1.00  0.00     0.080 C 
HETATM    3  O3  UNL     1      24.354   3.728  51.371  1.00  0.00    -0.348 OA
HETATM    4  C10 UNL     1      25.481   4.054  50.874  1.00  0.00     0.214 C 
HETATM    5  C11 UNL     1      25.494   4.672  49.430  1.00  0.00    -0.032 C 
HETATM    6  C12 UNL     1      25.863   5.791  48.809  1.00  0.00     0.028 C 
HETATM    7  C13 UNL     1      26.401   7.004  49.333  1.00  0.00     0.118 C 
HETATM    8  N1  UNL     1      25.656   7.369  50.376  1.00  0.00    -0.255 NA
HETATM    9  C14 UNL     1      24.530   6.574  50.680  1.00  0.00     0.229 C 
HETATM   10  N2  UNL     1      23.694   5.780  51.110  1.00  0.00    -0.250 NA
HETATM   11  C15 UNL     1      22.358   5.411  50.893  1.00  0.00     0.265 C 
HETATM   12  N3  UNL     1      21.924   5.361  49.583  1.00  0.00    -0.378 N 
HETATM   13  C16 UNL     1      20.661   4.722  49.310  1.00  0.00     0.150 C 
HETATM   14  C17 UNL     1      20.775   3.513  48.432  1.00  0.00     0.035 C 
HETATM   15  C18 UNL     1      21.922   2.790  48.445  1.00  0.00     0.122 C 
HETATM   16  F1  UNL     1      22.572   1.591  48.348  1.00  0.00    -0.206 F 
HETATM   17  C19 UNL     1      23.151   3.595  48.700  1.00  0.00    -0.002 C 
HETATM   18  C20 UNL     1      24.303   3.848  49.230  1.00  0.00     0.021 C 
HETATM   19  C21 UNL     1      22.794   5.039  48.469  1.00  0.00     0.161 C 
ENDROOT
BRANCH   2  20
HETATM   20  C4  UNL     1      23.554   2.151  52.676  1.00  0.00     0.071 C 
BRANCH  20  21
HETATM   21  C5  UNL     1      24.304   1.129  51.844  1.00  0.00     0.033 C 
BRANCH  21  22
HETATM   22  C6  UNL     1      25.599   0.807  52.495  1.00  0.00    -0.030 C 
HETATM   23  C7  UNL     1      26.858   1.149  52.327  1.00  0.00    -0.029 C 
BRANCH  23  24
HETATM   24  C8  UNL     1      27.919   0.579  53.236  1.00  0.00     0.053 C 
BRANCH  24  25
HETATM   25  C9  UNL     1      28.795   1.674  53.795  1.00  0.00     0.168 C 
BRANCH  25  26
HETATM   26  O2  UNL     1      27.960   2.761  54.079  1.00  0.00    -0.401 OA
HETATM   27  H14 UNL     1      28.512   3.562  54.319  1.00  0.00     0.209 HD
ENDBRANCH  25  26
ENDBRANCH  24  25
ENDBRANCH  23  24
ENDBRANCH  21  22
ENDBRANCH  20  21
ENDBRANCH   2  20
BRANCH   1  28
HETATM   28  O1  UNL     1      21.624   3.243  52.530  1.00  0.00    -0.354 OA
HETATM   29  C1  UNL     1      20.277   2.822  52.484  1.00  0.00     0.209 C 
ENDBRANCH   1  28
TORSDOF 7
ENDMDL
MODEL 3
REMARK VINA RESULT:      -7.6      1.305      1.482
REMARK  7 active torsions:
REMARK  status: ('A' for Active; 'I' for Inactive)
REMARK    1  A    between atoms: O1_2  and  C2_3 
REMARK    2  A    between atoms: C3_4  and  C4_5 
REMARK    3  A    between atoms: C4_5  and  C5_6 
REMARK    4  A    between atoms: C5_6  and  C6_7 
REMARK    5  A    between atoms: C7_8  and  C8_9 
REMARK    6  A    between atoms: C8_9  and  C9_10 
REMARK    7  A    between atoms: C9_10  and  O2_11 
ROOT
HETATM    1  C2  UNL     1      21.809   4.279  51.516  1.00  0.00     0.118 C 
HETATM    2  C3  UNL     1      22.792   3.423  51.885  1.00  0.00     0.080 C 
HETATM    3  O3  UNL     1      23.981   3.687  51.383  1.00  0.00    -0.348 OA
HETATM    4  C10 UNL     1      25.167   3.926  50.981  1.00  0.00     0.214 C 
HETATM    5  C11 UNL     1      25.350   4.451  49.512  1.00  0.00    -0.032 C 
HETATM    6  C12 UNL     1      25.837   5.511  48.867  1.00  0.00     0.028 C 
HETATM    7  C13 UNL     1      26.388   6.726  49.371  1.00  0.00     0.118 C 
HETATM    8  N1  UNL     1      25.570   7.191  50.313  1.00  0.00    -0.255 NA
HETATM    9  C14 UNL     1      24.378   6.473  50.551  1.00  0.00     0.229 C 
HETATM   10  N2  UNL     1      23.463   5.749  50.942  1.00  0.00    -0.250 NA
HETATM   11  C15 UNL     1      22.135   5.433  50.617  1.00  0.00     0.265 C 
HETATM   12  N3  UNL     1      21.825   5.323  49.276  1.00  0.00    -0.378 N 
HETATM   13  C16 UNL     1      20.560   4.731  48.918  1.00  0.00     0.150 C 
HETATM   14  C17 UNL     1      20.690   3.465  48.126  1.00  0.00     0.035 C 
HETATM   15  C18 UNL     1      21.789   2.689  48.293  1.00  0.00     0.122 C 
HETATM   16  F1  UNL     1      22.379   1.456  48.328  1.00  0.00    -0.206 F 
HETATM   17  C19 UNL     1      23.031   3.447  48.619  1.00  0.00    -0.002 C 
HETATM   18  C20 UNL     1      24.140   3.676  49.244  1.00  0.00     0.021 C 
HETATM   19  C21 UNL     1      22.777   4.890  48.273  1.00  0.00     0.161 C 
ENDROOT
BRANCH   2  20
HETATM   20  C4  UNL     1      22.976   2.236  52.692  1.00  0.00     0.071 C 
BRANCH  20  21
HETATM   21  C5  UNL     1      23.464   1.028  51.914  1.00  0.00     0.033 C 
BRANCH  21  22
HETATM   22  C6  UNL     1      24.655   0.449  52.585  1.00  0.00    -0.030 C 
HETATM   23  C7  UNL     1      25.940   0.352  52.323  1.00  0.00    -0.029 C 
BRANCH  23  24
HETATM   24  C8  UNL     1      26.856  -0.341  53.300  1.00  0.00     0.053 C 
BRANCH  24  25
HETATM   25  C9  UNL     1      26.806   0.327  54.654  1.00  0.00     0.168 C 
BRANCH  25  26
HETATM   26  O2  UNL     1      26.172  -0.566  55.525  1.00  0.00    -0.401 OA
HETATM   27  H14 UNL     1      25.987  -0.114  56.400  1.00  0.00     0.209 HD
ENDBRANCH  25  26
ENDBRANCH  24  25
ENDBRANCH  23  24
ENDBRANCH  21  22
ENDBRANCH  20  21
ENDBRANCH   2  20
BRANCH   1  28
HETATM   28  O1  UNL     1      21.132   3.410  52.296  1.00  0.00    -0.354 OA
HETATM   29  C1  UNL     1      19.794   3.002  52.102  1.00  0.00     0.209 C 
ENDBRANCH   1  28
TORSDOF 7
ENDMDL
MODEL 4
REMARK VINA RESULT:      -7.5      7.733     10.840
REMARK  7 active torsions:
REMARK  status: ('A' for Active; 'I' for Inactive)
REMARK    1  A    between atoms: O1_2  and  C2_3 
REMARK    2  A    between atoms: C3_4  and  C4_5 
REMARK    3  A    between atoms: C4_5  and  C5_6 
REMARK    4  A    between atoms: C5_6  and  C6_7 
REMARK    5  A    between atoms: C7_8  and  C8_9 
REMARK    6  A    between atoms: C8_9  and  C9_10 
REMARK    7  A    between atoms: C9_10  and  O2_11 
ROOT
HETATM    1  C2  UNL     1      32.360   8.476  48.266  1.00  0.00     0.118 C 
HETATM    2  C3  UNL     1      31.319   7.618  48.387  1.00  0.00     0.080 C 
HETATM    3  O3  UNL     1      31.595   6.360  48.111  1.00  0.00    -0.348 OA
HETATM    4  C10 UNL     1      31.815   5.120  47.917  1.00  0.00     0.214 C 
HETATM    5  C11 UNL     1      32.787   4.721  46.750  1.00  0.00    -0.032 C 
HETATM    6  C12 UNL     1      33.937   4.075  46.563  1.00  0.00     0.028 C 
HETATM    7  C13 UNL     1      34.830   3.488  47.508  1.00  0.00     0.118 C 
HETATM    8  N1  UNL     1      35.038   4.370  48.484  1.00  0.00    -0.255 NA
HETATM    9  C14 UNL     1      34.429   5.638  48.354  1.00  0.00     0.229 C 
HETATM   10  N2  UNL     1      33.730   6.650  48.387  1.00  0.00    -0.250 NA
HETATM   11  C15 UNL     1      33.706   7.951  47.864  1.00  0.00     0.265 C 
HETATM   12  N3  UNL     1      34.101   8.109  46.551  1.00  0.00    -0.378 N 
HETATM   13  C16 UNL     1      33.823   9.367  45.904  1.00  0.00     0.150 C 
HETATM   14  C17 UNL     1      32.901   9.250  44.728  1.00  0.00     0.035 C 
HETATM   15  C18 UNL     1      31.990   8.247  44.699  1.00  0.00     0.122 C 
HETATM   16  F1  UNL     1      30.758   7.769  44.343  1.00  0.00    -0.206 F 
HETATM   17  C19 UNL     1      32.435   6.993  45.373  1.00  0.00    -0.002 C 
HETATM   18  C20 UNL     1      32.301   5.951  46.126  1.00  0.00     0.021 C 
HETATM   19  C21 UNL     1      33.929   7.084  45.540  1.00  0.00     0.161 C 
ENDROOT
BRANCH   2  20
HETATM   20  C4  UNL     1      29.914   7.630  48.734  1.00  0.00     0.071 C 
BRANCH  20  21
HETATM   21  C5  UNL     1      29.002   7.110  47.639  1.00  0.00     0.033 C 
BRANCH  21  22
HETATM   22  C6  UNL     1      27.908   6.305  48.239  1.00  0.00    -0.030 C 
HETATM   23  C7  UNL     1      27.733   5.050  48.590  1.00  0.00    -0.029 C 
BRANCH  23  24
HETATM   24  C8  UNL     1      26.421   4.613  49.192  1.00  0.00     0.053 C 
BRANCH  24  25
HETATM   25  C9  UNL     1      26.532   3.227  49.780  1.00  0.00     0.168 C 
BRANCH  25  26
HETATM   26  O2  UNL     1      27.183   3.357  51.011  1.00  0.00    -0.401 OA
HETATM   27  H14 UNL     1      28.091   2.936  50.963  1.00  0.00     0.209 HD
ENDBRANCH  25  26
ENDBRANCH  24  25
ENDBRANCH  23  24
ENDBRANCH  21  22
ENDBRANCH  20  21
ENDBRANCH   2  20
BRANCH   1  28
HETATM   28  O1  UNL     1      31.363   9.311  48.630  1.00  0.00    -0.354 OA
HETATM   29  C1  UNL     1      31.230  10.657  48.225  1.00  0.00     0.209 C 
ENDBRANCH   1  28
TORSDOF 7
ENDMDL
MODEL 5
REMARK VINA RESULT:      -7.3      2.627      3.482
REMARK  7 active torsions:
REMARK  status: ('A' for Active; 'I' for Inactive)
REMARK    1  A    between atoms: O1_2  and  C2_3 
REMARK    2  A    between atoms: C3_4  and  C4_5 
REMARK    3  A    between atoms: C4_5  and  C5_6 
REMARK    4  A    between atoms: C5_6  and  C6_7 
REMARK    5  A    between atoms: C7_8  and  C8_9 
REMARK    6  A    between atoms: C8_9  and  C9_10 
REMARK    7  A    between atoms: C9_10  and  O2_11 
ROOT
HETATM    1  C2  UNL     1      21.643   4.080  51.509  1.00  0.00     0.118 C 
HETATM    2  C3  UNL     1      22.581   3.198  51.932  1.00  0.00     0.080 C 
HETATM    3  O3  UNL     1      23.791   3.393  51.448  1.00  0.00    -0.348 OA
HETATM    4  C10 UNL     1      24.994   3.566  51.064  1.00  0.00     0.214 C 
HETATM    5  C11 UNL     1      25.231   4.027  49.582  1.00  0.00    -0.032 C 
HETATM    6  C12 UNL     1      25.776   5.039  48.909  1.00  0.00     0.028 C 
HETATM    7  C13 UNL     1      26.368   6.249  49.380  1.00  0.00     0.118 C 
HETATM    8  N1  UNL     1      25.550   6.784  50.285  1.00  0.00    -0.255 NA
HETATM    9  C14 UNL     1      24.324   6.126  50.522  1.00  0.00     0.229 C 
HETATM   10  N2  UNL     1      23.370   5.456  50.918  1.00  0.00    -0.250 NA
HETATM   11  C15 UNL     1      22.038   5.184  50.575  1.00  0.00     0.265 C 
HETATM   12  N3  UNL     1      21.752   5.036  49.232  1.00  0.00    -0.378 N 
HETATM   13  C16 UNL     1      20.471   4.484  48.867  1.00  0.00     0.150 C 
HETATM   14  C17 UNL     1      20.564   3.185  48.126  1.00  0.00     0.035 C 
HETATM   15  C18 UNL     1      21.625   2.370  48.347  1.00  0.00     0.122 C 
HETATM   16  F1  UNL     1      22.161   1.116  48.442  1.00  0.00    -0.206 F 
HETATM   17  C19 UNL     1      22.891   3.087  48.674  1.00  0.00    -0.002 C 
HETATM   18  C20 UNL     1      23.995   3.293  49.315  1.00  0.00     0.021 C 
HETATM   19  C21 UNL     1      22.706   4.526  48.268  1.00  0.00     0.161 C 
ENDROOT
BRANCH   2  20
HETATM   20  C4  UNL     1      22.697   2.036  52.786  1.00  0.00     0.071 C 
BRANCH  20  21
HETATM   21  C5  UNL     1      22.687   0.715  52.040  1.00  0.00     0.033 C 
BRANCH  21  22
HETATM   22  C6  UNL     1      21.612  -0.156  52.580  1.00  0.00    -0.030 C 
HETATM   23  C7  UNL     1      21.264  -0.613  53.763  1.00  0.00    -0.029 C 
BRANCH  23  24
HETATM   24  C8  UNL     1      20.058  -1.509  53.898  1.00  0.00     0.053 C 
BRANCH  24  25
HETATM   25  C9  UNL     1      18.833  -0.857  53.304  1.00  0.00     0.168 C 
BRANCH  25  26
HETATM   26  O2  UNL     1      17.733  -1.303  54.045  1.00  0.00    -0.401 OA
HETATM   27  H14 UNL     1      17.864  -1.086  55.014  1.00  0.00     0.209 HD
ENDBRANCH  25  26
ENDBRANCH  24  25
ENDBRANCH  23  24
ENDBRANCH  21  22
ENDBRANCH  20  21
ENDBRANCH   2  20
BRANCH   1  28
HETATM   28  O1  UNL     1      20.913   3.270  52.305  1.00  0.00    -0.354 OA
HETATM   29  C1  UNL     1      19.560   2.922  52.102  1.00  0.00     0.209 C 
ENDBRANCH   1  28
TORSDOF 7
ENDMDL
MODEL 6
REMARK VINA RESULT:      -7.2      2.174      4.456
REMARK  7 active torsions:
REMARK  status: ('A' for Active; 'I' for Inactive)
REMARK    1  A    between atoms: O1_2  and  C2_3 
REMARK    2  A    between atoms: C3_4  and  C4_5 
REMARK    3  A    between atoms: C4_5  and  C5_6 
REMARK    4  A    between atoms: C5_6  and  C6_7 
REMARK    5  A    between atoms: C7_8  and  C8_9 
REMARK    6  A    between atoms: C8_9  and  C9_10 
REMARK    7  A    between atoms: C9_10  and  O2_11 
ROOT
HETATM    1  C2  UNL     1      24.606   3.123  49.866  1.00  0.00     0.118 C 
HETATM    2  C3  UNL     1      24.807   2.202  50.839  1.00  0.00     0.080 C 
HETATM    3  O3  UNL     1      23.713   1.642  51.315  1.00  0.00    -0.348 OA
HETATM    4  C10 UNL     1      22.698   1.021  51.771  1.00  0.00     0.214 C 
HETATM    5  C11 UNL     1      21.373   1.837  51.984  1.00  0.00    -0.032 C 
HETATM    6  C12 UNL     1      20.108   1.844  51.567  1.00  0.00     0.028 C 
HETATM    7  C13 UNL     1      19.448   1.023  50.606  1.00  0.00     0.118 C 
HETATM    8  N1  UNL     1      20.212   0.968  49.516  1.00  0.00    -0.255 NA
HETATM    9  C14 UNL     1      21.398   1.734  49.514  1.00  0.00     0.229 C 
HETATM   10  N2  UNL     1      22.538   2.194  49.574  1.00  0.00    -0.250 NA
HETATM   11  C15 UNL     1      23.210   3.413  49.402  1.00  0.00     0.265 C 
HETATM   12  N3  UNL     1      22.587   4.548  49.881  1.00  0.00    -0.378 N 
HETATM   13  C16 UNL     1      23.361   5.760  49.975  1.00  0.00     0.150 C 
HETATM   14  C17 UNL     1      23.509   6.274  51.376  1.00  0.00     0.035 C 
HETATM   15  C18 UNL     1      23.475   5.398  52.409  1.00  0.00     0.122 C 
HETATM   16  F1  UNL     1      23.886   5.014  53.657  1.00  0.00    -0.206 F 
HETATM   17  C19 UNL     1      22.599   4.213  52.182  1.00  0.00    -0.002 C 
HETATM   18  C20 UNL     1      22.280   2.960  52.217  1.00  0.00     0.021 C 
HETATM   19  C21 UNL     1      21.695   4.543  51.023  1.00  0.00     0.161 C 
ENDROOT
BRANCH   2  20
HETATM   20  C4  UNL     1      25.894   1.599  51.580  1.00  0.00     0.071 C 
BRANCH  20  21
HETATM   21  C5  UNL     1      25.889   1.924  53.062  1.00  0.00     0.033 C 
BRANCH  21  22
HETATM   22  C6  UNL     1      27.043   1.264  53.723  1.00  0.00    -0.030 C 
HETATM   23  C7  UNL     1      28.188   0.744  53.339  1.00  0.00    -0.029 C 
BRANCH  23  24
HETATM   24  C8  UNL     1      29.123   0.147  54.361  1.00  0.00     0.053 C 
BRANCH  24  25
HETATM   25  C9  UNL     1      29.821  -1.072  53.807  1.00  0.00     0.168 C 
BRANCH  25  26
HETATM   26  O2  UNL     1      28.827  -2.004  53.492  1.00  0.00    -0.401 OA
HETATM   27  H14 UNL     1      28.090  -1.558  52.982  1.00  0.00     0.209 HD
ENDBRANCH  25  26
ENDBRANCH  24  25
ENDBRANCH  23  24
ENDBRANCH  21  22
ENDBRANCH  20  21
ENDBRANCH   2  20
BRANCH   1  28
HETATM   28  O1  UNL     1      25.949   3.155  49.995  1.00  0.00    -0.354 OA
HETATM   29  C1  UNL     1      26.820   4.028  49.307  1.00  0.00     0.209 C 
ENDBRANCH   1  28
TORSDOF 7
ENDMDL
MODEL 7
REMARK VINA RESULT:      -7.1      6.562      9.923
REMARK  7 active torsions:
REMARK  status: ('A' for Active; 'I' for Inactive)
REMARK    1  A    between atoms: O1_2  and  C2_3 
REMARK    2  A    between atoms: C3_4  and  C4_5 
REMARK    3  A    between atoms: C4_5  and  C5_6 
REMARK    4  A    between atoms: C5_6  and  C6_7 
REMARK    5  A    between atoms: C7_8  and  C8_9 
REMARK    6  A    between atoms: C8_9  and  C9_10 
REMARK    7  A    between atoms: C9_10  and  O2_11 
ROOT
HETATM    1  C2  UNL     1      29.963   8.176  48.884  1.00  0.00     0.118 C 
HETATM    2  C3  UNL     1      29.481   7.092  48.230  1.00  0.00     0.080 C 
HETATM    3  O3  UNL     1      30.397   6.300  47.709  1.00  0.00    -0.348 OA
HETATM    4  C10 UNL     1      31.235   5.464  47.237  1.00  0.00     0.214 C 
HETATM    5  C11 UNL     1      32.543   6.030  46.576  1.00  0.00    -0.032 C 
HETATM    6  C12 UNL     1      33.865   5.967  46.728  1.00  0.00     0.028 C 
HETATM    7  C13 UNL     1      34.651   5.308  47.719  1.00  0.00     0.118 C 
HETATM    8  N1  UNL     1      34.141   5.604  48.914  1.00  0.00    -0.255 NA
HETATM    9  C14 UNL     1      33.049   6.498  48.951  1.00  0.00     0.229 C 
HETATM   10  N2  UNL     1      31.964   7.077  48.997  1.00  0.00    -0.250 NA
HETATM   11  C15 UNL     1      31.445   8.380  48.984  1.00  0.00     0.265 C 
HETATM   12  N3  UNL     1      32.037   9.284  48.126  1.00  0.00    -0.378 N 
HETATM   13  C16 UNL     1      31.360  10.533  47.881  1.00  0.00     0.150 C 
HETATM   14  C17 UNL     1      30.953  10.728  46.451  1.00  0.00     0.035 C 
HETATM   15  C18 UNL     1      30.690   9.642  45.684  1.00  0.00     0.122 C 
HETATM   16  F1  UNL     1      29.989   9.041  44.675  1.00  0.00    -0.206 F 
HETATM   17  C19 UNL     1      31.498   8.437  46.029  1.00  0.00    -0.002 C 
HETATM   18  C20 UNL     1      31.700   7.179  46.248  1.00  0.00     0.021 C 
HETATM   19  C21 UNL     1      32.656   8.903  46.871  1.00  0.00     0.161 C 
ENDROOT
BRANCH   2  20
HETATM   20  C4  UNL     1      28.215   6.482  47.887  1.00  0.00     0.071 C 
BRANCH  20  21
HETATM   21  C5  UNL     1      27.990   5.123  48.522  1.00  0.00     0.033 C 
BRANCH  21  22
HETATM   22  C6  UNL     1      26.643   5.078  49.145  1.00  0.00    -0.030 C 
HETATM   23  C7  UNL     1      25.818   5.946  49.689  1.00  0.00    -0.029 C 
BRANCH  23  24
HETATM   24  C8  UNL     1      24.487   5.483  50.228  1.00  0.00     0.053 C 
BRANCH  24  25
HETATM   25  C9  UNL     1      23.783   6.601  50.959  1.00  0.00     0.168 C 
BRANCH  25  26
HETATM   26  O2  UNL     1      24.488   6.819  52.148  1.00  0.00    -0.401 OA
HETATM   27  H14 UNL     1      24.861   5.953  52.487  1.00  0.00     0.209 HD
ENDBRANCH  25  26
ENDBRANCH  24  25
ENDBRANCH  23  24
ENDBRANCH  21  22
ENDBRANCH  20  21
ENDBRANCH   2  20
BRANCH   1  28
HETATM   28  O1  UNL     1      28.630   8.353  49.011  1.00  0.00    -0.354 OA
HETATM   29  C1  UNL     1      28.005   9.342  49.801  1.00  0.00     0.209 C 
ENDBRANCH   1  28
TORSDOF 7
ENDMDL
MODEL 8
REMARK VINA RESULT:      -7.1      2.648      2.957
REMARK  7 active torsions:
REMARK  status: ('A' for Active; 'I' for Inactive)
REMARK    1  A    between atoms: O1_2  and  C2_3 
REMARK    2  A    between atoms: C3_4  and  C4_5 
REMARK    3  A    between atoms: C4_5  and  C5_6 
REMARK    4  A    between atoms: C5_6  and  C6_7 
REMARK    5  A    between atoms: C7_8  and  C8_9 
REMARK    6  A    between atoms: C8_9  and  C9_10 
REMARK    7  A    between atoms: C9_10  and  O2_11 
ROOT
HETATM    1  C2  UNL     1      21.602   4.520  51.489  1.00  0.00     0.118 C 
HETATM    2  C3  UNL     1      22.844   4.043  51.744  1.00  0.00     0.080 C 
HETATM    3  O3  UNL     1      23.817   4.630  51.078  1.00  0.00    -0.348 OA
HETATM    4  C10 UNL     1      24.807   5.199  50.510  1.00  0.00     0.214 C 
HETATM    5  C11 UNL     1      24.634   5.651  49.016  1.00  0.00    -0.032 C 
HETATM    6  C12 UNL     1      24.675   6.761  48.280  1.00  0.00     0.028 C 
HETATM    7  C13 UNL     1      24.866   8.120  48.669  1.00  0.00     0.118 C 
HETATM    8  N1  UNL     1      24.061   8.372  49.700  1.00  0.00    -0.255 NA
HETATM    9  C14 UNL     1      23.199   7.335  50.120  1.00  0.00     0.229 C 
HETATM   10  N2  UNL     1      22.618   6.390  50.652  1.00  0.00    -0.250 NA
HETATM   11  C15 UNL     1      21.432   5.652  50.521  1.00  0.00     0.265 C 
HETATM   12  N3  UNL     1      21.014   5.356  49.238  1.00  0.00    -0.378 N 
HETATM   13  C16 UNL     1      19.972   4.374  49.073  1.00  0.00     0.150 C 
HETATM   14  C17 UNL     1      20.403   3.160  48.307  1.00  0.00     0.035 C 
HETATM   15  C18 UNL     1      21.704   2.781  48.345  1.00  0.00     0.122 C 
HETATM   16  F1  UNL     1      22.657   1.800  48.334  1.00  0.00    -0.206 F 
HETATM   17  C19 UNL     1      22.669   3.911  48.477  1.00  0.00    -0.002 C 
HETATM   18  C20 UNL     1      23.713   4.519  48.937  1.00  0.00     0.021 C 
HETATM   19  C21 UNL     1      21.926   5.174  48.127  1.00  0.00     0.161 C 
ENDROOT
BRANCH   2  20
HETATM   20  C4  UNL     1      23.494   3.034  52.552  1.00  0.00     0.071 C 
BRANCH  20  21
HETATM   21  C5  UNL     1      23.916   1.799  51.778  1.00  0.00     0.033 C 
BRANCH  21  22
HETATM   22  C6  UNL     1      23.221   0.605  52.324  1.00  0.00    -0.030 C 
HETATM   23  C7  UNL     1      22.926   0.141  53.518  1.00  0.00    -0.029 C 
BRANCH  23  24
HETATM   24  C8  UNL     1      22.178  -1.162  53.654  1.00  0.00     0.053 C 
BRANCH  24  25
HETATM   25  C9  UNL     1      20.725  -0.919  53.983  1.00  0.00     0.168 C 
BRANCH  25  26
HETATM   26  O2  UNL     1      20.685   0.133  54.904  1.00  0.00    -0.401 OA
HETATM   27  H14 UNL     1      19.768   0.203  55.302  1.00  0.00     0.209 HD
ENDBRANCH  25  26
ENDBRANCH  24  25
ENDBRANCH  23  24
ENDBRANCH  21  22
ENDBRANCH  20  21
ENDBRANCH   2  20
BRANCH   1  28
HETATM   28  O1  UNL     1      21.338   3.540  52.378  1.00  0.00    -0.354 OA
HETATM   29  C1  UNL     1      20.155   2.770  52.424  1.00  0.00     0.209 C 
ENDBRANCH   1  28
TORSDOF 7
ENDMDL
MODEL 9
REMARK VINA RESULT:      -7.1      2.133      2.585
REMARK  7 active torsions:
REMARK  status: ('A' for Active; 'I' for Inactive)
REMARK    1  A    between atoms: O1_2  and  C2_3 
REMARK    2  A    between atoms: C3_4  and  C4_5 
REMARK    3  A    between atoms: C4_5  and  C5_6 
REMARK    4  A    between atoms: C5_6  and  C6_7 
REMARK    5  A    between atoms: C7_8  and  C8_9 
REMARK    6  A    between atoms: C8_9  and  C9_10 
REMARK    7  A    between atoms: C9_10  and  O2_11 
ROOT
HETATM    1  C2  UNL     1      20.457   4.255  50.489  1.00  0.00     0.118 C 
HETATM    2  C3  UNL     1      21.204   3.408  51.237  1.00  0.00     0.080 C 
HETATM    3  O3  UNL     1      22.498   3.654  51.236  1.00  0.00    -0.348 OA
HETATM    4  C10 UNL     1      23.750   3.878  51.325  1.00  0.00     0.214 C 
HETATM    5  C11 UNL     1      24.503   4.359  50.033  1.00  0.00    -0.032 C 
HETATM    6  C12 UNL     1      25.218   5.397  49.604  1.00  0.00     0.028 C 
HETATM    7  C13 UNL     1      25.545   6.625  50.251  1.00  0.00     0.118 C 
HETATM    8  N1  UNL     1      24.429   7.121  50.783  1.00  0.00    -0.255 NA
HETATM    9  C14 UNL     1      23.229   6.413  50.553  1.00  0.00     0.229 C 
HETATM   10  N2  UNL     1      22.224   5.703  50.572  1.00  0.00    -0.250 NA
HETATM   11  C15 UNL     1      21.126   5.381  49.760  1.00  0.00     0.265 C 
HETATM   12  N3  UNL     1      21.366   5.232  48.409  1.00  0.00    -0.378 N 
HETATM   13  C16 UNL     1      20.335   4.633  47.598  1.00  0.00     0.150 C 
HETATM   14  C17 UNL     1      20.748   3.344  46.954  1.00  0.00     0.035 C 
HETATM   15  C18 UNL     1      21.682   2.570  47.560  1.00  0.00     0.122 C 
HETATM   16  F1  UNL     1      22.194   1.337  47.857  1.00  0.00    -0.206 F 
HETATM   17  C19 UNL     1      22.707   3.334  48.328  1.00  0.00    -0.002 C 
HETATM   18  C20 UNL     1      23.484   3.579  49.332  1.00  0.00     0.021 C 
HETATM   19  C21 UNL     1      22.629   4.767  47.871  1.00  0.00     0.161 C 
ENDROOT
BRANCH   2  20
HETATM   20  C4  UNL     1      21.040   2.245  52.082  1.00  0.00     0.071 C 
BRANCH  20  21
HETATM   21  C5  UNL     1      21.561   0.958  51.472  1.00  0.00     0.033 C 
BRANCH  21  22
HETATM   22  C6  UNL     1      22.330   0.197  52.489  1.00  0.00    -0.030 C 
HETATM   23  C7  UNL     1      23.438   0.378  53.174  1.00  0.00    -0.029 C 
BRANCH  23  24
HETATM   24  C8  UNL     1      23.900  -0.675  54.149  1.00  0.00     0.053 C 
BRANCH  24  25
HETATM   25  C9  UNL     1      22.732  -1.252  54.914  1.00  0.00     0.168 C 
BRANCH  25  26
HETATM   26  O2  UNL     1      23.256  -1.869  56.055  1.00  0.00    -0.401 OA
HETATM   27  H14 UNL     1      23.787  -1.207  56.587  1.00  0.00     0.209 HD
ENDBRANCH  25  26
ENDBRANCH  24  25
ENDBRANCH  23  24
ENDBRANCH  21  22
ENDBRANCH  20  21
ENDBRANCH   2  20
BRANCH   1  28
HETATM   28  O1  UNL     1      19.516   3.411  50.963  1.00  0.00    -0.354 OA
HETATM   29  C1  UNL     1      18.231   3.219  50.410  1.00  0.00     0.209 C 
ENDBRANCH   1  28
TORSDOF 7
ENDMDL
