MODEL 1
REMARK VINA RESULT:      -7.7      0.000      0.000
REMARK  4 active torsions:
REMARK  status: ('A' for Active; 'I' for Inactive)
REMARK    1  A    between atoms: N1_7  and  N2_8 
REMARK    2  A    between atoms: N2_8  and  C6_9 
REMARK    3  A    between atoms: N4_14  and  C10_15 
REMARK    4  A    between atoms: C10_15  and  C11_16 
ROOT
HETATM    1  C6  UNL     1      25.388   2.501  52.312  1.00  0.00     0.735 C 
HETATM    2  N3  UNL     1      25.246   2.695  50.995  1.00  0.00    -0.087 NA
HETATM    3  C7  UNL     1      23.891   2.559  50.728  1.00  0.00     0.222 C 
HETATM    4  C8  UNL     1      23.103   2.820  49.606  1.00  0.00     0.026 C 
HETATM    5  C9  UNL     1      21.871   3.023  50.041  1.00  0.00     0.091 C 
HETATM    6  N4  UNL     1      21.820   2.962  51.459  1.00  0.00    -0.339 N 
HETATM    7  C17 UNL     1      23.154   2.754  51.975  1.00  0.00     0.155 C 
HETATM    8  N5  UNL     1      24.051   2.543  52.875  1.00  0.00    -0.046 NA
ENDROOT
BRANCH   1   9
HETATM    9  N2  UNL     1      26.475   2.483  53.196  1.00  0.00    -0.147 N 
HETATM   10  H8  UNL     1      26.560   3.086  54.039  1.00  0.00     0.200 HD
BRANCH   9  11
HETATM   11  N1  UNL     1      27.441   1.533  52.788  1.00  0.00    -0.198 NA
HETATM   12  C1  UNL     1      26.882   0.249  53.145  1.00  0.00     0.155 C 
HETATM   13 BR1  UNL     1      26.417   0.178  55.018  1.00  0.00    -0.072 Br
HETATM   14  C2  UNL     1      27.791  -0.894  52.837  1.00  0.00     0.060 C 
HETATM   15  C3  UNL     1      29.028  -0.699  53.661  1.00  0.00    -0.027 C 
HETATM   16  C4  UNL     1      29.382   0.548  53.906  1.00  0.00    -0.015 C 
HETATM   17  C5  UNL     1      28.698   1.794  53.458  1.00  0.00     0.142 C 
ENDBRANCH   9  11
ENDBRANCH   1   9
BRANCH   6  18
HETATM   18  C10 UNL     1      20.678   3.079  52.332  1.00  0.00     0.168 C 
BRANCH  18  19
HETATM   19  C11 UNL     1      20.249   1.688  52.657  1.00  0.00    -0.040 A 
HETATM   20  C12 UNL     1      19.239   1.129  51.902  1.00  0.00     0.009 A 
HETATM   21  C13 UNL     1      18.714  -0.138  52.056  1.00  0.00     0.001 A 
HETATM   22  C14 UNL     1      19.284  -0.898  53.082  1.00  0.00     0.000 A 
HETATM   23  C15 UNL     1      20.295  -0.361  53.848  1.00  0.00     0.001 A 
HETATM   24  C16 UNL     1      20.793   0.904  53.669  1.00  0.00     0.009 A 
ENDBRANCH  18  19
ENDBRANCH   6  18
TORSDOF 4
ENDMDL
MODEL 2
REMARK VINA RESULT:      -7.4      2.922      6.432
REMARK  4 active torsions:
REMARK  status: ('A' for Active; 'I' for Inactive)
REMARK    1  A    between atoms: N1_7  and  N2_8 
REMARK    2  A    between atoms: N2_8  and  C6_9 
REMARK    3  A    between atoms: N4_14  and  C10_15 
REMARK    4  A    between atoms: C10_15  and  C11_16 
ROOT
HETATM    1  C6  UNL     1      23.996   3.233  51.760  1.00  0.00     0.735 C 
HETATM    2  N3  UNL     1      22.858   2.649  51.365  1.00  0.00    -0.087 NA
HETATM    3  C7  UNL     1      22.910   1.344  51.834  1.00  0.00     0.222 C 
HETATM    4  C8  UNL     1      21.973   0.312  51.908  1.00  0.00     0.026 C 
HETATM    5  C9  UNL     1      22.361  -0.490  52.884  1.00  0.00     0.091 C 
HETATM    6  N4  UNL     1      23.525   0.016  53.521  1.00  0.00    -0.339 N 
HETATM    7  C17 UNL     1      23.879   1.286  52.927  1.00  0.00     0.155 C 
HETATM    8  N5  UNL     1      24.596   2.338  52.732  1.00  0.00    -0.046 NA
ENDROOT
BRANCH   1   9
HETATM    9  N2  UNL     1      24.561   4.505  51.600  1.00  0.00    -0.147 N 
HETATM   10  H8  UNL     1      25.434   4.825  52.064  1.00  0.00     0.200 HD
BRANCH   9  11
HETATM   11  N1  UNL     1      23.781   5.296  50.724  1.00  0.00    -0.198 NA
HETATM   12  C1  UNL     1      24.261   4.975  49.399  1.00  0.00     0.155 C 
HETATM   13 BR1  UNL     1      26.167   5.244  49.254  1.00  0.00    -0.072 Br
HETATM   14  C2  UNL     1      23.587   5.761  48.323  1.00  0.00     0.060 C 
HETATM   15  C3  UNL     1      23.904   7.203  48.577  1.00  0.00    -0.027 C 
HETATM   16  C4  UNL     1      24.057   7.560  49.838  1.00  0.00    -0.015 C 
HETATM   17  C5  UNL     1      23.951   6.697  51.048  1.00  0.00     0.142 C 
ENDBRANCH   9  11
ENDBRANCH   1   9
BRANCH   6  18
HETATM   18  C10 UNL     1      24.299  -0.564  54.591  1.00  0.00     0.168 C 
BRANCH  18  19
HETATM   19  C11 UNL     1      25.719  -0.567  54.133  1.00  0.00    -0.040 A 
HETATM   20  C12 UNL     1      26.643   0.128  54.884  1.00  0.00     0.009 A 
HETATM   21  C13 UNL     1      27.993   0.237  54.618  1.00  0.00     0.001 A 
HETATM   22  C14 UNL     1      28.428  -0.433  53.470  1.00  0.00     0.000 A 
HETATM   23  C15 UNL     1      27.523  -1.133  52.704  1.00  0.00     0.001 A 
HETATM   24  C16 UNL     1      26.186  -1.221  52.998  1.00  0.00     0.009 A 
ENDBRANCH  18  19
ENDBRANCH   6  18
TORSDOF 4
ENDMDL
MODEL 3
REMARK VINA RESULT:      -7.3      2.303      7.127
REMARK  4 active torsions:
REMARK  status: ('A' for Active; 'I' for Inactive)
REMARK    1  A    between atoms: N1_7  and  N2_8 
REMARK    2  A    between atoms: N2_8  and  C6_9 
REMARK    3  A    between atoms: N4_14  and  C10_15 
REMARK    4  A    between atoms: C10_15  and  C11_16 
ROOT
HETATM    1  C6  UNL     1      22.847   2.867  51.716  1.00  0.00     0.735 C 
HETATM    2  N3  UNL     1      23.726   3.006  50.716  1.00  0.00    -0.087 NA
HETATM    3  C7  UNL     1      24.984   2.879  51.287  1.00  0.00     0.222 C 
HETATM    4  C8  UNL     1      26.270   2.747  50.759  1.00  0.00     0.026 C 
HETATM    5  C9  UNL     1      27.002   2.144  51.680  1.00  0.00     0.091 C 
HETATM    6  N4  UNL     1      26.215   1.807  52.813  1.00  0.00    -0.339 N 
HETATM    7  C17 UNL     1      24.841   2.185  52.566  1.00  0.00     0.155 C 
HETATM    8  N5  UNL     1      23.596   2.356  52.848  1.00  0.00    -0.046 NA
ENDROOT
BRANCH   1   9
HETATM    9  N2  UNL     1      21.449   2.909  51.815  1.00  0.00    -0.147 N 
HETATM   10  H8  UNL     1      20.912   3.693  52.234  1.00  0.00     0.200 HD
BRANCH   9  11
HETATM   11  N1  UNL     1      20.870   1.739  51.269  1.00  0.00    -0.198 NA
HETATM   12  C1  UNL     1      19.775   2.208  50.451  1.00  0.00     0.155 C 
HETATM   13 BR1  UNL     1      18.561   3.318  51.461  1.00  0.00    -0.072 Br
HETATM   14  C2  UNL     1      18.996   1.100  49.822  1.00  0.00     0.060 C 
HETATM   15  C3  UNL     1      18.405   0.296  50.941  1.00  0.00    -0.027 C 
HETATM   16  C4  UNL     1      19.108   0.234  52.055  1.00  0.00    -0.015 C 
HETATM   17  C5  UNL     1      20.427   0.868  52.338  1.00  0.00     0.142 C 
ENDBRANCH   9  11
ENDBRANCH   1   9
BRANCH   6  18
HETATM   18  C10 UNL     1      26.622   1.190  54.050  1.00  0.00     0.168 C 
BRANCH  18  19
HETATM   19  C11 UNL     1      27.426  -0.011  53.680  1.00  0.00    -0.040 A 
HETATM   20  C12 UNL     1      26.773  -1.069  53.084  1.00  0.00     0.009 A 
HETATM   21  C13 UNL     1      27.348  -2.255  52.674  1.00  0.00     0.001 A 
HETATM   22  C14 UNL     1      28.724  -2.357  52.901  1.00  0.00     0.000 A 
HETATM   23  C15 UNL     1      29.398  -1.313  53.495  1.00  0.00     0.001 A 
HETATM   24  C16 UNL     1      28.794  -0.147  53.890  1.00  0.00     0.009 A 
ENDBRANCH  18  19
ENDBRANCH   6  18
TORSDOF 4
ENDMDL
MODEL 4
REMARK VINA RESULT:      -7.2      3.150      5.701
REMARK  4 active torsions:
REMARK  status: ('A' for Active; 'I' for Inactive)
REMARK    1  A    between atoms: N1_7  and  N2_8 
REMARK    2  A    between atoms: N2_8  and  C6_9 
REMARK    3  A    between atoms: N4_14  and  C10_15 
REMARK    4  A    between atoms: C10_15  and  C11_16 
ROOT
HETATM    1  C6  UNL     1      24.149   2.157  51.815  1.00  0.00     0.735 C 
HETATM    2  N3  UNL     1      23.453   1.791  50.731  1.00  0.00    -0.087 NA
HETATM    3  C7  UNL     1      23.152   2.962  50.051  1.00  0.00     0.222 C 
HETATM    4  C8  UNL     1      22.621   3.230  48.788  1.00  0.00     0.026 C 
HETATM    5  C9  UNL     1      23.033   4.439  48.448  1.00  0.00     0.091 C 
HETATM    6  N4  UNL     1      23.892   4.979  49.441  1.00  0.00    -0.339 N 
HETATM    7  C17 UNL     1      24.086   3.999  50.486  1.00  0.00     0.155 C 
HETATM    8  N5  UNL     1      24.517   3.545  51.612  1.00  0.00    -0.046 NA
ENDROOT
BRANCH   1   9
HETATM    9  N2  UNL     1      24.721   1.476  52.898  1.00  0.00    -0.147 N 
HETATM   10  H8  UNL     1      24.313   1.441  53.853  1.00  0.00     0.200 HD
BRANCH   9  11
HETATM   11  N1  UNL     1      25.927   0.844  52.517  1.00  0.00    -0.198 NA
HETATM   12  C1  UNL     1      25.758  -0.544  52.885  1.00  0.00     0.155 C 
HETATM   13 BR1  UNL     1      25.302  -0.729  54.752  1.00  0.00    -0.072 Br
HETATM   14  C2  UNL     1      26.966  -1.377  52.606  1.00  0.00     0.060 C 
HETATM   15  C3  UNL     1      28.078  -0.823  53.445  1.00  0.00    -0.027 C 
HETATM   16  C4  UNL     1      28.050   0.475  53.676  1.00  0.00    -0.015 C 
HETATM   17  C5  UNL     1      27.042   1.465  53.201  1.00  0.00     0.142 C 
ENDBRANCH   9  11
ENDBRANCH   1   9
BRANCH   6  18
HETATM   18  C10 UNL     1      24.519   6.277  49.491  1.00  0.00     0.168 C 
BRANCH  18  19
HETATM   19  C11 UNL     1      25.926   6.085  49.034  1.00  0.00    -0.040 A 
HETATM   20  C12 UNL     1      26.627   7.196  48.613  1.00  0.00     0.009 A 
HETATM   21  C13 UNL     1      27.931   7.212  48.159  1.00  0.00     0.001 A 
HETATM   22  C14 UNL     1      28.569   5.968  48.138  1.00  0.00     0.000 A 
HETATM   23  C15 UNL     1      27.888   4.845  48.553  1.00  0.00     0.001 A 
HETATM   24  C16 UNL     1      26.591   4.864  48.999  1.00  0.00     0.009 A 
ENDBRANCH  18  19
ENDBRANCH   6  18
TORSDOF 4
ENDMDL
MODEL 5
REMARK VINA RESULT:      -7.2      2.955      7.173
REMARK  4 active torsions:
REMARK  status: ('A' for Active; 'I' for Inactive)
REMARK    1  A    between atoms: N1_7  and  N2_8 
REMARK    2  A    between atoms: N2_8  and  C6_9 
REMARK    3  A    between atoms: N4_14  and  C10_15 
REMARK    4  A    between atoms: C10_15  and  C11_16 
ROOT
HETATM    1  C6  UNL     1      22.665   2.769  51.427  1.00  0.00     0.735 C 
HETATM    2  N3  UNL     1      22.265   2.107  52.519  1.00  0.00    -0.087 NA
HETATM    3  C7  UNL     1      23.094   1.000  52.626  1.00  0.00     0.222 C 
HETATM    4  C8  UNL     1      23.301   0.047  53.625  1.00  0.00     0.026 C 
HETATM    5  C9  UNL     1      24.520  -0.432  53.452  1.00  0.00     0.091 C 
HETATM    6  N4  UNL     1      25.176   0.227  52.379  1.00  0.00    -0.339 N 
HETATM    7  C17 UNL     1      24.309   1.259  51.854  1.00  0.00     0.155 C 
HETATM    8  N5  UNL     1      23.945   2.198  51.051  1.00  0.00    -0.046 NA
ENDROOT
BRANCH   1   9
HETATM    9  N2  UNL     1      22.243   3.931  50.766  1.00  0.00    -0.147 N 
HETATM   10  H8  UNL     1      21.342   4.416  50.945  1.00  0.00     0.200 HD
BRANCH   9  11
HETATM   11  N1  UNL     1      23.208   4.351  49.820  1.00  0.00    -0.198 NA
HETATM   12  C1  UNL     1      23.684   5.625  50.309  1.00  0.00     0.155 C 
HETATM   13 BR1  UNL     1      22.229   6.863  50.588  1.00  0.00    -0.072 Br
HETATM   14  C2  UNL     1      24.685   6.265  49.405  1.00  0.00     0.060 C 
HETATM   15  C3  UNL     1      23.993   6.517  48.100  1.00  0.00    -0.027 C 
HETATM   16  C4  UNL     1      23.054   5.656  47.756  1.00  0.00    -0.015 C 
HETATM   17  C5  UNL     1      22.597   4.455  48.511  1.00  0.00     0.142 C 
ENDBRANCH   9  11
ENDBRANCH   1   9
BRANCH   6  18
HETATM   18  C10 UNL     1      26.486  -0.016  51.828  1.00  0.00     0.168 C 
BRANCH  18  19
HETATM   19  C11 UNL     1      27.460   0.648  52.743  1.00  0.00    -0.040 A 
HETATM   20  C12 UNL     1      28.172  -0.147  53.616  1.00  0.00     0.009 A 
HETATM   21  C13 UNL     1      29.110   0.287  54.531  1.00  0.00     0.001 A 
HETATM   22  C14 UNL     1      29.333   1.668  54.545  1.00  0.00     0.000 A 
HETATM   23  C15 UNL     1      28.633   2.481  53.681  1.00  0.00     0.001 A 
HETATM   24  C16 UNL     1      27.706   2.016  52.784  1.00  0.00     0.009 A 
ENDBRANCH  18  19
ENDBRANCH   6  18
TORSDOF 4
ENDMDL
MODEL 6
REMARK VINA RESULT:      -7.1      3.835      4.792
REMARK  4 active torsions:
REMARK  status: ('A' for Active; 'I' for Inactive)
REMARK    1  A    between atoms: N1_7  and  N2_8 
REMARK    2  A    between atoms: N2_8  and  C6_9 
REMARK    3  A    between atoms: N4_14  and  C10_15 
REMARK    4  A    between atoms: C10_15  and  C11_16 
ROOT
HETATM    1  C6  UNL     1      26.095   2.580  51.206  1.00  0.00     0.735 C 
HETATM    2  N3  UNL     1      27.064   3.280  50.603  1.00  0.00    -0.087 NA
HETATM    3  C7  UNL     1      26.433   4.085  49.665  1.00  0.00     0.222 C 
HETATM    4  C8  UNL     1      26.862   5.148  48.867  1.00  0.00     0.026 C 
HETATM    5  C9  UNL     1      25.791   5.869  48.582  1.00  0.00     0.091 C 
HETATM    6  N4  UNL     1      24.640   5.343  49.226  1.00  0.00    -0.339 N 
HETATM    7  C17 UNL     1      25.026   4.212  50.041  1.00  0.00     0.155 C 
HETATM    8  N5  UNL     1      24.843   3.202  50.818  1.00  0.00    -0.046 NA
ENDROOT
BRANCH   1   9
HETATM    9  N2  UNL     1      26.062   1.600  52.207  1.00  0.00    -0.147 N 
HETATM   10  H8  UNL     1      25.204   1.302  52.711  1.00  0.00     0.200 HD
BRANCH   9  11
HETATM   11  N1  UNL     1      27.354   1.071  52.438  1.00  0.00    -0.198 NA
HETATM   12  C1  UNL     1      27.131  -0.286  52.883  1.00  0.00     0.155 C 
HETATM   13 BR1  UNL     1      25.947  -0.345  54.406  1.00  0.00    -0.072 Br
HETATM   14  C2  UNL     1      28.393  -1.003  53.233  1.00  0.00     0.060 C 
HETATM   15  C3  UNL     1      29.015  -0.255  54.374  1.00  0.00    -0.027 C 
HETATM   16  C4  UNL     1      28.814   1.048  54.402  1.00  0.00    -0.015 C 
HETATM   17  C5  UNL     1      28.039   1.872  53.431  1.00  0.00     0.142 C 
ENDBRANCH   9  11
ENDBRANCH   1   9
BRANCH   6  18
HETATM   18  C10 UNL     1      23.272   5.791  49.148  1.00  0.00     0.168 C 
BRANCH  18  19
HETATM   19  C11 UNL     1      22.742   5.305  47.841  1.00  0.00    -0.040 A 
HETATM   20  C12 UNL     1      22.401   3.973  47.736  1.00  0.00     0.009 A 
HETATM   21  C13 UNL     1      21.897   3.347  46.614  1.00  0.00     0.001 A 
HETATM   22  C14 UNL     1      21.730   4.172  45.497  1.00  0.00     0.000 A 
HETATM   23  C15 UNL     1      22.064   5.506  45.579  1.00  0.00     0.001 A 
HETATM   24  C16 UNL     1      22.563   6.096  46.712  1.00  0.00     0.009 A 
ENDBRANCH  18  19
ENDBRANCH   6  18
TORSDOF 4
ENDMDL
MODEL 7
REMARK VINA RESULT:      -7.0      2.866      5.325
REMARK  4 active torsions:
REMARK  status: ('A' for Active; 'I' for Inactive)
REMARK    1  A    between atoms: N1_7  and  N2_8 
REMARK    2  A    between atoms: N2_8  and  C6_9 
REMARK    3  A    between atoms: N4_14  and  C10_15 
REMARK    4  A    between atoms: C10_15  and  C11_16 
ROOT
HETATM    1  C6  UNL     1      25.263   3.039  51.843  1.00  0.00     0.735 C 
HETATM    2  N3  UNL     1      26.162   2.203  51.310  1.00  0.00    -0.087 NA
HETATM    3  C7  UNL     1      26.187   1.086  52.134  1.00  0.00     0.222 C 
HETATM    4  C8  UNL     1      26.766  -0.179  52.020  1.00  0.00     0.026 C 
HETATM    5  C9  UNL     1      26.063  -0.993  52.787  1.00  0.00     0.091 C 
HETATM    6  N4  UNL     1      24.969  -0.310  53.381  1.00  0.00    -0.339 N 
HETATM    7  C17 UNL     1      24.945   1.054  52.904  1.00  0.00     0.155 C 
HETATM    8  N5  UNL     1      24.532   2.273  52.835  1.00  0.00    -0.046 NA
ENDROOT
BRANCH   1   9
HETATM    9  N2  UNL     1      24.789   4.317  51.518  1.00  0.00    -0.147 N 
HETATM   10  H8  UNL     1      24.371   4.982  52.200  1.00  0.00     0.200 HD
BRANCH   9  11
HETATM   11  N1  UNL     1      24.954   4.581  50.138  1.00  0.00    -0.198 NA
HETATM   12  C1  UNL     1      25.359   5.966  50.065  1.00  0.00     0.155 C 
HETATM   13 BR1  UNL     1      24.099   7.119  50.964  1.00  0.00    -0.072 Br
HETATM   14  C2  UNL     1      25.535   6.454  48.665  1.00  0.00     0.060 C 
HETATM   15  C3  UNL     1      24.198   6.343  47.996  1.00  0.00    -0.027 C 
HETATM   16  C4  UNL     1      23.420   5.356  48.397  1.00  0.00    -0.015 C 
HETATM   17  C5  UNL     1      23.711   4.331  49.440  1.00  0.00     0.142 C 
ENDBRANCH   9  11
ENDBRANCH   1   9
BRANCH   6  18
HETATM   18  C10 UNL     1      23.988  -0.805  54.315  1.00  0.00     0.168 C 
BRANCH  18  19
HETATM   19  C11 UNL     1      22.652  -0.445  53.757  1.00  0.00    -0.040 A 
HETATM   20  C12 UNL     1      21.681  -0.008  54.633  1.00  0.00     0.009 A 
HETATM   21  C13 UNL     1      20.395   0.367  54.302  1.00  0.00     0.001 A 
HETATM   22  C14 UNL     1      20.083   0.284  52.942  1.00  0.00     0.000 A 
HETATM   23  C15 UNL     1      21.037  -0.150  52.048  1.00  0.00     0.001 A 
HETATM   24  C16 UNL     1      22.308  -0.516  52.412  1.00  0.00     0.009 A 
ENDBRANCH  18  19
ENDBRANCH   6  18
TORSDOF 4
ENDMDL
MODEL 8
REMARK VINA RESULT:      -7.0      3.028      8.196
REMARK  4 active torsions:
REMARK  status: ('A' for Active; 'I' for Inactive)
REMARK    1  A    between atoms: N1_7  and  N2_8 
REMARK    2  A    between atoms: N2_8  and  C6_9 
REMARK    3  A    between atoms: N4_14  and  C10_15 
REMARK    4  A    between atoms: C10_15  and  C11_16 
ROOT
HETATM    1  C6  UNL     1      21.073   0.513  52.562  1.00  0.00     0.735 C 
HETATM    2  N3  UNL     1      21.338  -0.043  53.751  1.00  0.00    -0.087 NA
HETATM    3  C7  UNL     1      22.673  -0.420  53.713  1.00  0.00     0.222 C 
HETATM    4  C8  UNL     1      23.572  -0.871  54.681  1.00  0.00     0.026 C 
HETATM    5  C9  UNL     1      24.785  -0.575  54.247  1.00  0.00     0.091 C 
HETATM    6  N4  UNL     1      24.723   0.130  53.016  1.00  0.00    -0.339 N 
HETATM    7  C17 UNL     1      23.338   0.348  52.662  1.00  0.00     0.155 C 
HETATM    8  N5  UNL     1      22.356   0.732  51.921  1.00  0.00    -0.046 NA
ENDROOT
BRANCH   1   9
HETATM    9  N2  UNL     1      19.934   1.066  51.962  1.00  0.00    -0.147 N 
HETATM   10  H8  UNL     1      19.745   2.085  51.885  1.00  0.00     0.200 HD
BRANCH   9  11
HETATM   11  N1  UNL     1      19.077   0.051  51.477  1.00  0.00    -0.198 NA
HETATM   12  C1  UNL     1      18.199   0.716  50.541  1.00  0.00     0.155 C 
HETATM   13 BR1  UNL     1      17.298   2.215  51.358  1.00  0.00    -0.072 Br
HETATM   14  C2  UNL     1      17.171  -0.193  49.953  1.00  0.00     0.060 C 
HETATM   15  C3  UNL     1      16.325  -0.684  51.088  1.00  0.00    -0.027 C 
HETATM   16  C4  UNL     1      16.927  -0.822  52.254  1.00  0.00    -0.015 C 
HETATM   17  C5  UNL     1      18.355  -0.549  52.580  1.00  0.00     0.142 C 
ENDBRANCH   9  11
ENDBRANCH   1   9
BRANCH   6  18
HETATM   18  C10 UNL     1      25.803   0.596  52.181  1.00  0.00     0.168 C 
BRANCH  18  19
HETATM   19  C11 UNL     1      27.036  -0.094  52.660  1.00  0.00    -0.040 A 
HETATM   20  C12 UNL     1      28.040   0.679  53.203  1.00  0.00     0.009 A 
HETATM   21  C13 UNL     1      29.245   0.219  53.695  1.00  0.00     0.001 A 
HETATM   22  C14 UNL     1      29.429  -1.165  53.619  1.00  0.00     0.000 A 
HETATM   23  C15 UNL     1      28.440  -1.956  53.080  1.00  0.00     0.001 A 
HETATM   24  C16 UNL     1      27.253  -1.466  52.599  1.00  0.00     0.009 A 
ENDBRANCH  18  19
ENDBRANCH   6  18
TORSDOF 4
ENDMDL
MODEL 9
REMARK VINA RESULT:      -7.0      4.896      9.187
REMARK  4 active torsions:
REMARK  status: ('A' for Active; 'I' for Inactive)
REMARK    1  A    between atoms: N1_7  and  N2_8 
REMARK    2  A    between atoms: N2_8  and  C6_9 
REMARK    3  A    between atoms: N4_14  and  C10_15 
REMARK    4  A    between atoms: C10_15  and  C11_16 
ROOT
HETATM    1  C6  UNL     1      17.194   2.754  51.556  1.00  0.00     0.735 C 
HETATM    2  N3  UNL     1      18.016   3.805  51.677  1.00  0.00    -0.087 NA
HETATM    3  C7  UNL     1      19.276   3.282  51.930  1.00  0.00     0.222 C 
HETATM    4  C8  UNL     1      20.556   3.838  51.969  1.00  0.00     0.026 C 
HETATM    5  C9  UNL     1      21.408   2.857  51.725  1.00  0.00     0.091 C 
HETATM    6  N4  UNL     1      20.719   1.643  51.461  1.00  0.00    -0.339 N 
HETATM    7  C17 UNL     1      19.294   1.889  51.487  1.00  0.00     0.155 C 
HETATM    8  N5  UNL     1      18.044   1.584  51.445  1.00  0.00    -0.046 NA
ENDROOT
BRANCH   1   9
HETATM    9  N2  UNL     1      15.821   2.596  51.324  1.00  0.00    -0.147 N 
HETATM   10  H8  UNL     1      15.392   1.764  50.873  1.00  0.00     0.200 HD
BRANCH   9  11
HETATM   11  N1  UNL     1      15.099   3.721  51.785  1.00  0.00    -0.198 NA
HETATM   12  C1  UNL     1      14.643   3.360  53.108  1.00  0.00     0.155 C 
HETATM   13 BR1  UNL     1      13.643   1.710  53.085  1.00  0.00    -0.072 Br
HETATM   14  C2  UNL     1      13.804   4.416  53.748  1.00  0.00     0.060 C 
HETATM   15  C3  UNL     1      12.588   4.586  52.888  1.00  0.00    -0.027 C 
HETATM   16  C4  UNL     1      12.750   4.382  51.594  1.00  0.00    -0.015 C 
HETATM   17  C5  UNL     1      14.003   4.003  50.881  1.00  0.00     0.142 C 
ENDBRANCH   9  11
ENDBRANCH   1   9
BRANCH   6  18
HETATM   18  C10 UNL     1      21.258   0.332  51.197  1.00  0.00     0.168 C 
BRANCH  18  19
HETATM   19  C11 UNL     1      21.814  -0.165  52.489  1.00  0.00    -0.040 A 
HETATM   20  C12 UNL     1      20.937  -0.706  53.405  1.00  0.00     0.009 A 
HETATM   21  C13 UNL     1      21.266  -1.214  54.645  1.00  0.00     0.001 A 
HETATM   22  C14 UNL     1      22.625  -1.158  54.970  1.00  0.00     0.000 A 
HETATM   23  C15 UNL     1      23.520  -0.621  54.071  1.00  0.00     0.001 A 
HETATM   24  C16 UNL     1      23.158  -0.124  52.844  1.00  0.00     0.009 A 
ENDBRANCH  18  19
ENDBRANCH   6  18
TORSDOF 4
ENDMDL
