MODEL 1
REMARK VINA RESULT:      -8.5      0.000      0.000
REMARK  4 active torsions:
REMARK  status: ('A' for Active; 'I' for Inactive)
REMARK    1  A    between atoms: N1_2  and  C2_3 
REMARK    2  A    between atoms: C3_4  and  C4_5 
REMARK    3  A    between atoms: N2_6  and  C5_7 
REMARK    4  A    between atoms: C8_11  and  N4_12 
ROOT
HETATM    1  N4  UNL     1      24.118   3.064  51.809  1.00  0.00    -0.166 N 
HETATM    2  C9  UNL     1      23.440   4.315  51.576  1.00  0.00     0.110 C 
HETATM    3  C10 UNL     1      23.187   4.972  50.423  1.00  0.00    -0.008 C 
HETATM    4  C11 UNL     1      22.859   5.791  49.146  1.00  0.00     0.030 C 
HETATM    5  C12 UNL     1      24.194   5.843  48.340  1.00  0.00     0.024 C 
HETATM    6  C13 UNL     1      25.304   6.321  49.206  1.00  0.00     0.130 C 
HETATM    7  N5  UNL     1      26.674   6.130  48.779  1.00  0.00    -0.344 N 
HETATM    8  C14 UNL     1      27.702   6.840  48.281  1.00  0.00     0.111 A 
HETATM    9  C15 UNL     1      28.810   6.086  48.112  1.00  0.00     0.136 A 
HETATM   10  N6  UNL     1      28.499   4.838  48.512  1.00  0.00    -0.246 NA
HETATM   11  C16 UNL     1      27.217   4.830  48.918  1.00  0.00     0.109 A 
HETATM   12  C17 UNL     1      26.429   3.729  49.396  1.00  0.00     0.107 C 
HETATM   13  C18 UNL     1      26.454   2.934  50.570  1.00  0.00    -0.001 C 
HETATM   14  C19 UNL     1      25.460   2.732  51.482  1.00  0.00     0.111 C 
ENDROOT
BRANCH   1  15
HETATM   15  C8  UNL     1      23.350   2.059  52.450  1.00  0.00     0.734 A 
HETATM   16  N3  UNL     1      22.021   2.019  52.533  1.00  0.00    -0.074 NA
HETATM   17  C7  UNL     1      21.306   1.047  53.124  1.00  0.00     0.140 A 
HETATM   18  C6  UNL     1      21.963  -0.011  53.708  1.00  0.00     0.073 A 
HETATM   19  C5  UNL     1      23.332   0.008  53.638  1.00  0.00     0.169 A 
HETATM   20  N7  UNL     1      23.942   1.030  53.020  1.00  0.00    -0.043 NA
BRANCH  19  21
HETATM   21  N2  UNL     1      24.235  -0.993  54.162  1.00  0.00    -0.241 NA
HETATM   22  C4  UNL     1      25.390  -0.606  54.625  1.00  0.00     0.120 C 
BRANCH  22  23
HETATM   23  C3  UNL     1      26.429   0.332  54.965  1.00  0.00     0.035 C 
HETATM   24  C2  UNL     1      27.450   0.454  54.146  1.00  0.00     0.077 C 
BRANCH  24  25
HETATM   25  N1  UNL     1      28.515   1.337  54.388  1.00  0.00    -0.406 NA
HETATM   26  C1  UNL     1      28.758   2.415  53.713  1.00  0.00     0.313 C 
ENDBRANCH  24  25
ENDBRANCH  22  23
ENDBRANCH  19  21
ENDBRANCH   1  15
TORSDOF 4
ENDMDL
MODEL 2
REMARK VINA RESULT:      -8.3      3.096      6.913
REMARK  4 active torsions:
REMARK  status: ('A' for Active; 'I' for Inactive)
REMARK    1  A    between atoms: N1_2  and  C2_3 
REMARK    2  A    between atoms: C3_4  and  C4_5 
REMARK    3  A    between atoms: N2_6  and  C5_7 
REMARK    4  A    between atoms: C8_11  and  N4_12 
ROOT
HETATM    1  N4  UNL     1      22.840   0.601  53.067  1.00  0.00    -0.166 N 
HETATM    2  C9  UNL     1      23.262   1.917  52.656  1.00  0.00     0.110 C 
HETATM    3  C10 UNL     1      24.209   2.296  51.771  1.00  0.00    -0.008 C 
HETATM    4  C11 UNL     1      25.280   2.815  50.774  1.00  0.00     0.030 C 
HETATM    5  C12 UNL     1      26.574   2.009  51.107  1.00  0.00     0.024 C 
HETATM    6  C13 UNL     1      26.877   2.096  52.560  1.00  0.00     0.130 C 
HETATM    7  N5  UNL     1      27.819   1.166  53.148  1.00  0.00    -0.344 N 
HETATM    8  C14 UNL     1      29.083   1.139  53.607  1.00  0.00     0.111 A 
HETATM    9  C15 UNL     1      29.420  -0.071  54.105  1.00  0.00     0.136 A 
HETATM   10  N6  UNL     1      28.340  -0.866  53.969  1.00  0.00    -0.246 NA
HETATM   11  C16 UNL     1      27.358  -0.150  53.392  1.00  0.00     0.109 A 
HETATM   12  C17 UNL     1      26.039  -0.571  53.014  1.00  0.00     0.107 C 
HETATM   13  C18 UNL     1      24.879  -0.950  53.736  1.00  0.00    -0.001 C 
HETATM   14  C19 UNL     1      23.629  -0.407  53.684  1.00  0.00     0.111 C 
ENDROOT
BRANCH   1  15
HETATM   15  C8  UNL     1      21.476   0.292  52.836  1.00  0.00     0.734 A 
HETATM   16  N3  UNL     1      20.716  -0.508  53.581  1.00  0.00    -0.074 NA
HETATM   17  C7  UNL     1      19.415  -0.773  53.363  1.00  0.00     0.140 A 
HETATM   18  C6  UNL     1      18.782  -0.191  52.290  1.00  0.00     0.073 A 
HETATM   19  C5  UNL     1      19.544   0.637  51.507  1.00  0.00     0.169 A 
HETATM   20  N7  UNL     1      20.833   0.830  51.820  1.00  0.00    -0.043 NA
BRANCH  19  21
HETATM   21  N2  UNL     1      19.100   1.368  50.341  1.00  0.00    -0.241 NA
HETATM   22  C4  UNL     1      18.479   2.501  50.517  1.00  0.00     0.120 C 
BRANCH  22  23
HETATM   23  C3  UNL     1      17.902   3.587  51.266  1.00  0.00     0.035 C 
HETATM   24  C2  UNL     1      16.718   3.409  51.809  1.00  0.00     0.077 C 
BRANCH  24  25
HETATM   25  N1  UNL     1      16.068   4.406  52.555  1.00  0.00    -0.406 NA
HETATM   26  C1  UNL     1      15.022   4.220  53.295  1.00  0.00     0.313 C 
ENDBRANCH  24  25
ENDBRANCH  22  23
ENDBRANCH  19  21
ENDBRANCH   1  15
TORSDOF 4
ENDMDL
MODEL 3
REMARK VINA RESULT:      -8.2      1.915      4.827
REMARK  4 active torsions:
REMARK  status: ('A' for Active; 'I' for Inactive)
REMARK    1  A    between atoms: N1_2  and  C2_3 
REMARK    2  A    between atoms: C3_4  and  C4_5 
REMARK    3  A    between atoms: N2_6  and  C5_7 
REMARK    4  A    between atoms: C8_11  and  N4_12 
ROOT
HETATM    1  N4  UNL     1      25.802   2.494  51.919  1.00  0.00    -0.166 N 
HETATM    2  C9  UNL     1      26.236   2.659  50.554  1.00  0.00     0.110 C 
HETATM    3  C10 UNL     1      26.460   3.781  49.836  1.00  0.00    -0.008 C 
HETATM    4  C11 UNL     1      26.737   5.020  48.942  1.00  0.00     0.030 C 
HETATM    5  C12 UNL     1      25.500   5.951  49.139  1.00  0.00     0.024 C 
HETATM    6  C13 UNL     1      24.241   5.194  48.908  1.00  0.00     0.130 C 
HETATM    7  N5  UNL     1      22.983   5.751  49.357  1.00  0.00    -0.344 N 
HETATM    8  C14 UNL     1      21.885   6.344  48.854  1.00  0.00     0.111 A 
HETATM    9  C15 UNL     1      20.970   6.620  49.809  1.00  0.00     0.136 A 
HETATM   10  N6  UNL     1      21.484   6.194  50.979  1.00  0.00    -0.246 NA
HETATM   11  C16 UNL     1      22.699   5.666  50.741  1.00  0.00     0.109 A 
HETATM   12  C17 UNL     1      23.641   5.117  51.674  1.00  0.00     0.107 C 
HETATM   13  C18 UNL     1      23.665   3.952  52.482  1.00  0.00    -0.001 C 
HETATM   14  C19 UNL     1      24.589   2.949  52.502  1.00  0.00     0.111 C 
ENDROOT
BRANCH   1  15
HETATM   15  C8  UNL     1      26.691   1.784  52.765  1.00  0.00     0.734 A 
HETATM   16  N3  UNL     1      28.018   1.891  52.776  1.00  0.00    -0.074 NA
HETATM   17  C7  UNL     1      28.847   1.228  53.601  1.00  0.00     0.140 A 
HETATM   18  C6  UNL     1      28.320   0.353  54.522  1.00  0.00     0.073 A 
HETATM   19  C5  UNL     1      26.956   0.223  54.529  1.00  0.00     0.169 A 
HETATM   20  N7  UNL     1      26.226   0.937  53.661  1.00  0.00    -0.043 NA
BRANCH  19  21
HETATM   21  N2  UNL     1      26.175  -0.619  55.409  1.00  0.00    -0.241 NA
HETATM   22  C4  UNL     1      24.930  -0.852  55.102  1.00  0.00     0.120 C 
BRANCH  22  23
HETATM   23  C3  UNL     1      23.723  -0.761  54.320  1.00  0.00     0.035 C 
HETATM   24  C2  UNL     1      22.596  -1.160  54.866  1.00  0.00     0.077 C 
BRANCH  24  25
HETATM   25  N1  UNL     1      21.367  -1.116  54.189  1.00  0.00    -0.406 NA
HETATM   26  C1  UNL     1      20.755  -0.035  53.824  1.00  0.00     0.313 C 
ENDBRANCH  24  25
ENDBRANCH  22  23
ENDBRANCH  19  21
ENDBRANCH   1  15
TORSDOF 4
ENDMDL
MODEL 4
REMARK VINA RESULT:      -8.2      2.582      5.888
REMARK  4 active torsions:
REMARK  status: ('A' for Active; 'I' for Inactive)
REMARK    1  A    between atoms: N1_2  and  C2_3 
REMARK    2  A    between atoms: C3_4  and  C4_5 
REMARK    3  A    between atoms: N2_6  and  C5_7 
REMARK    4  A    between atoms: C8_11  and  N4_12 
ROOT
HETATM    1  N4  UNL     1      22.860   1.164  52.879  1.00  0.00    -0.166 N 
HETATM    2  C9  UNL     1      23.460   2.442  52.587  1.00  0.00     0.110 C 
HETATM    3  C10 UNL     1      24.480   2.761  51.762  1.00  0.00    -0.008 C 
HETATM    4  C11 UNL     1      25.646   3.212  50.839  1.00  0.00     0.030 C 
HETATM    5  C12 UNL     1      26.814   2.223  51.144  1.00  0.00     0.024 C 
HETATM    6  C13 UNL     1      27.070   2.160  52.607  1.00  0.00     0.130 C 
HETATM    7  N5  UNL     1      27.863   1.074  53.145  1.00  0.00    -0.344 N 
HETATM    8  C14 UNL     1      29.095   0.849  53.635  1.00  0.00     0.111 A 
HETATM    9  C15 UNL     1      29.257  -0.428  54.045  1.00  0.00     0.136 A 
HETATM   10  N6  UNL     1      28.092  -1.064  53.816  1.00  0.00    -0.246 NA
HETATM   11  C16 UNL     1      27.231  -0.185  53.270  1.00  0.00     0.109 A 
HETATM   12  C17 UNL     1      25.884  -0.403  52.823  1.00  0.00     0.107 C 
HETATM   13  C18 UNL     1      24.659  -0.682  53.480  1.00  0.00    -0.001 C 
HETATM   14  C19 UNL     1      23.490   0.019  53.436  1.00  0.00     0.111 C 
ENDROOT
BRANCH   1  15
HETATM   15  C8  UNL     1      21.477   1.053  52.586  1.00  0.00     0.734 A 
HETATM   16  N3  UNL     1      20.768  -0.074  52.565  1.00  0.00    -0.074 NA
HETATM   17  C7  UNL     1      19.451  -0.162  52.308  1.00  0.00     0.140 A 
HETATM   18  C6  UNL     1      18.742   0.985  52.037  1.00  0.00     0.073 A 
HETATM   19  C5  UNL     1      19.449   2.159  52.052  1.00  0.00     0.169 A 
HETATM   20  N7  UNL     1      20.762   2.128  52.322  1.00  0.00    -0.043 NA
BRANCH  19  21
HETATM   21  N2  UNL     1      18.924   3.485  51.813  1.00  0.00    -0.241 NA
HETATM   22  C4  UNL     1      19.666   4.339  51.166  1.00  0.00     0.120 C 
BRANCH  22  23
HETATM   23  C3  UNL     1      20.833   4.809  50.465  1.00  0.00     0.035 C 
HETATM   24  C2  UNL     1      21.762   5.435  51.152  1.00  0.00     0.077 C 
BRANCH  24  25
HETATM   25  N1  UNL     1      22.935   5.934  50.564  1.00  0.00    -0.406 NA
HETATM   26  C1  UNL     1      23.901   6.514  51.201  1.00  0.00     0.313 C 
ENDBRANCH  24  25
ENDBRANCH  22  23
ENDBRANCH  19  21
ENDBRANCH   1  15
TORSDOF 4
ENDMDL
MODEL 5
REMARK VINA RESULT:      -8.1      1.672      3.909
REMARK  4 active torsions:
REMARK  status: ('A' for Active; 'I' for Inactive)
REMARK    1  A    between atoms: N1_2  and  C2_3 
REMARK    2  A    between atoms: C3_4  and  C4_5 
REMARK    3  A    between atoms: N2_6  and  C5_7 
REMARK    4  A    between atoms: C8_11  and  N4_12 
ROOT
HETATM    1  N4  UNL     1      24.469   2.328  52.320  1.00  0.00    -0.166 N 
HETATM    2  C9  UNL     1      23.586   3.458  52.169  1.00  0.00     0.110 C 
HETATM    3  C10 UNL     1      23.116   4.059  51.055  1.00  0.00    -0.008 C 
HETATM    4  C11 UNL     1      22.536   4.809  49.825  1.00  0.00     0.030 C 
HETATM    5  C12 UNL     1      23.757   5.061  48.886  1.00  0.00     0.024 C 
HETATM    6  C13 UNL     1      24.862   5.711  49.638  1.00  0.00     0.130 C 
HETATM    7  N5  UNL     1      26.194   5.731  49.070  1.00  0.00    -0.344 N 
HETATM    8  C14 UNL     1      27.043   6.588  48.475  1.00  0.00     0.111 A 
HETATM    9  C15 UNL     1      28.231   6.013  48.186  1.00  0.00     0.136 A 
HETATM   10  N6  UNL     1      28.160   4.735  48.605  1.00  0.00    -0.246 NA
HETATM   11  C16 UNL     1      26.943   4.532  49.141  1.00  0.00     0.109 A 
HETATM   12  C17 UNL     1      26.388   3.326  49.688  1.00  0.00     0.107 C 
HETATM   13  C18 UNL     1      26.656   2.553  50.846  1.00  0.00    -0.001 C 
HETATM   14  C19 UNL     1      25.805   2.206  51.854  1.00  0.00     0.111 C 
ENDROOT
BRANCH   1  15
HETATM   15  C8  UNL     1      23.936   1.221  53.028  1.00  0.00     0.734 A 
HETATM   16  N3  UNL     1      24.638   0.244  53.599  1.00  0.00    -0.074 NA
HETATM   17  C7  UNL     1      24.119  -0.788  54.288  1.00  0.00     0.140 A 
HETATM   18  C6  UNL     1      22.755  -0.879  54.436  1.00  0.00     0.073 A 
HETATM   19  C5  UNL     1      22.010   0.115  53.856  1.00  0.00     0.169 A 
HETATM   20  N7  UNL     1      22.635   1.098  53.192  1.00  0.00    -0.043 NA
BRANCH  19  21
HETATM   21  N2  UNL     1      20.570   0.242  53.887  1.00  0.00    -0.241 NA
HETATM   22  C4  UNL     1      19.928   0.316  52.755  1.00  0.00     0.120 C 
BRANCH  22  23
HETATM   23  C3  UNL     1      19.777   0.352  51.323  1.00  0.00     0.035 C 
HETATM   24  C2  UNL     1      20.173   1.429  50.682  1.00  0.00     0.077 C 
BRANCH  24  25
HETATM   25  N1  UNL     1      20.067   1.566  49.289  1.00  0.00    -0.406 NA
HETATM   26  C1  UNL     1      21.066   1.670  48.471  1.00  0.00     0.313 C 
ENDBRANCH  24  25
ENDBRANCH  22  23
ENDBRANCH  19  21
ENDBRANCH   1  15
TORSDOF 4
ENDMDL
MODEL 6
REMARK VINA RESULT:      -7.9      1.865      7.989
REMARK  4 active torsions:
REMARK  status: ('A' for Active; 'I' for Inactive)
REMARK    1  A    between atoms: N1_2  and  C2_3 
REMARK    2  A    between atoms: C3_4  and  C4_5 
REMARK    3  A    between atoms: N2_6  and  C5_7 
REMARK    4  A    between atoms: C8_11  and  N4_12 
ROOT
HETATM    1  N4  UNL     1      25.001   3.286  51.296  1.00  0.00    -0.166 N 
HETATM    2  C9  UNL     1      26.091   2.670  52.010  1.00  0.00     0.110 C 
HETATM    3  C10 UNL     1      26.442   1.371  52.121  1.00  0.00    -0.008 C 
HETATM    4  C11 UNL     1      26.910  -0.099  52.301  1.00  0.00     0.030 C 
HETATM    5  C12 UNL     1      25.621  -0.897  52.668  1.00  0.00     0.024 C 
HETATM    6  C13 UNL     1      24.917  -0.248  53.805  1.00  0.00     0.130 C 
HETATM    7  N5  UNL     1      23.545  -0.609  54.093  1.00  0.00    -0.344 N 
HETATM    8  C14 UNL     1      22.838  -1.325  54.986  1.00  0.00     0.111 A 
HETATM    9  C15 UNL     1      21.508  -1.256  54.758  1.00  0.00     0.136 A 
HETATM   10  N6  UNL     1      21.335  -0.469  53.679  1.00  0.00    -0.246 NA
HETATM   11  C16 UNL     1      22.545  -0.064  53.252  1.00  0.00     0.109 A 
HETATM   12  C17 UNL     1      22.874   0.755  52.120  1.00  0.00     0.107 C 
HETATM   13  C18 UNL     1      22.677   2.123  51.802  1.00  0.00    -0.001 C 
HETATM   14  C19 UNL     1      23.610   3.065  51.482  1.00  0.00     0.111 C 
ENDROOT
BRANCH   1  15
HETATM   15  C8  UNL     1      25.371   4.229  50.304  1.00  0.00     0.734 A 
HETATM   16  N3  UNL     1      24.600   5.202  49.821  1.00  0.00    -0.074 NA
HETATM   17  C7  UNL     1      24.973   6.105  48.896  1.00  0.00     0.140 A 
HETATM   18  C6  UNL     1      26.246   6.049  48.378  1.00  0.00     0.073 A 
HETATM   19  C5  UNL     1      27.058   5.055  48.858  1.00  0.00     0.169 A 
HETATM   20  N7  UNL     1      26.581   4.210  49.783  1.00  0.00    -0.043 NA
BRANCH  19  21
HETATM   21  N2  UNL     1      28.431   4.806  48.479  1.00  0.00    -0.241 NA
HETATM   22  C4  UNL     1      29.156   5.812  48.075  1.00  0.00     0.120 C 
BRANCH  22  23
HETATM   23  C3  UNL     1      29.441   7.183  47.739  1.00  0.00     0.035 C 
HETATM   24  C2  UNL     1      29.448   8.073  48.706  1.00  0.00     0.077 C 
BRANCH  24  25
HETATM   25  N1  UNL     1      29.711   9.434  48.484  1.00  0.00    -0.406 NA
HETATM   26  C1  UNL     1      28.855  10.393  48.633  1.00  0.00     0.313 C 
ENDBRANCH  24  25
ENDBRANCH  22  23
ENDBRANCH  19  21
ENDBRANCH   1  15
TORSDOF 4
ENDMDL
MODEL 7
REMARK VINA RESULT:      -7.8      2.466      7.752
REMARK  4 active torsions:
REMARK  status: ('A' for Active; 'I' for Inactive)
REMARK    1  A    between atoms: N1_2  and  C2_3 
REMARK    2  A    between atoms: C3_4  and  C4_5 
REMARK    3  A    between atoms: N2_6  and  C5_7 
REMARK    4  A    between atoms: C8_11  and  N4_12 
ROOT
HETATM    1  N4  UNL     1      26.082   4.385  49.458  1.00  0.00    -0.166 N 
HETATM    2  C9  UNL     1      24.709   4.821  49.404  1.00  0.00     0.110 C 
HETATM    3  C10 UNL     1      23.842   5.106  50.399  1.00  0.00    -0.008 C 
HETATM    4  C11 UNL     1      22.783   5.450  51.482  1.00  0.00     0.030 C 
HETATM    5  C12 UNL     1      22.843   4.270  52.501  1.00  0.00     0.024 C 
HETATM    6  C13 UNL     1      22.717   2.969  51.794  1.00  0.00     0.130 C 
HETATM    7  N5  UNL     1      23.079   1.747  52.481  1.00  0.00    -0.344 N 
HETATM    8  C14 UNL     1      22.494   0.683  53.061  1.00  0.00     0.111 A 
HETATM    9  C15 UNL     1      23.398  -0.210  53.521  1.00  0.00     0.136 A 
HETATM   10  N6  UNL     1      24.618   0.284  53.234  1.00  0.00    -0.246 NA
HETATM   11  C16 UNL     1      24.460   1.465  52.608  1.00  0.00     0.109 A 
HETATM   12  C17 UNL     1      25.464   2.378  52.142  1.00  0.00     0.107 C 
HETATM   13  C18 UNL     1      26.428   2.339  51.102  1.00  0.00    -0.001 C 
HETATM   14  C19 UNL     1      26.592   3.203  50.060  1.00  0.00     0.111 C 
ENDROOT
BRANCH   1  15
HETATM   15  C8  UNL     1      27.023   5.235  48.823  1.00  0.00     0.734 A 
HETATM   16  N3  UNL     1      26.803   6.485  48.419  1.00  0.00    -0.074 NA
HETATM   17  C7  UNL     1      27.713   7.287  47.839  1.00  0.00     0.140 A 
HETATM   18  C6  UNL     1      28.986   6.814  47.623  1.00  0.00     0.073 A 
HETATM   19  C5  UNL     1      29.237   5.529  48.028  1.00  0.00     0.169 A 
HETATM   20  N7  UNL     1      28.253   4.819  48.599  1.00  0.00    -0.043 NA
BRANCH  19  21
HETATM   21  N2  UNL     1      30.494   4.822  47.921  1.00  0.00    -0.241 NA
HETATM   22  C4  UNL     1      31.580   5.423  48.319  1.00  0.00     0.120 C 
BRANCH  22  23
HETATM   23  C3  UNL     1      32.372   6.496  48.864  1.00  0.00     0.035 C 
HETATM   24  C2  UNL     1      33.361   6.969  48.140  1.00  0.00     0.077 C 
BRANCH  24  25
HETATM   25  N1  UNL     1      34.193   8.011  48.582  1.00  0.00    -0.406 NA
HETATM   26  C1  UNL     1      35.423   8.188  48.219  1.00  0.00     0.313 C 
ENDBRANCH  24  25
ENDBRANCH  22  23
ENDBRANCH  19  21
ENDBRANCH   1  15
TORSDOF 4
ENDMDL
MODEL 8
REMARK VINA RESULT:      -7.8      4.352      8.282
REMARK  4 active torsions:
REMARK  status: ('A' for Active; 'I' for Inactive)
REMARK    1  A    between atoms: N1_2  and  C2_3 
REMARK    2  A    between atoms: C3_4  and  C4_5 
REMARK    3  A    between atoms: N2_6  and  C5_7 
REMARK    4  A    between atoms: C8_11  and  N4_12 
ROOT
HETATM    1  N4  UNL     1      20.363   0.269  53.186  1.00  0.00    -0.166 N 
HETATM    2  C9  UNL     1      20.706   1.580  52.695  1.00  0.00     0.110 C 
HETATM    3  C10 UNL     1      21.681   1.969  51.844  1.00  0.00    -0.008 C 
HETATM    4  C11 UNL     1      22.776   2.498  50.879  1.00  0.00     0.030 C 
HETATM    5  C12 UNL     1      24.103   1.834  51.361  1.00  0.00     0.024 C 
HETATM    6  C13 UNL     1      24.293   2.060  52.818  1.00  0.00     0.130 C 
HETATM    7  N5  UNL     1      25.262   1.262  53.541  1.00  0.00    -0.344 N 
HETATM    8  C14 UNL     1      26.488   1.379  54.082  1.00  0.00     0.111 A 
HETATM    9  C15 UNL     1      26.884   0.245  54.701  1.00  0.00     0.136 A 
HETATM   10  N6  UNL     1      25.884  -0.647  54.561  1.00  0.00    -0.246 NA
HETATM   11  C16 UNL     1      24.891  -0.065  53.864  1.00  0.00     0.109 A 
HETATM   12  C17 UNL     1      23.641  -0.626  53.438  1.00  0.00     0.107 C 
HETATM   13  C18 UNL     1      22.466  -1.045  54.113  1.00  0.00    -0.001 C 
HETATM   14  C19 UNL     1      21.183  -0.617  53.935  1.00  0.00     0.111 C 
ENDROOT
BRANCH   1  15
HETATM   15  C8  UNL     1      19.047  -0.172  52.894  1.00  0.00     0.734 A 
HETATM   16  N3  UNL     1      18.497  -1.317  53.292  1.00  0.00    -0.074 NA
HETATM   17  C7  UNL     1      17.239  -1.712  53.027  1.00  0.00     0.140 A 
HETATM   18  C6  UNL     1      16.422  -0.893  52.282  1.00  0.00     0.073 A 
HETATM   19  C5  UNL     1      16.965   0.291  51.859  1.00  0.00     0.169 A 
HETATM   20  N7  UNL     1      18.233   0.583  52.184  1.00  0.00    -0.043 NA
BRANCH  19  21
HETATM   21  N2  UNL     1      16.302   1.314  51.081  1.00  0.00    -0.241 NA
HETATM   22  C4  UNL     1      15.531   2.164  51.701  1.00  0.00     0.120 C 
BRANCH  22  23
HETATM   23  C3  UNL     1      14.866   2.764  52.829  1.00  0.00     0.035 C 
HETATM   24  C2  UNL     1      14.172   3.862  52.630  1.00  0.00     0.077 C 
BRANCH  24  25
HETATM   25  N1  UNL     1      13.490   4.526  53.662  1.00  0.00    -0.406 NA
HETATM   26  C1  UNL     1      12.442   4.075  54.274  1.00  0.00     0.313 C 
ENDBRANCH  24  25
ENDBRANCH  22  23
ENDBRANCH  19  21
ENDBRANCH   1  15
TORSDOF 4
ENDMDL
MODEL 9
REMARK VINA RESULT:      -7.8      2.360      4.254
REMARK  4 active torsions:
REMARK  status: ('A' for Active; 'I' for Inactive)
REMARK    1  A    between atoms: N1_2  and  C2_3 
REMARK    2  A    between atoms: C3_4  and  C4_5 
REMARK    3  A    between atoms: N2_6  and  C5_7 
REMARK    4  A    between atoms: C8_11  and  N4_12 
ROOT
HETATM    1  N4  UNL     1      25.157   6.202  50.041  1.00  0.00    -0.166 N 
HETATM    2  C9  UNL     1      25.868   5.588  48.947  1.00  0.00     0.110 C 
HETATM    3  C10 UNL     1      27.188   5.569  48.661  1.00  0.00    -0.008 C 
HETATM    4  C11 UNL     1      28.687   5.503  48.260  1.00  0.00     0.030 C 
HETATM    5  C12 UNL     1      29.204   6.971  48.368  1.00  0.00     0.024 C 
HETATM    6  C13 UNL     1      28.320   7.889  47.603  1.00  0.00     0.130 C 
HETATM    7  N5  UNL     1      28.405   9.316  47.833  1.00  0.00    -0.344 N 
HETATM    8  C14 UNL     1      28.883  10.424  47.240  1.00  0.00     0.111 A 
HETATM    9  C15 UNL     1      28.613  11.542  47.950  1.00  0.00     0.136 A 
HETATM   10  N6  UNL     1      27.933  11.154  49.047  1.00  0.00    -0.246 NA
HETATM   11  C16 UNL     1      27.793   9.817  49.008  1.00  0.00     0.109 A 
HETATM   12  C17 UNL     1      27.175   8.947  49.967  1.00  0.00     0.107 C 
HETATM   13  C18 UNL     1      25.838   8.736  50.391  1.00  0.00    -0.001 C 
HETATM   14  C19 UNL     1      25.113   7.582  50.378  1.00  0.00     0.111 C 
ENDROOT
BRANCH   1  15
HETATM   15  C8  UNL     1      24.409   5.319  50.861  1.00  0.00     0.734 A 
HETATM   16  N3  UNL     1      23.367   5.649  51.622  1.00  0.00    -0.074 NA
HETATM   17  C7  UNL     1      22.652   4.797  52.376  1.00  0.00     0.140 A 
HETATM   18  C6  UNL     1      22.996   3.465  52.394  1.00  0.00     0.073 A 
HETATM   19  C5  UNL     1      24.066   3.100  51.620  1.00  0.00     0.169 A 
HETATM   20  N7  UNL     1      24.706   4.037  50.905  1.00  0.00    -0.043 NA
BRANCH  19  21
HETATM   21  N2  UNL     1      24.603   1.766  51.465  1.00  0.00    -0.241 NA
HETATM   22  C4  UNL     1      25.856   1.563  51.763  1.00  0.00     0.120 C 
BRANCH  22  23
HETATM   23  C3  UNL     1      27.182   1.912  52.204  1.00  0.00     0.035 C 
HETATM   24  C2  UNL     1      27.363   2.184  53.478  1.00  0.00     0.077 C 
BRANCH  24  25
HETATM   25  N1  UNL     1      28.614   2.538  54.008  1.00  0.00    -0.406 NA
HETATM   26  C1  UNL     1      29.427   1.727  54.607  1.00  0.00     0.313 C 
ENDBRANCH  24  25
ENDBRANCH  22  23
ENDBRANCH  19  21
ENDBRANCH   1  15
TORSDOF 4
ENDMDL
