MODEL 1
REMARK VINA RESULT:      -7.6      0.000      0.000
REMARK  2 active torsions:
REMARK  status: ('A' for Active; 'I' for Inactive)
REMARK    1  A    between atoms: C7_7  and  N1_8 
REMARK    2  A    between atoms: N1_8  and  C8_9 
ROOT
HETATM    1  C8  UNL     1      25.204   2.596  51.423  1.00  0.00     0.344 C 
HETATM    2  C9  UNL     1      25.805   2.858  50.107  1.00  0.00     0.089 C 
HETATM    3  C10 UNL     1      26.624   4.108  50.010  1.00  0.00     0.274 C 
HETATM    4  N2  UNL     1      25.879   5.321  50.104  1.00  0.00     0.088 N 
HETATM    5  C11 UNL     1      25.063   5.549  48.922  1.00  0.00     0.311 C 
HETATM    6  P1  UNL     1      24.195   7.208  49.154  1.00  0.00    -0.030 P 
HETATM    7  S1  UNL     1      22.271   6.803  50.158  1.00  0.00    -0.092 SA
HETATM    8  C12 UNL     1      22.677   5.643  51.489  1.00  0.00     0.167 C 
HETATM    9  N3  UNL     1      22.964   4.876  52.470  1.00  0.00    -0.247 NA
HETATM   10  C13 UNL     1      23.138   3.483  52.299  1.00  0.00     0.229 C 
HETATM   11  N4  UNL     1      24.352   3.679  51.835  1.00  0.00    -0.247 NA
HETATM   12  H16 UNL     1      26.440   6.136  50.369  1.00  0.00     0.316 HD
HETATM   13  H19 UNL     1      23.903   7.763  47.824  1.00  0.00     0.071 HD
ENDROOT
BRANCH   1  14
HETATM   14  N1  UNL     1      26.130   2.409  52.501  1.00  0.00     0.115 N 
HETATM   15  H10 UNL     1      26.540   3.305  52.768  1.00  0.00     0.319 HD
BRANCH  14  16
HETATM   16  C7  UNL     1      25.759   1.587  53.577  1.00  0.00     0.247 C 
HETATM   17  C6  UNL     1      25.035   0.363  52.998  1.00  0.00     0.043 C 
HETATM   18  C5  UNL     1      26.005  -0.646  52.552  1.00  0.00     0.032 C 
HETATM   19  C4  UNL     1      26.941  -1.527  52.396  1.00  0.00    -0.034 C 
HETATM   20  C3  UNL     1      28.007  -1.478  53.164  1.00  0.00     0.026 C 
HETATM   21  C2  UNL     1      28.632  -0.399  53.985  1.00  0.00     0.122 C 
HETATM   22  C1  UNL     1      30.075  -0.315  53.501  1.00  0.00     0.040 C 
HETATM   23  O1  UNL     1      28.064   0.827  53.713  1.00  0.00    -0.384 OA
HETATM   24  C14 UNL     1      26.888   1.060  54.414  1.00  0.00     0.203 C 
ENDBRANCH  14  16
ENDBRANCH   1  14
TORSDOF 2
ENDMDL
MODEL 2
REMARK VINA RESULT:      -7.3      2.137      3.167
REMARK  2 active torsions:
REMARK  status: ('A' for Active; 'I' for Inactive)
REMARK    1  A    between atoms: C7_7  and  N1_8 
REMARK    2  A    between atoms: N1_8  and  C8_9 
ROOT
HETATM    1  C8  UNL     1      24.669   1.958  52.355  1.00  0.00     0.344 C 
HETATM    2  C9  UNL     1      23.285   1.751  52.805  1.00  0.00     0.089 C 
HETATM    3  C10 UNL     1      22.453   0.857  51.939  1.00  0.00     0.274 C 
HETATM    4  N2  UNL     1      22.139   1.391  50.654  1.00  0.00     0.088 N 
HETATM    5  C11 UNL     1      21.190   2.489  50.739  1.00  0.00     0.311 C 
HETATM    6  P1  UNL     1      20.818   3.045  48.976  1.00  0.00    -0.030 P 
HETATM    7  S1  UNL     1      22.284   4.615  48.463  1.00  0.00    -0.092 SA
HETATM    8  C12 UNL     1      23.875   3.970  49.040  1.00  0.00     0.167 C 
HETATM    9  N3  UNL     1      25.011   3.496  49.384  1.00  0.00    -0.247 NA
HETATM   10  C13 UNL     1      25.464   3.546  50.723  1.00  0.00     0.229 C 
HETATM   11  N4  UNL     1      24.713   2.513  51.029  1.00  0.00    -0.247 NA
HETATM   12  H16 UNL     1      21.874   0.683  49.961  1.00  0.00     0.316 HD
HETATM   13  H19 UNL     1      19.479   3.654  48.960  1.00  0.00     0.071 HD
ENDROOT
BRANCH   1  14
HETATM   14  N1  UNL     1      25.486   0.780  52.302  1.00  0.00     0.115 N 
HETATM   15  H10 UNL     1      26.387   1.001  51.876  1.00  0.00     0.319 HD
BRANCH  14  16
HETATM   16  C7  UNL     1      25.557  -0.046  53.435  1.00  0.00     0.247 C 
HETATM   17  C6  UNL     1      26.184  -1.378  52.998  1.00  0.00     0.043 C 
HETATM   18  C5  UNL     1      27.649  -1.274  52.972  1.00  0.00     0.032 C 
HETATM   19  C4  UNL     1      28.916  -1.119  53.189  1.00  0.00    -0.034 C 
HETATM   20  C3  UNL     1      29.312  -0.280  54.122  1.00  0.00     0.026 C 
HETATM   21  C2  UNL     1      28.662   0.881  54.800  1.00  0.00     0.122 C 
HETATM   22  C1  UNL     1      29.621   2.049  54.598  1.00  0.00     0.040 C 
HETATM   23  O1  UNL     1      27.488   1.234  54.170  1.00  0.00    -0.384 OA
HETATM   24  C14 UNL     1      26.397   0.472  54.566  1.00  0.00     0.203 C 
ENDBRANCH  14  16
ENDBRANCH   1  14
TORSDOF 2
ENDMDL
MODEL 3
REMARK VINA RESULT:      -7.1      1.705      1.970
REMARK  2 active torsions:
REMARK  status: ('A' for Active; 'I' for Inactive)
REMARK    1  A    between atoms: C7_7  and  N1_8 
REMARK    2  A    between atoms: N1_8  and  C8_9 
ROOT
HETATM    1  C8  UNL     1      23.629   2.611  50.173  1.00  0.00     0.344 C 
HETATM    2  C9  UNL     1      24.695   3.287  49.418  1.00  0.00     0.089 C 
HETATM    3  C10 UNL     1      25.592   4.174  50.224  1.00  0.00     0.274 C 
HETATM    4  N2  UNL     1      24.970   5.351  50.735  1.00  0.00     0.088 N 
HETATM    5  C11 UNL     1      24.672   6.308  49.682  1.00  0.00     0.311 C 
HETATM    6  P1  UNL     1      23.922   7.830  50.505  1.00  0.00    -0.030 P 
HETATM    7  S1  UNL     1      21.735   7.526  50.571  1.00  0.00    -0.092 SA
HETATM    8  C12 UNL     1      21.522   5.819  51.140  1.00  0.00     0.167 C 
HETATM    9  N3  UNL     1      21.360   4.640  51.604  1.00  0.00    -0.247 NA
HETATM   10  C13 UNL     1      21.468   3.495  50.779  1.00  0.00     0.229 C 
HETATM   11  N4  UNL     1      22.779   3.559  50.842  1.00  0.00    -0.247 NA
HETATM   12  H16 UNL     1      25.458   5.770  51.532  1.00  0.00     0.316 HD
HETATM   13  H19 UNL     1      24.190   8.995  49.648  1.00  0.00     0.071 HD
ENDROOT
BRANCH   1  14
HETATM   14  N1  UNL     1      24.071   1.708  51.195  1.00  0.00     0.115 N 
HETATM   15  H10 UNL     1      25.035   1.423  51.015  1.00  0.00     0.319 HD
BRANCH  14  16
HETATM   16  C7  UNL     1      23.788   2.011  52.536  1.00  0.00     0.247 C 
HETATM   17  C6  UNL     1      23.229   0.740  53.191  1.00  0.00     0.043 C 
HETATM   18  C5  UNL     1      24.322  -0.145  53.614  1.00  0.00     0.032 C 
HETATM   19  C4  UNL     1      25.362  -0.727  54.121  1.00  0.00    -0.034 C 
HETATM   20  C3  UNL     1      26.402  -0.001  54.469  1.00  0.00     0.026 C 
HETATM   21  C2  UNL     1      26.877   1.361  54.084  1.00  0.00     0.122 C 
HETATM   22  C1  UNL     1      28.306   1.161  53.592  1.00  0.00     0.040 C 
HETATM   23  O1  UNL     1      26.167   1.853  53.010  1.00  0.00    -0.384 OA
HETATM   24  C14 UNL     1      24.960   2.442  53.368  1.00  0.00     0.203 C 
ENDBRANCH  14  16
ENDBRANCH   1  14
TORSDOF 2
ENDMDL
MODEL 4
REMARK VINA RESULT:      -7.1      3.726      5.623
REMARK  2 active torsions:
REMARK  status: ('A' for Active; 'I' for Inactive)
REMARK    1  A    between atoms: C7_7  and  N1_8 
REMARK    2  A    between atoms: N1_8  and  C8_9 
ROOT
HETATM    1  C8  UNL     1      25.645   6.633  49.473  1.00  0.00     0.344 C 
HETATM    2  C9  UNL     1      26.292   5.880  48.389  1.00  0.00     0.089 C 
HETATM    3  C10 UNL     1      27.622   5.280  48.727  1.00  0.00     0.274 C 
HETATM    4  N2  UNL     1      28.671   6.226  48.929  1.00  0.00     0.088 N 
HETATM    5  C11 UNL     1      29.073   6.865  47.687  1.00  0.00     0.311 C 
HETATM    6  P1  UNL     1      30.501   8.028  48.093  1.00  0.00    -0.030 P 
HETATM    7  S1  UNL     1      29.623   9.993  48.588  1.00  0.00    -0.092 SA
HETATM    8  C12 UNL     1      28.237   9.617  49.691  1.00  0.00     0.167 C 
HETATM    9  N3  UNL     1      27.299   9.368  50.522  1.00  0.00    -0.247 NA
HETATM   10  C13 UNL     1      26.022   8.934  50.094  1.00  0.00     0.229 C 
HETATM   11  N4  UNL     1      26.478   7.712  49.932  1.00  0.00    -0.247 NA
HETATM   12  H16 UNL     1      29.463   5.862  49.469  1.00  0.00     0.316 HD
HETATM   13  H19 UNL     1      31.320   8.190  46.882  1.00  0.00     0.071 HD
ENDROOT
BRANCH   1  14
HETATM   14  N1  UNL     1      25.322   5.876  50.647  1.00  0.00     0.115 N 
HETATM   15  H10 UNL     1      25.976   6.101  51.398  1.00  0.00     0.319 HD
BRANCH  14  16
HETATM   16  C7  UNL     1      23.978   5.784  51.045  1.00  0.00     0.247 C 
HETATM   17  C6  UNL     1      23.143   5.488  49.790  1.00  0.00     0.043 C 
HETATM   18  C5  UNL     1      23.161   4.051  49.487  1.00  0.00     0.032 C 
HETATM   19  C4  UNL     1      23.084   2.759  49.451  1.00  0.00    -0.034 C 
HETATM   20  C3  UNL     1      23.171   2.076  50.572  1.00  0.00     0.026 C 
HETATM   21  C2  UNL     1      23.724   2.389  51.923  1.00  0.00     0.122 C 
HETATM   22  C1  UNL     1      24.724   1.274  52.211  1.00  0.00     0.040 C 
HETATM   23  O1  UNL     1      24.450   3.561  51.906  1.00  0.00    -0.384 OA
HETATM   24  C14 UNL     1      23.665   4.699  52.033  1.00  0.00     0.203 C 
ENDBRANCH  14  16
ENDBRANCH   1  14
TORSDOF 2
ENDMDL
MODEL 5
REMARK VINA RESULT:      -6.7      3.714      6.914
REMARK  2 active torsions:
REMARK  status: ('A' for Active; 'I' for Inactive)
REMARK    1  A    between atoms: C7_7  and  N1_8 
REMARK    2  A    between atoms: N1_8  and  C8_9 
ROOT
HETATM    1  C8  UNL     1      24.246   3.668  50.432  1.00  0.00     0.344 C 
HETATM    2  C9  UNL     1      23.031   2.919  50.787  1.00  0.00     0.089 C 
HETATM    3  C10 UNL     1      22.736   2.828  52.252  1.00  0.00     0.274 C 
HETATM    4  N2  UNL     1      23.654   2.031  52.999  1.00  0.00     0.088 N 
HETATM    5  C11 UNL     1      23.514   0.616  52.700  1.00  0.00     0.311 C 
HETATM    6  P1  UNL     1      24.731  -0.312  53.801  1.00  0.00    -0.030 P 
HETATM    7  S1  UNL     1      26.631  -0.470  52.687  1.00  0.00    -0.092 SA
HETATM    8  C12 UNL     1      26.900   1.182  51.994  1.00  0.00     0.167 C 
HETATM    9  N3  UNL     1      27.133   2.360  51.556  1.00  0.00    -0.247 NA
HETATM   10  C13 UNL     1      26.515   2.852  50.382  1.00  0.00     0.229 C 
HETATM   11  N4  UNL     1      25.412   3.100  51.052  1.00  0.00    -0.247 NA
HETATM   12  H16 UNL     1      23.658   2.231  54.004  1.00  0.00     0.316 HD
HETATM   13  H19 UNL     1      24.216  -1.674  54.010  1.00  0.00     0.071 HD
ENDROOT
BRANCH   1  14
HETATM   14  N1  UNL     1      24.251   5.053  50.806  1.00  0.00     0.115 N 
HETATM   15  H10 UNL     1      25.115   5.275  51.303  1.00  0.00     0.319 HD
BRANCH  14  16
HETATM   16  C7  UNL     1      23.851   6.011  49.862  1.00  0.00     0.247 C 
HETATM   17  C6  UNL     1      23.920   7.387  50.540  1.00  0.00     0.043 C 
HETATM   18  C5  UNL     1      25.291   7.912  50.503  1.00  0.00     0.032 C 
HETATM   19  C4  UNL     1      26.478   8.348  50.223  1.00  0.00    -0.034 C 
HETATM   20  C3  UNL     1      27.077   7.929  49.130  1.00  0.00     0.026 C 
HETATM   21  C2  UNL     1      26.890   6.737  48.250  1.00  0.00     0.122 C 
HETATM   22  C1  UNL     1      28.260   6.071  48.185  1.00  0.00     0.040 C 
HETATM   23  O1  UNL     1      26.043   5.817  48.829  1.00  0.00    -0.384 OA
HETATM   24  C14 UNL     1      24.698   6.100  48.626  1.00  0.00     0.203 C 
ENDBRANCH  14  16
ENDBRANCH   1  14
TORSDOF 2
ENDMDL
MODEL 6
REMARK VINA RESULT:      -6.7      7.076      9.045
REMARK  2 active torsions:
REMARK  status: ('A' for Active; 'I' for Inactive)
REMARK    1  A    between atoms: C7_7  and  N1_8 
REMARK    2  A    between atoms: N1_8  and  C8_9 
ROOT
HETATM    1  C8  UNL     1      31.825   7.168  47.961  1.00  0.00     0.344 C 
HETATM    2  C9  UNL     1      31.551   8.612  48.000  1.00  0.00     0.089 C 
HETATM    3  C10 UNL     1      31.070   9.140  49.316  1.00  0.00     0.274 C 
HETATM    4  N2  UNL     1      29.765   8.706  49.695  1.00  0.00     0.088 N 
HETATM    5  C11 UNL     1      28.731   9.310  48.872  1.00  0.00     0.311 C 
HETATM    6  P1  UNL     1      27.069   8.704  49.526  1.00  0.00    -0.030 P 
HETATM    7  S1  UNL     1      26.574   6.850  48.434  1.00  0.00    -0.092 SA
HETATM    8  C12 UNL     1      28.110   5.889  48.434  1.00  0.00     0.167 C 
HETATM    9  N3  UNL     1      29.168   5.174  48.485  1.00  0.00    -0.247 NA
HETATM   10  C13 UNL     1      30.248   5.380  47.595  1.00  0.00     0.229 C 
HETATM   11  N4  UNL     1      30.659   6.402  48.310  1.00  0.00    -0.247 NA
HETATM   12  H16 UNL     1      29.575   8.782  50.699  1.00  0.00     0.316 HD
HETATM   13  H19 UNL     1      26.050   9.711  49.193  1.00  0.00     0.071 HD
ENDROOT
BRANCH   1  14
HETATM   14  N1  UNL     1      32.860   6.709  48.841  1.00  0.00     0.115 N 
HETATM   15  H10 UNL     1      32.614   5.794  49.221  1.00  0.00     0.319 HD
BRANCH  14  16
HETATM   16  C7  UNL     1      34.198   6.839  48.438  1.00  0.00     0.247 C 
HETATM   17  C6  UNL     1      34.989   5.689  49.080  1.00  0.00     0.043 C 
HETATM   18  C5  UNL     1      34.858   4.464  48.280  1.00  0.00     0.032 C 
HETATM   19  C4  UNL     1      34.837   3.525  47.390  1.00  0.00    -0.034 C 
HETATM   20  C3  UNL     1      34.716   3.843  46.119  1.00  0.00     0.026 C 
HETATM   21  C2  UNL     1      34.208   5.054  45.409  1.00  0.00     0.122 C 
HETATM   22  C1  UNL     1      33.131   4.538  44.460  1.00  0.00     0.040 C 
HETATM   23  O1  UNL     1      33.573   5.914  46.279  1.00  0.00    -0.384 OA
HETATM   24  C14 UNL     1      34.444   6.754  46.960  1.00  0.00     0.203 C 
ENDBRANCH  14  16
ENDBRANCH   1  14
TORSDOF 2
ENDMDL
MODEL 7
REMARK VINA RESULT:      -6.5      2.457      3.922
REMARK  2 active torsions:
REMARK  status: ('A' for Active; 'I' for Inactive)
REMARK    1  A    between atoms: C7_7  and  N1_8 
REMARK    2  A    between atoms: N1_8  and  C8_9 
ROOT
HETATM    1  C8  UNL     1      23.708   4.606  52.359  1.00  0.00     0.344 C 
HETATM    2  C9  UNL     1      22.260   4.700  52.598  1.00  0.00     0.089 C 
HETATM    3  C10 UNL     1      21.441   3.580  52.034  1.00  0.00     0.274 C 
HETATM    4  N2  UNL     1      21.378   3.542  50.610  1.00  0.00     0.088 N 
HETATM    5  C11 UNL     1      20.583   4.634  50.072  1.00  0.00     0.311 C 
HETATM    6  P1  UNL     1      20.531   4.418  48.199  1.00  0.00    -0.030 P 
HETATM    7  S1  UNL     1      22.250   5.525  47.366  1.00  0.00    -0.092 SA
HETATM    8  C12 UNL     1      23.648   5.080  48.430  1.00  0.00     0.167 C 
HETATM    9  N3  UNL     1      24.652   4.722  49.133  1.00  0.00    -0.247 NA
HETATM   10  C13 UNL     1      24.923   5.303  50.394  1.00  0.00     0.229 C 
HETATM   11  N4  UNL     1      24.005   4.546  50.953  1.00  0.00    -0.247 NA
HETATM   12  H16 UNL     1      21.117   2.628  50.227  1.00  0.00     0.316 HD
HETATM   13  H19 UNL     1      19.301   5.050  47.699  1.00  0.00     0.071 HD
ENDROOT
BRANCH   1  14
HETATM   14  N1  UNL     1      24.359   3.465  52.934  1.00  0.00     0.115 N 
HETATM   15  H10 UNL     1      23.787   3.082  53.688  1.00  0.00     0.319 HD
BRANCH  14  16
HETATM   16  C7  UNL     1      24.926   2.506  52.080  1.00  0.00     0.247 C 
HETATM   17  C6  UNL     1      26.337   2.198  52.601  1.00  0.00     0.043 C 
HETATM   18  C5  UNL     1      26.281   1.209  53.685  1.00  0.00     0.032 C 
HETATM   19  C4  UNL     1      26.117   0.193  54.472  1.00  0.00    -0.034 C 
HETATM   20  C3  UNL     1      25.109  -0.626  54.265  1.00  0.00     0.026 C 
HETATM   21  C2  UNL     1      23.814  -0.495  53.535  1.00  0.00     0.122 C 
HETATM   22  C1  UNL     1      22.742  -0.864  54.555  1.00  0.00     0.040 C 
HETATM   23  O1  UNL     1      23.571   0.814  53.179  1.00  0.00    -0.384 OA
HETATM   24  C14 UNL     1      24.202   1.194  52.001  1.00  0.00     0.203 C 
ENDBRANCH  14  16
ENDBRANCH   1  14
TORSDOF 2
ENDMDL
MODEL 8
REMARK VINA RESULT:      -6.3      3.885      7.503
REMARK  2 active torsions:
REMARK  status: ('A' for Active; 'I' for Inactive)
REMARK    1  A    between atoms: C7_7  and  N1_8 
REMARK    2  A    between atoms: N1_8  and  C8_9 
ROOT
HETATM    1  C8  UNL     1      24.472   3.793  50.618  1.00  0.00     0.344 C 
HETATM    2  C9  UNL     1      23.219   3.049  50.817  1.00  0.00     0.089 C 
HETATM    3  C10 UNL     1      22.805   2.856  52.243  1.00  0.00     0.274 C 
HETATM    4  N2  UNL     1      23.646   1.985  52.998  1.00  0.00     0.088 N 
HETATM    5  C11 UNL     1      23.505   0.599  52.582  1.00  0.00     0.311 C 
HETATM    6  P1  UNL     1      24.613  -0.437  53.703  1.00  0.00    -0.030 P 
HETATM    7  S1  UNL     1      26.594  -0.556  52.734  1.00  0.00    -0.092 SA
HETATM    8  C12 UNL     1      26.947   1.136  52.192  1.00  0.00     0.167 C 
HETATM    9  N3  UNL     1      27.235   2.337  51.865  1.00  0.00    -0.247 NA
HETATM   10  C13 UNL     1      26.723   2.930  50.687  1.00  0.00     0.229 C 
HETATM   11  N4  UNL     1      25.574   3.153  51.283  1.00  0.00    -0.247 NA
HETATM   12  H16 UNL     1      23.572   2.109  54.013  1.00  0.00     0.316 HD
HETATM   13  H19 UNL     1      24.058  -1.797  53.766  1.00  0.00     0.071 HD
ENDROOT
BRANCH   1  14
HETATM   14  N1  UNL     1      24.472   5.146  51.095  1.00  0.00     0.115 N 
HETATM   15  H10 UNL     1      24.775   5.171  52.070  1.00  0.00     0.319 HD
BRANCH  14  16
HETATM   16  C7  UNL     1      25.018   6.151  50.282  1.00  0.00     0.247 C 
HETATM   17  C6  UNL     1      24.979   5.646  48.832  1.00  0.00     0.043 C 
HETATM   18  C5  UNL     1      23.654   5.878  48.242  1.00  0.00     0.032 C 
HETATM   19  C4  UNL     1      22.529   6.322  47.779  1.00  0.00    -0.034 C 
HETATM   20  C3  UNL     1      22.006   7.413  48.294  1.00  0.00     0.026 C 
HETATM   21  C2  UNL     1      22.193   8.127  49.592  1.00  0.00     0.122 C 
HETATM   22  C1  UNL     1      20.794   8.249  50.186  1.00  0.00     0.040 C 
HETATM   23  O1  UNL     1      22.922   7.365  50.480  1.00  0.00    -0.384 OA
HETATM   24  C14 UNL     1      24.296   7.466  50.297  1.00  0.00     0.203 C 
ENDBRANCH  14  16
ENDBRANCH   1  14
TORSDOF 2
ENDMDL
MODEL 9
REMARK VINA RESULT:      -6.2      1.766      2.933
REMARK  2 active torsions:
REMARK  status: ('A' for Active; 'I' for Inactive)
REMARK    1  A    between atoms: C7_7  and  N1_8 
REMARK    2  A    between atoms: N1_8  and  C8_9 
ROOT
HETATM    1  C8  UNL     1      24.192   4.081  51.888  1.00  0.00     0.344 C 
HETATM    2  C9  UNL     1      22.980   4.618  52.524  1.00  0.00     0.089 C 
HETATM    3  C10 UNL     1      21.695   4.319  51.817  1.00  0.00     0.274 C 
HETATM    4  N2  UNL     1      21.535   4.975  50.560  1.00  0.00     0.088 N 
HETATM    5  C11 UNL     1      21.324   6.405  50.718  1.00  0.00     0.311 C 
HETATM    6  P1  UNL     1      21.062   7.124  48.994  1.00  0.00    -0.030 P 
HETATM    7  S1  UNL     1      23.047   7.705  48.220  1.00  0.00    -0.092 SA
HETATM    8  C12 UNL     1      24.126   6.305  48.614  1.00  0.00     0.167 C 
HETATM    9  N3  UNL     1      24.880   5.296  48.828  1.00  0.00    -0.247 NA
HETATM   10  C13 UNL     1      25.470   5.062  50.093  1.00  0.00     0.229 C 
HETATM   11  N4  UNL     1      24.339   4.569  50.543  1.00  0.00    -0.247 NA
HETATM   12  H16 UNL     1      20.848   4.533  49.942  1.00  0.00     0.316 HD
HETATM   13  H19 UNL     1      20.253   8.345  49.124  1.00  0.00     0.071 HD
ENDROOT
BRANCH   1  14
HETATM   14  N1  UNL     1      24.255   2.652  51.784  1.00  0.00     0.115 N 
HETATM   15  H10 UNL     1      25.003   2.382  51.144  1.00  0.00     0.319 HD
BRANCH  14  16
HETATM   16  C7  UNL     1      24.179   1.884  52.956  1.00  0.00     0.247 C 
HETATM   17  C6  UNL     1      24.252   0.405  52.548  1.00  0.00     0.043 C 
HETATM   18  C5  UNL     1      25.648  -0.009  52.358  1.00  0.00     0.032 C 
HETATM   19  C4  UNL     1      26.908  -0.298  52.428  1.00  0.00    -0.034 C 
HETATM   20  C3  UNL     1      27.680   0.375  53.254  1.00  0.00     0.026 C 
HETATM   21  C2  UNL     1      27.556   1.707  53.916  1.00  0.00     0.122 C 
HETATM   22  C1  UNL     1      28.825   2.462  53.534  1.00  0.00     0.040 C 
HETATM   23  O1  UNL     1      26.506   2.431  53.393  1.00  0.00    -0.384 OA
HETATM   24  C14 UNL     1      25.277   2.107  53.954  1.00  0.00     0.203 C 
ENDBRANCH  14  16
ENDBRANCH   1  14
TORSDOF 2
ENDMDL
