MODEL 1
REMARK VINA RESULT:      -8.3      0.000      0.000
REMARK  5 active torsions:
REMARK  status: ('A' for Active; 'I' for Inactive)
REMARK    1  A    between atoms: P1_2  and  O1_3 
REMARK    2  A    between atoms: O1_3  and  C2_4 
REMARK    3  A    between atoms: C5_7  and  N1_8 
REMARK    4  A    between atoms: N1_8  and  C6_9 
REMARK    5  A    between atoms: C15_22  and  O2_23 
ROOT
HETATM    1  C2  UNL     1      24.643  -0.428  53.657  1.00  0.00     0.107 A 
HETATM    2  C3  UNL     1      25.228   0.423  52.752  1.00  0.00     0.057 A 
HETATM    3  C4  UNL     1      26.404   1.101  52.942  1.00  0.00     0.042 A 
HETATM    4  C5  UNL     1      26.968   1.950  52.013  1.00  0.00     0.142 A 
HETATM    5  N2  UNL     1      28.113   2.481  52.448  1.00  0.00    -0.224 NA
HETATM    6  C12 UNL     1      28.708   2.274  53.615  1.00  0.00     0.236 A 
HETATM    7  N3  UNL     1      28.139   1.442  54.503  1.00  0.00    -0.241 NA
HETATM    8  C13 UNL     1      26.974   0.846  54.171  1.00  0.00     0.075 A 
HETATM    9  C14 UNL     1      26.446   0.013  55.113  1.00  0.00     0.072 A 
HETATM   10  C15 UNL     1      25.275  -0.636  54.873  1.00  0.00     0.101 A 
ENDROOT
BRANCH   4  11
HETATM   11  N1  UNL     1      26.340   2.167  50.787  1.00  0.00    -0.340 N 
HETATM   12  H6  UNL     1      25.973   1.380  50.220  1.00  0.00     0.167 HD
BRANCH  11  13
HETATM   13  C6  UNL     1      26.094   3.385  50.124  1.00  0.00     0.035 A 
HETATM   14  C7  UNL     1      24.835   3.932  50.064  1.00  0.00     0.032 A 
HETATM   15  C8  UNL     1      24.542   5.120  49.427  1.00  0.00     0.046 A 
HETATM   16  C9  UNL     1      25.530   5.842  48.795  1.00  0.00     0.138 A 
HETATM   17  F1  UNL     1      25.366   7.009  48.142  1.00  0.00    -0.204 F 
HETATM   18  C10 UNL     1      26.807   5.328  48.831  1.00  0.00     0.074 A 
HETATM   19 CL1  UNL     1      28.130   6.173  48.057  1.00  0.00    -0.081 Cl
HETATM   20  C11 UNL     1      27.035   4.139  49.483  1.00  0.00     0.056 A 
ENDBRANCH  11  13
ENDBRANCH   4  11
BRANCH   1  21
HETATM   21  O1  UNL     1      23.440  -1.094  53.409  1.00  0.00    -0.325 OA
BRANCH  21  22
HETATM   22  P1  UNL     1      22.037  -0.159  52.980  1.00  0.00     0.016 P 
HETATM   23  C1  UNL     1      20.926   0.175  54.404  1.00  0.00     0.072 C 
HETATM   24  H4  UNL     1      22.310   0.976  52.151  1.00  0.00     0.087 HD
ENDBRANCH  21  22
ENDBRANCH   1  21
BRANCH  10  25
HETATM   25  O2  UNL     1      24.728  -1.483  55.821  1.00  0.00    -0.358 OA
HETATM   26  H12 UNL     1      24.876  -1.385  56.810  1.00  0.00     0.217 HD
ENDBRANCH  10  25
TORSDOF 5
ENDMDL
MODEL 2
REMARK VINA RESULT:      -8.0      2.475      3.784
REMARK  5 active torsions:
REMARK  status: ('A' for Active; 'I' for Inactive)
REMARK    1  A    between atoms: P1_2  and  O1_3 
REMARK    2  A    between atoms: O1_3  and  C2_4 
REMARK    3  A    between atoms: C5_7  and  N1_8 
REMARK    4  A    between atoms: N1_8  and  C6_9 
REMARK    5  A    between atoms: C15_22  and  O2_23 
ROOT
HETATM    1  C2  UNL     1      25.981  -0.154  54.469  1.00  0.00     0.107 A 
HETATM    2  C3  UNL     1      25.880   0.649  53.360  1.00  0.00     0.057 A 
HETATM    3  C4  UNL     1      24.741   0.851  52.625  1.00  0.00     0.042 A 
HETATM    4  C5  UNL     1      24.669   1.664  51.514  1.00  0.00     0.142 A 
HETATM    5  N2  UNL     1      23.443   1.685  50.984  1.00  0.00    -0.224 NA
HETATM    6  C12 UNL     1      22.369   1.034  51.408  1.00  0.00     0.236 A 
HETATM    7  N3  UNL     1      22.463   0.248  52.493  1.00  0.00    -0.241 NA
HETATM    8  C13 UNL     1      23.659   0.149  53.114  1.00  0.00     0.075 A 
HETATM    9  C14 UNL     1      23.692  -0.664  54.209  1.00  0.00     0.072 A 
HETATM   10  C15 UNL     1      24.850  -0.829  54.903  1.00  0.00     0.101 A 
ENDROOT
BRANCH   4  11
HETATM   11  N1  UNL     1      25.801   2.346  51.069  1.00  0.00    -0.340 N 
HETATM   12  H6  UNL     1      26.754   1.960  51.205  1.00  0.00     0.167 HD
BRANCH  11  13
HETATM   13  C6  UNL     1      25.882   3.585  50.404  1.00  0.00     0.035 A 
HETATM   14  C7  UNL     1      26.843   3.832  49.454  1.00  0.00     0.032 A 
HETATM   15  C8  UNL     1      26.965   5.027  48.776  1.00  0.00     0.046 A 
HETATM   16  C9  UNL     1      26.101   6.069  49.025  1.00  0.00     0.138 A 
HETATM   17  F1  UNL     1      26.121   7.278  48.430  1.00  0.00    -0.204 F 
HETATM   18  C10 UNL     1      25.121   5.863  49.971  1.00  0.00     0.074 A 
HETATM   19 CL1  UNL     1      23.975   7.128  50.359  1.00  0.00    -0.081 Cl
HETATM   20  C11 UNL     1      25.052   4.649  50.613  1.00  0.00     0.056 A 
ENDBRANCH  11  13
ENDBRANCH   4  11
BRANCH   1  21
HETATM   21  O1  UNL     1      27.171  -0.322  55.182  1.00  0.00    -0.325 OA
BRANCH  21  22
HETATM   22  P1  UNL     1      28.649   0.291  54.500  1.00  0.00     0.016 P 
HETATM   23  C1  UNL     1      29.588  -0.970  53.551  1.00  0.00     0.072 C 
HETATM   24  H4  UNL     1      28.522   1.561  53.850  1.00  0.00     0.087 HD
ENDBRANCH  21  22
ENDBRANCH   1  21
BRANCH  10  25
HETATM   25  O2  UNL     1      24.897  -1.651  56.015  1.00  0.00    -0.358 OA
HETATM   26  H12 UNL     1      25.582  -2.375  56.146  1.00  0.00     0.217 HD
ENDBRANCH  10  25
TORSDOF 5
ENDMDL
MODEL 3
REMARK VINA RESULT:      -7.9      4.329      6.306
REMARK  5 active torsions:
REMARK  status: ('A' for Active; 'I' for Inactive)
REMARK    1  A    between atoms: P1_2  and  O1_3 
REMARK    2  A    between atoms: O1_3  and  C2_4 
REMARK    3  A    between atoms: C5_7  and  N1_8 
REMARK    4  A    between atoms: N1_8  and  C6_9 
REMARK    5  A    between atoms: C15_22  and  O2_23 
ROOT
HETATM    1  C2  UNL     1      20.876   0.858  51.594  1.00  0.00     0.107 A 
HETATM    2  C3  UNL     1      22.152   0.649  52.057  1.00  0.00     0.057 A 
HETATM    3  C4  UNL     1      22.485  -0.076  53.172  1.00  0.00     0.042 A 
HETATM    4  C5  UNL     1      23.777  -0.269  53.614  1.00  0.00     0.142 A 
HETATM    5  N2  UNL     1      23.823  -1.013  54.722  1.00  0.00    -0.224 NA
HETATM    6  C12 UNL     1      22.803  -1.541  55.383  1.00  0.00     0.236 A 
HETATM    7  N3  UNL     1      21.554  -1.340  54.934  1.00  0.00    -0.241 NA
HETATM    8  C13 UNL     1      21.384  -0.600  53.816  1.00  0.00     0.075 A 
HETATM    9  C14 UNL     1      20.094  -0.431  53.409  1.00  0.00     0.072 A 
HETATM   10  C15 UNL     1      19.818   0.299  52.294  1.00  0.00     0.101 A 
ENDROOT
BRANCH   4  11
HETATM   11  N1  UNL     1      24.848   0.289  52.917  1.00  0.00    -0.340 N 
HETATM   12  H6  UNL     1      24.697   0.949  52.131  1.00  0.00     0.167 HD
BRANCH  11  13
HETATM   13  C6  UNL     1      26.229   0.095  53.116  1.00  0.00     0.035 A 
HETATM   14  C7  UNL     1      26.836  -1.105  52.835  1.00  0.00     0.032 A 
HETATM   15  C8  UNL     1      28.182  -1.346  53.013  1.00  0.00     0.046 A 
HETATM   16  C9  UNL     1      29.015  -0.363  53.498  1.00  0.00     0.138 A 
HETATM   17  F1  UNL     1      30.340  -0.480  53.714  1.00  0.00    -0.204 F 
HETATM   18  C10 UNL     1      28.447   0.856  53.793  1.00  0.00     0.074 A 
HETATM   19 CL1  UNL     1      29.422   2.169  54.415  1.00  0.00    -0.081 Cl
HETATM   20  C11 UNL     1      27.097   1.035  53.594  1.00  0.00     0.056 A 
ENDBRANCH  11  13
ENDBRANCH   4  11
BRANCH   1  21
HETATM   21  O1  UNL     1      20.595   1.607  50.448  1.00  0.00    -0.325 OA
BRANCH  21  22
HETATM   22  P1  UNL     1      21.438   1.230  48.974  1.00  0.00     0.016 P 
HETATM   23  C1  UNL     1      22.610   2.544  48.452  1.00  0.00     0.072 C 
HETATM   24  H4  UNL     1      21.962  -0.101  48.912  1.00  0.00     0.087 HD
ENDBRANCH  21  22
ENDBRANCH   1  21
BRANCH  10  25
HETATM   25  O2  UNL     1      18.513   0.479  51.871  1.00  0.00    -0.358 OA
HETATM   26  H12 UNL     1      18.239   0.516  50.905  1.00  0.00     0.217 HD
ENDBRANCH  10  25
TORSDOF 5
ENDMDL
MODEL 4
REMARK VINA RESULT:      -7.8      2.780      4.377
REMARK  5 active torsions:
REMARK  status: ('A' for Active; 'I' for Inactive)
REMARK    1  A    between atoms: P1_2  and  O1_3 
REMARK    2  A    between atoms: O1_3  and  C2_4 
REMARK    3  A    between atoms: C5_7  and  N1_8 
REMARK    4  A    between atoms: N1_8  and  C6_9 
REMARK    5  A    between atoms: C15_22  and  O2_23 
ROOT
HETATM    1  C2  UNL     1      24.111  -0.669  54.209  1.00  0.00     0.107 A 
HETATM    2  C3  UNL     1      23.759   0.052  53.095  1.00  0.00     0.057 A 
HETATM    3  C4  UNL     1      22.477   0.340  52.706  1.00  0.00     0.042 A 
HETATM    4  C5  UNL     1      22.154   1.068  51.580  1.00  0.00     0.142 A 
HETATM    5  N2  UNL     1      20.834   1.204  51.432  1.00  0.00    -0.224 NA
HETATM    6  C12 UNL     1      19.879   0.730  52.220  1.00  0.00     0.236 A 
HETATM    7  N3  UNL     1      20.219   0.024  53.311  1.00  0.00    -0.241 NA
HETATM    8  C13 UNL     1      21.530  -0.178  53.563  1.00  0.00     0.075 A 
HETATM    9  C14 UNL     1      21.812  -0.902  54.685  1.00  0.00     0.072 A 
HETATM   10  C15 UNL     1      23.104  -1.159  55.026  1.00  0.00     0.101 A 
ENDROOT
BRANCH   4  11
HETATM   11  N1  UNL     1      23.160   1.564  50.752  1.00  0.00    -0.340 N 
HETATM   12  H6  UNL     1      23.609   0.969  50.031  1.00  0.00     0.167 HD
BRANCH  11  13
HETATM   13  C6  UNL     1      23.723   2.854  50.722  1.00  0.00     0.035 A 
HETATM   14  C7  UNL     1      23.193   3.890  51.452  1.00  0.00     0.032 A 
HETATM   15  C8  UNL     1      23.706   5.170  51.456  1.00  0.00     0.046 A 
HETATM   16  C9  UNL     1      24.814   5.487  50.701  1.00  0.00     0.138 A 
HETATM   17  F1  UNL     1      25.403   6.696  50.624  1.00  0.00    -0.204 F 
HETATM   18  C10 UNL     1      25.377   4.477  49.954  1.00  0.00     0.074 A 
HETATM   19 CL1  UNL     1      26.787   4.780  48.963  1.00  0.00    -0.081 Cl
HETATM   20  C11 UNL     1      24.818   3.220  49.992  1.00  0.00     0.056 A 
ENDBRANCH  11  13
ENDBRANCH   4  11
BRANCH   1  21
HETATM   21  O1  UNL     1      25.439  -0.932  54.559  1.00  0.00    -0.325 OA
BRANCH  21  22
HETATM   22  P1  UNL     1      26.703  -0.015  53.795  1.00  0.00     0.016 P 
HETATM   23  C1  UNL     1      28.238   0.081  54.798  1.00  0.00     0.072 C 
HETATM   24  H4  UNL     1      26.907  -0.322  52.411  1.00  0.00     0.087 HD
ENDBRANCH  21  22
ENDBRANCH   1  21
BRANCH  10  25
HETATM   25  O2  UNL     1      23.403  -1.893  56.160  1.00  0.00    -0.358 OA
HETATM   26  H12 UNL     1      24.284  -2.351  56.312  1.00  0.00     0.217 HD
ENDBRANCH  10  25
TORSDOF 5
ENDMDL
MODEL 5
REMARK VINA RESULT:      -7.6      3.809      5.895
REMARK  5 active torsions:
REMARK  status: ('A' for Active; 'I' for Inactive)
REMARK    1  A    between atoms: P1_2  and  O1_3 
REMARK    2  A    between atoms: O1_3  and  C2_4 
REMARK    3  A    between atoms: C5_7  and  N1_8 
REMARK    4  A    between atoms: N1_8  and  C6_9 
REMARK    5  A    between atoms: C15_22  and  O2_23 
ROOT
HETATM    1  C2  UNL     1      22.277   1.061  51.042  1.00  0.00     0.107 A 
HETATM    2  C3  UNL     1      23.457   1.577  51.521  1.00  0.00     0.057 A 
HETATM    3  C4  UNL     1      24.225   2.523  50.893  1.00  0.00     0.042 A 
HETATM    4  C5  UNL     1      25.406   3.023  51.399  1.00  0.00     0.142 A 
HETATM    5  N2  UNL     1      25.953   3.933  50.589  1.00  0.00    -0.224 NA
HETATM    6  C12 UNL     1      25.489   4.362  49.424  1.00  0.00     0.236 A 
HETATM    7  N3  UNL     1      24.336   3.860  48.952  1.00  0.00    -0.241 NA
HETATM    8  C13 UNL     1      23.690   2.929  49.689  1.00  0.00     0.075 A 
HETATM    9  C14 UNL     1      22.526   2.458  49.157  1.00  0.00     0.072 A 
HETATM   10  C15 UNL     1      21.801   1.518  49.823  1.00  0.00     0.101 A 
ENDROOT
BRANCH   4  11
HETATM   11  N1  UNL     1      25.893   2.569  52.624  1.00  0.00    -0.340 N 
HETATM   12  H6  UNL     1      25.550   2.959  53.521  1.00  0.00     0.167 HD
BRANCH  11  13
HETATM   13  C6  UNL     1      26.862   1.579  52.877  1.00  0.00     0.035 A 
HETATM   14  C7  UNL     1      28.104   1.895  53.373  1.00  0.00     0.032 A 
HETATM   15  C8  UNL     1      29.087   0.965  53.635  1.00  0.00     0.046 A 
HETATM   16  C9  UNL     1      28.868  -0.375  53.405  1.00  0.00     0.138 A 
HETATM   17  F1  UNL     1      29.748  -1.373  53.622  1.00  0.00    -0.204 F 
HETATM   18  C10 UNL     1      27.636  -0.735  52.908  1.00  0.00     0.074 A 
HETATM   19 CL1  UNL     1      27.261  -2.414  52.583  1.00  0.00    -0.081 Cl
HETATM   20  C11 UNL     1      26.696   0.240  52.666  1.00  0.00     0.056 A 
ENDBRANCH  11  13
ENDBRANCH   4  11
BRANCH   1  21
HETATM   21  O1  UNL     1      21.534   0.096  51.728  1.00  0.00    -0.325 OA
BRANCH  21  22
HETATM   22  P1  UNL     1      22.197  -0.597  53.179  1.00  0.00     0.016 P 
HETATM   23  C1  UNL     1      21.256  -0.152  54.692  1.00  0.00     0.072 C 
HETATM   24  H4  UNL     1      22.543  -1.982  53.072  1.00  0.00     0.087 HD
ENDBRANCH  21  22
ENDBRANCH   1  21
BRANCH  10  25
HETATM   25  O2  UNL     1      20.619   1.031  49.295  1.00  0.00    -0.358 OA
HETATM   26  H12 UNL     1      19.801   1.594  49.145  1.00  0.00     0.217 HD
ENDBRANCH  10  25
TORSDOF 5
ENDMDL
MODEL 6
REMARK VINA RESULT:      -7.6      3.909      5.425
REMARK  5 active torsions:
REMARK  status: ('A' for Active; 'I' for Inactive)
REMARK    1  A    between atoms: P1_2  and  O1_3 
REMARK    2  A    between atoms: O1_3  and  C2_4 
REMARK    3  A    between atoms: C5_7  and  N1_8 
REMARK    4  A    between atoms: N1_8  and  C6_9 
REMARK    5  A    between atoms: C15_22  and  O2_23 
ROOT
HETATM    1  C2  UNL     1      26.917   2.016  52.103  1.00  0.00     0.107 A 
HETATM    2  C3  UNL     1      25.702   1.383  52.201  1.00  0.00     0.057 A 
HETATM    3  C4  UNL     1      25.316   0.554  53.223  1.00  0.00     0.042 A 
HETATM    4  C5  UNL     1      24.088  -0.069  53.295  1.00  0.00     0.142 A 
HETATM    5  N2  UNL     1      23.969  -0.820  54.392  1.00  0.00    -0.224 NA
HETATM    6  C12 UNL     1      24.869  -1.003  55.347  1.00  0.00     0.236 A 
HETATM    7  N3  UNL     1      26.059  -0.386  55.256  1.00  0.00    -0.241 NA
HETATM    8  C13 UNL     1      26.293   0.403  54.185  1.00  0.00     0.075 A 
HETATM    9  C14 UNL     1      27.517   1.002  54.148  1.00  0.00     0.072 A 
HETATM   10  C15 UNL     1      27.850   1.817  53.109  1.00  0.00     0.101 A 
ENDROOT
BRANCH   4  11
HETATM   11  N1  UNL     1      23.143   0.124  52.288  1.00  0.00    -0.340 N 
HETATM   12  H6  UNL     1      23.117  -0.482  51.447  1.00  0.00     0.167 HD
BRANCH  11  13
HETATM   13  C6  UNL     1      22.122   1.091  52.207  1.00  0.00     0.035 A 
HETATM   14  C7  UNL     1      20.794   0.739  52.204  1.00  0.00     0.032 A 
HETATM   15  C8  UNL     1      19.758   1.645  52.125  1.00  0.00     0.046 A 
HETATM   16  C9  UNL     1      20.010   2.997  52.043  1.00  0.00     0.138 A 
HETATM   17  F1  UNL     1      19.085   3.974  51.962  1.00  0.00    -0.204 F 
HETATM   18  C10 UNL     1      21.328   3.393  52.044  1.00  0.00     0.074 A 
HETATM   19 CL1  UNL     1      21.751   5.088  51.943  1.00  0.00    -0.081 Cl
HETATM   20  C11 UNL     1      22.317   2.440  52.124  1.00  0.00     0.056 A 
ENDBRANCH  11  13
ENDBRANCH   4  11
BRANCH   1  21
HETATM   21  O1  UNL     1      27.256   2.853  51.036  1.00  0.00    -0.325 OA
BRANCH  21  22
HETATM   22  P1  UNL     1      25.985   3.474  50.024  1.00  0.00     0.016 P 
HETATM   23  C1  UNL     1      26.473   4.980  49.091  1.00  0.00     0.072 C 
HETATM   24  H4  UNL     1      25.303   2.482  49.249  1.00  0.00     0.087 HD
ENDBRANCH  21  22
ENDBRANCH   1  21
BRANCH  10  25
HETATM   25  O2  UNL     1      29.089   2.430  53.059  1.00  0.00    -0.358 OA
HETATM   26  H12 UNL     1      29.667   2.588  53.866  1.00  0.00     0.217 HD
ENDBRANCH  10  25
TORSDOF 5
ENDMDL
MODEL 7
REMARK VINA RESULT:      -7.3      3.753      5.770
REMARK  5 active torsions:
REMARK  status: ('A' for Active; 'I' for Inactive)
REMARK    1  A    between atoms: P1_2  and  O1_3 
REMARK    2  A    between atoms: O1_3  and  C2_4 
REMARK    3  A    between atoms: C5_7  and  N1_8 
REMARK    4  A    between atoms: N1_8  and  C6_9 
REMARK    5  A    between atoms: C15_22  and  O2_23 
ROOT
HETATM    1  C2  UNL     1      21.084   0.533  52.564  1.00  0.00     0.107 A 
HETATM    2  C3  UNL     1      22.301   1.162  52.472  1.00  0.00     0.057 A 
HETATM    3  C4  UNL     1      22.799   1.773  51.350  1.00  0.00     0.042 A 
HETATM    4  C5  UNL     1      24.027   2.398  51.288  1.00  0.00     0.142 A 
HETATM    5  N2  UNL     1      24.267   2.912  50.079  1.00  0.00    -0.224 NA
HETATM    6  C12 UNL     1      23.480   2.873  49.013  1.00  0.00     0.236 A 
HETATM    7  N3  UNL     1      22.289   2.259  49.098  1.00  0.00    -0.241 NA
HETATM    8  C13 UNL     1      21.937   1.700  50.277  1.00  0.00     0.075 A 
HETATM    9  C14 UNL     1      20.716   1.092  50.301  1.00  0.00     0.072 A 
HETATM   10  C15 UNL     1      20.270   0.499  51.442  1.00  0.00     0.101 A 
ENDROOT
BRANCH   4  11
HETATM   11  N1  UNL     1      24.853   2.436  52.410  1.00  0.00    -0.340 N 
HETATM   12  H6  UNL     1      24.690   3.113  53.179  1.00  0.00     0.167 HD
BRANCH  11  13
HETATM   13  C6  UNL     1      25.976   1.641  52.708  1.00  0.00     0.035 A 
HETATM   14  C7  UNL     1      26.055   0.328  52.312  1.00  0.00     0.032 A 
HETATM   15  C8  UNL     1      27.130  -0.494  52.579  1.00  0.00     0.046 A 
HETATM   16  C9  UNL     1      28.216  -0.023  53.282  1.00  0.00     0.138 A 
HETATM   17  F1  UNL     1      29.320  -0.727  53.603  1.00  0.00    -0.204 F 
HETATM   18  C10 UNL     1      28.178   1.288  53.698  1.00  0.00     0.074 A 
HETATM   19 CL1  UNL     1      29.511   1.979  54.598  1.00  0.00    -0.081 Cl
HETATM   20  C11 UNL     1      27.077   2.057  53.400  1.00  0.00     0.056 A 
ENDBRANCH  11  13
ENDBRANCH   4  11
BRANCH   1  21
HETATM   21  O1  UNL     1      20.627  -0.075  53.737  1.00  0.00    -0.325 OA
BRANCH  21  22
HETATM   22  P1  UNL     1      21.374  -1.557  54.258  1.00  0.00     0.016 P 
HETATM   23  C1  UNL     1      22.907  -1.292  55.234  1.00  0.00     0.072 C 
HETATM   24  H4  UNL     1      20.468  -2.517  54.812  1.00  0.00     0.087 HD
ENDBRANCH  21  22
ENDBRANCH   1  21
BRANCH  10  25
HETATM   25  O2  UNL     1      19.035  -0.122  51.480  1.00  0.00    -0.358 OA
HETATM   26  H12 UNL     1      18.162   0.361  51.359  1.00  0.00     0.217 HD
ENDBRANCH  10  25
TORSDOF 5
ENDMDL
MODEL 8
REMARK VINA RESULT:      -7.2      2.464      3.592
REMARK  5 active torsions:
REMARK  status: ('A' for Active; 'I' for Inactive)
REMARK    1  A    between atoms: P1_2  and  O1_3 
REMARK    2  A    between atoms: O1_3  and  C2_4 
REMARK    3  A    between atoms: C5_7  and  N1_8 
REMARK    4  A    between atoms: N1_8  and  C6_9 
REMARK    5  A    between atoms: C15_22  and  O2_23 
ROOT
HETATM    1  C2  UNL     1      26.402   0.144  52.825  1.00  0.00     0.107 A 
HETATM    2  C3  UNL     1      26.097   1.063  51.852  1.00  0.00     0.057 A 
HETATM    3  C4  UNL     1      24.881   1.675  51.689  1.00  0.00     0.042 A 
HETATM    4  C5  UNL     1      24.603   2.596  50.700  1.00  0.00     0.142 A 
HETATM    5  N2  UNL     1      23.345   3.038  50.766  1.00  0.00    -0.224 NA
HETATM    6  C12 UNL     1      22.410   2.690  51.639  1.00  0.00     0.236 A 
HETATM    7  N3  UNL     1      22.705   1.792  52.593  1.00  0.00    -0.241 NA
HETATM    8  C13 UNL     1      23.952   1.274  52.625  1.00  0.00     0.075 A 
HETATM    9  C14 UNL     1      24.190   0.367  53.616  1.00  0.00     0.072 A 
HETATM   10  C15 UNL     1      25.416  -0.212  53.732  1.00  0.00     0.101 A 
ENDROOT
BRANCH   4  11
HETATM   11  N1  UNL     1      25.587   2.960  49.782  1.00  0.00    -0.340 N 
HETATM   12  H6  UNL     1      26.118   2.247  49.248  1.00  0.00     0.167 HD
BRANCH  11  13
HETATM   13  C6  UNL     1      26.026   4.248  49.421  1.00  0.00     0.035 A 
HETATM   14  C7  UNL     1      25.223   5.352  49.573  1.00  0.00     0.032 A 
HETATM   15  C8  UNL     1      25.605   6.634  49.234  1.00  0.00     0.046 A 
HETATM   16  C9  UNL     1      26.853   6.880  48.707  1.00  0.00     0.138 A 
HETATM   17  F1  UNL     1      27.336   8.083  48.339  1.00  0.00    -0.204 F 
HETATM   18  C10 UNL     1      27.690   5.800  48.538  1.00  0.00     0.074 A 
HETATM   19 CL1  UNL     1      29.296   6.011  47.875  1.00  0.00    -0.081 Cl
HETATM   20  C11 UNL     1      27.251   4.546  48.895  1.00  0.00     0.056 A 
ENDBRANCH  11  13
ENDBRANCH   4  11
BRANCH   1  21
HETATM   21  O1  UNL     1      27.662  -0.450  52.944  1.00  0.00    -0.325 OA
BRANCH  21  22
HETATM   22  P1  UNL     1      28.911   0.404  53.802  1.00  0.00     0.016 P 
HETATM   23  C1  UNL     1      28.754   2.230  53.685  1.00  0.00     0.072 C 
HETATM   24  H4  UNL     1      29.175  -0.093  55.119  1.00  0.00     0.087 HD
ENDBRANCH  21  22
ENDBRANCH   1  21
BRANCH  10  25
HETATM   25  O2  UNL     1      25.671  -1.134  54.732  1.00  0.00    -0.358 OA
HETATM   26  H12 UNL     1      26.073  -2.039  54.568  1.00  0.00     0.217 HD
ENDBRANCH  10  25
TORSDOF 5
ENDMDL
MODEL 9
REMARK VINA RESULT:      -7.2      5.032      6.979
REMARK  5 active torsions:
REMARK  status: ('A' for Active; 'I' for Inactive)
REMARK    1  A    between atoms: P1_2  and  O1_3 
REMARK    2  A    between atoms: O1_3  and  C2_4 
REMARK    3  A    between atoms: C5_7  and  N1_8 
REMARK    4  A    between atoms: N1_8  and  C6_9 
REMARK    5  A    between atoms: C15_22  and  O2_23 
ROOT
HETATM    1  C2  UNL     1      24.941   3.379  51.081  1.00  0.00     0.107 A 
HETATM    2  C3  UNL     1      24.072   2.609  51.814  1.00  0.00     0.057 A 
HETATM    3  C4  UNL     1      24.371   1.404  52.395  1.00  0.00     0.042 A 
HETATM    4  C5  UNL     1      23.476   0.652  53.126  1.00  0.00     0.142 A 
HETATM    5  N2  UNL     1      24.024  -0.478  53.581  1.00  0.00    -0.224 NA
HETATM    6  C12 UNL     1      25.266  -0.904  53.399  1.00  0.00     0.236 A 
HETATM    7  N3  UNL     1      26.120  -0.154  52.683  1.00  0.00    -0.241 NA
HETATM    8  C13 UNL     1      25.675   1.015  52.172  1.00  0.00     0.075 A 
HETATM    9  C14 UNL     1      26.588   1.732  51.455  1.00  0.00     0.072 A 
HETATM   10  C15 UNL     1      26.237   2.923  50.899  1.00  0.00     0.101 A 
ENDROOT
BRANCH   4  11
HETATM   11  N1  UNL     1      22.170   1.102  53.314  1.00  0.00    -0.340 N 
HETATM   12  H6  UNL     1      21.947   1.842  54.006  1.00  0.00     0.167 HD
BRANCH  11  13
HETATM   13  C6  UNL     1      20.991   0.686  52.667  1.00  0.00     0.035 A 
HETATM   14  C7  UNL     1      20.731   1.017  51.359  1.00  0.00     0.032 A 
HETATM   15  C8  UNL     1      19.592   0.637  50.681  1.00  0.00     0.046 A 
HETATM   16  C9  UNL     1      18.623  -0.120  51.301  1.00  0.00     0.138 A 
HETATM   17  F1  UNL     1      17.474  -0.550  50.745  1.00  0.00    -0.204 F 
HETATM   18  C10 UNL     1      18.845  -0.475  52.613  1.00  0.00     0.074 A 
HETATM   19 CL1  UNL     1      17.673  -1.436  53.488  1.00  0.00    -0.081 Cl
HETATM   20  C11 UNL     1      20.001  -0.064  53.235  1.00  0.00     0.056 A 
ENDBRANCH  11  13
ENDBRANCH   4  11
BRANCH   1  21
HETATM   21  O1  UNL     1      24.579   4.603  50.511  1.00  0.00    -0.325 OA
BRANCH  21  22
HETATM   22  P1  UNL     1      23.622   5.712  51.448  1.00  0.00     0.016 P 
HETATM   23  C1  UNL     1      23.775   7.455  50.888  1.00  0.00     0.072 C 
HETATM   24  H4  UNL     1      22.280   5.277  51.697  1.00  0.00     0.087 HD
ENDBRANCH  21  22
ENDBRANCH   1  21
BRANCH  10  25
HETATM   25  O2  UNL     1      27.153   3.660  50.169  1.00  0.00    -0.358 OA
HETATM   26  H12 UNL     1      27.530   4.540  50.472  1.00  0.00     0.217 HD
ENDBRANCH  10  25
TORSDOF 5
ENDMDL
