MODEL 1
REMARK VINA RESULT:      -7.5      0.000      0.000
REMARK  3 active torsions:
REMARK  status: ('A' for Active; 'I' for Inactive)
REMARK    1  A    between atoms: N2_9  and  C8_10 
REMARK    2  A    between atoms: C9_12  and  O1_13 
REMARK    3  A    between atoms: C11_16  and  C12_17 
ROOT
HETATM    1  C1  UNL     1      27.375  -0.684  52.687  1.00  0.00     0.050 C 
HETATM    2  C2  UNL     1      25.981  -0.235  53.046  1.00  0.00    -0.038 C 
HETATM    3  C3  UNL     1      25.072  -0.896  53.794  1.00  0.00    -0.013 C 
HETATM    4  C4  UNL     1      23.834  -0.022  53.857  1.00  0.00     0.017 C 
HETATM    5  C5  UNL     1      22.653  -0.967  53.844  1.00  0.00     0.015 C 
HETATM    6  C6  UNL     1      23.954   0.795  52.590  1.00  0.00     0.077 C 
HETATM    7  C7  UNL     1      25.426   1.067  52.599  1.00  0.00     0.068 C 
HETATM    8  N1  UNL     1      25.576   2.287  52.217  1.00  0.00    -0.173 NA
HETATM    9  N2  UNL     1      24.402   2.943  51.945  1.00  0.00    -0.236 N 
HETATM   10  C11 UNL     1      23.408   2.186  52.676  1.00  0.00     0.156 C 
ENDROOT
BRANCH   9  11
HETATM   11  C8  UNL     1      24.123   4.086  51.155  1.00  0.00     0.192 A 
HETATM   12  N3  UNL     1      23.725   5.437  51.751  1.00  0.00    -0.198 NA
HETATM   13  C9  UNL     1      23.558   6.208  50.670  1.00  0.00     0.171 A 
HETATM   14  C10 UNL     1      23.691   5.957  49.164  1.00  0.00     0.111 A 
HETATM   15  S1  UNL     1      24.183   4.135  49.400  1.00  0.00    -0.058 SA
BRANCH  13  16
HETATM   16  O1  UNL     1      23.200   7.399  51.368  1.00  0.00    -0.344 OA
HETATM   17  H10 UNL     1      23.010   7.340  52.367  1.00  0.00     0.219 HD
ENDBRANCH  13  16
ENDBRANCH   9  11
BRANCH  10  18
HETATM   18  C12 UNL     1      22.099   2.152  51.936  1.00  0.00    -0.033 A 
HETATM   19  C13 UNL     1      21.989   1.276  50.866  1.00  0.00     0.010 A 
HETATM   20  C14 UNL     1      20.878   1.095  50.065  1.00  0.00     0.007 A 
HETATM   21  C15 UNL     1      19.790   1.881  50.393  1.00  0.00    -0.062 A 
HETATM   22  C16 UNL     1      18.544   1.763  49.591  1.00  0.00     0.048 C 
HETATM   23  C17 UNL     1      19.854   2.773  51.457  1.00  0.00     0.007 A 
HETATM   24  C18 UNL     1      20.991   2.910  52.223  1.00  0.00     0.010 A 
ENDBRANCH  10  18
TORSDOF 3
ENDMDL
MODEL 2
REMARK VINA RESULT:      -7.4      2.486      4.308
REMARK  3 active torsions:
REMARK  status: ('A' for Active; 'I' for Inactive)
REMARK    1  A    between atoms: N2_9  and  C8_10 
REMARK    2  A    between atoms: C9_12  and  O1_13 
REMARK    3  A    between atoms: C11_16  and  C12_17 
ROOT
HETATM    1  C1  UNL     1      23.406  -1.541  55.624  1.00  0.00     0.050 C 
HETATM    2  C2  UNL     1      23.914  -0.768  54.433  1.00  0.00    -0.038 C 
HETATM    3  C3  UNL     1      25.201  -0.542  54.089  1.00  0.00    -0.013 C 
HETATM    4  C4  UNL     1      25.178   0.283  52.816  1.00  0.00     0.017 C 
HETATM    5  C5  UNL     1      26.349   1.234  52.912  1.00  0.00     0.015 C 
HETATM    6  C6  UNL     1      23.839   0.979  52.910  1.00  0.00     0.077 C 
HETATM    7  C7  UNL     1      23.003  -0.143  53.443  1.00  0.00     0.068 C 
HETATM    8  N1  UNL     1      21.872  -0.082  52.830  1.00  0.00    -0.173 NA
HETATM    9  N2  UNL     1      21.783   0.931  51.909  1.00  0.00    -0.236 N 
HETATM   10  C11 UNL     1      23.163   1.238  51.600  1.00  0.00     0.156 C 
ENDROOT
BRANCH   9  11
HETATM   11  C8  UNL     1      20.665   1.588  51.337  1.00  0.00     0.192 A 
HETATM   12  N3  UNL     1      19.755   2.531  52.125  1.00  0.00    -0.198 NA
HETATM   13  C9  UNL     1      18.851   2.912  51.215  1.00  0.00     0.171 A 
HETATM   14  C10 UNL     1      18.642   2.582  49.733  1.00  0.00     0.111 A 
HETATM   15  S1  UNL     1      20.150   1.425  49.665  1.00  0.00    -0.058 SA
BRANCH  13  16
HETATM   16  O1  UNL     1      18.096   3.763  52.076  1.00  0.00    -0.344 OA
HETATM   17  H10 UNL     1      17.263   4.216  51.705  1.00  0.00     0.219 HD
ENDBRANCH  13  16
ENDBRANCH   9  11
BRANCH  10  18
HETATM   18  C12 UNL     1      23.347   2.707  51.335  1.00  0.00    -0.033 A 
HETATM   19  C13 UNL     1      23.284   3.568  52.421  1.00  0.00     0.010 A 
HETATM   20  C14 UNL     1      23.427   4.942  52.388  1.00  0.00     0.007 A 
HETATM   21  C15 UNL     1      23.655   5.473  51.133  1.00  0.00    -0.062 A 
HETATM   22  C16 UNL     1      23.822   6.943  50.990  1.00  0.00     0.048 C 
HETATM   23  C17 UNL     1      23.726   4.649  50.016  1.00  0.00     0.007 A 
HETATM   24  C18 UNL     1      23.575   3.283  50.110  1.00  0.00     0.010 A 
ENDBRANCH  10  18
TORSDOF 3
ENDMDL
MODEL 3
REMARK VINA RESULT:      -7.4      2.636      4.487
REMARK  3 active torsions:
REMARK  status: ('A' for Active; 'I' for Inactive)
REMARK    1  A    between atoms: N2_9  and  C8_10 
REMARK    2  A    between atoms: C9_12  and  O1_13 
REMARK    3  A    between atoms: C11_16  and  C12_17 
ROOT
HETATM    1  C1  UNL     1      22.649  -1.477  55.224  1.00  0.00     0.050 C 
HETATM    2  C2  UNL     1      23.352  -0.694  54.144  1.00  0.00    -0.038 C 
HETATM    3  C3  UNL     1      24.682  -0.514  53.993  1.00  0.00    -0.013 C 
HETATM    4  C4  UNL     1      24.873   0.347  52.759  1.00  0.00     0.017 C 
HETATM    5  C5  UNL     1      26.056   1.243  53.052  1.00  0.00     0.015 C 
HETATM    6  C6  UNL     1      23.563   1.098  52.687  1.00  0.00     0.077 C 
HETATM    7  C7  UNL     1      22.617  -0.001  53.058  1.00  0.00     0.068 C 
HETATM    8  N1  UNL     1      21.588   0.127  52.293  1.00  0.00    -0.173 NA
HETATM    9  N2  UNL     1      21.671   1.169  51.405  1.00  0.00    -0.236 N 
HETATM   10  C11 UNL     1      23.092   1.424  51.304  1.00  0.00     0.156 C 
ENDROOT
BRANCH   9  11
HETATM   11  C8  UNL     1      20.672   1.890  50.704  1.00  0.00     0.192 A 
HETATM   12  N3  UNL     1      20.472   1.787  49.191  1.00  0.00    -0.198 NA
HETATM   13  C9  UNL     1      19.448   2.618  48.963  1.00  0.00     0.171 A 
HETATM   14  C10 UNL     1      18.593   3.512  49.867  1.00  0.00     0.111 A 
HETATM   15  S1  UNL     1      19.528   3.000  51.442  1.00  0.00    -0.058 SA
BRANCH  13  16
HETATM   16  O1  UNL     1      19.383   2.418  47.552  1.00  0.00    -0.344 OA
HETATM   17  H10 UNL     1      18.663   2.908  47.023  1.00  0.00     0.219 HD
ENDBRANCH  13  16
ENDBRANCH   9  11
BRANCH  10  18
HETATM   18  C12 UNL     1      23.369   2.890  51.119  1.00  0.00    -0.033 A 
HETATM   19  C13 UNL     1      23.251   3.711  52.231  1.00  0.00     0.010 A 
HETATM   20  C14 UNL     1      23.463   5.076  52.269  1.00  0.00     0.007 A 
HETATM   21  C15 UNL     1      23.826   5.643  51.062  1.00  0.00    -0.062 A 
HETATM   22  C16 UNL     1      24.077   7.106  50.997  1.00  0.00     0.048 C 
HETATM   23  C17 UNL     1      23.957   4.859  49.921  1.00  0.00     0.007 A 
HETATM   24  C18 UNL     1      23.733   3.500  49.944  1.00  0.00     0.010 A 
ENDBRANCH  10  18
TORSDOF 3
ENDMDL
MODEL 4
REMARK VINA RESULT:      -7.2      1.789      4.746
REMARK  3 active torsions:
REMARK  status: ('A' for Active; 'I' for Inactive)
REMARK    1  A    between atoms: N2_9  and  C8_10 
REMARK    2  A    between atoms: C9_12  and  O1_13 
REMARK    3  A    between atoms: C11_16  and  C12_17 
ROOT
HETATM    1  C1  UNL     1      18.399   2.069  51.940  1.00  0.00     0.050 C 
HETATM    2  C2  UNL     1      19.789   1.517  51.751  1.00  0.00    -0.038 C 
HETATM    3  C3  UNL     1      20.204   0.247  51.957  1.00  0.00    -0.013 C 
HETATM    4  C4  UNL     1      21.684   0.209  51.627  1.00  0.00     0.017 C 
HETATM    5  C5  UNL     1      22.307  -0.760  52.607  1.00  0.00     0.015 C 
HETATM    6  C6  UNL     1      22.103   1.642  51.861  1.00  0.00     0.077 C 
HETATM    7  C7  UNL     1      20.920   2.353  51.280  1.00  0.00     0.068 C 
HETATM    8  N1  UNL     1      21.383   3.369  50.637  1.00  0.00    -0.173 NA
HETATM    9  N2  UNL     1      22.750   3.480  50.665  1.00  0.00    -0.236 N 
HETATM   10  C11 UNL     1      23.199   2.139  50.972  1.00  0.00     0.156 C 
ENDROOT
BRANCH   9  11
HETATM   11  C8  UNL     1      23.609   4.589  50.459  1.00  0.00     0.192 A 
HETATM   12  N3  UNL     1      23.556   5.858  51.311  1.00  0.00    -0.198 NA
HETATM   13  C9  UNL     1      24.516   6.622  50.778  1.00  0.00     0.171 A 
HETATM   14  C10 UNL     1      25.498   6.426  49.618  1.00  0.00     0.111 A 
HETATM   15  S1  UNL     1      24.845   4.686  49.215  1.00  0.00    -0.058 SA
BRANCH  13  16
HETATM   16  O1  UNL     1      24.349   7.736  51.653  1.00  0.00    -0.344 OA
HETATM   17  H10 UNL     1      23.883   7.588  52.547  1.00  0.00     0.219 HD
ENDBRANCH  13  16
ENDBRANCH   9  11
BRANCH  10  18
HETATM   18  C12 UNL     1      24.434   2.162  51.829  1.00  0.00    -0.033 A 
HETATM   19  C13 UNL     1      25.624   1.743  51.251  1.00  0.00     0.010 A 
HETATM   20  C14 UNL     1      26.860   1.691  51.866  1.00  0.00     0.007 A 
HETATM   21  C15 UNL     1      26.872   2.104  53.185  1.00  0.00    -0.062 A 
HETATM   22  C16 UNL     1      28.154   2.085  53.937  1.00  0.00     0.048 C 
HETATM   23  C17 UNL     1      25.704   2.532  53.805  1.00  0.00     0.007 A 
HETATM   24  C18 UNL     1      24.497   2.563  53.140  1.00  0.00     0.010 A 
ENDBRANCH  10  18
TORSDOF 3
ENDMDL
MODEL 5
REMARK VINA RESULT:      -7.1      2.415      5.776
REMARK  3 active torsions:
REMARK  status: ('A' for Active; 'I' for Inactive)
REMARK    1  A    between atoms: N2_9  and  C8_10 
REMARK    2  A    between atoms: C9_12  and  O1_13 
REMARK    3  A    between atoms: C11_16  and  C12_17 
ROOT
HETATM    1  C1  UNL     1      15.857   3.881  51.326  1.00  0.00     0.050 C 
HETATM    2  C2  UNL     1      16.767   2.682  51.240  1.00  0.00    -0.038 C 
HETATM    3  C3  UNL     1      16.410   1.379  51.222  1.00  0.00    -0.013 C 
HETATM    4  C4  UNL     1      17.691   0.573  51.128  1.00  0.00     0.017 C 
HETATM    5  C5  UNL     1      17.463  -0.673  51.954  1.00  0.00     0.015 C 
HETATM    6  C6  UNL     1      18.707   1.512  51.739  1.00  0.00     0.077 C 
HETATM    7  C7  UNL     1      18.243   2.808  51.151  1.00  0.00     0.068 C 
HETATM    8  N1  UNL     1      19.303   3.467  50.831  1.00  0.00    -0.173 NA
HETATM    9  N2  UNL     1      20.477   2.810  51.098  1.00  0.00    -0.236 N 
HETATM   10  C11 UNL     1      20.086   1.418  51.166  1.00  0.00     0.156 C 
ENDROOT
BRANCH   9  11
HETATM   11  C8  UNL     1      21.800   3.284  51.282  1.00  0.00     0.192 A 
HETATM   12  N3  UNL     1      22.216   4.169  52.458  1.00  0.00    -0.198 NA
HETATM   13  C9  UNL     1      23.520   4.375  52.237  1.00  0.00     0.171 A 
HETATM   14  C10 UNL     1      24.490   3.917  51.142  1.00  0.00     0.111 A 
HETATM   15  S1  UNL     1      23.149   2.942  50.210  1.00  0.00    -0.058 SA
BRANCH  13  16
HETATM   16  O1  UNL     1      23.756   5.192  53.382  1.00  0.00    -0.344 OA
HETATM   17  H10 UNL     1      23.512   4.826  54.300  1.00  0.00     0.219 HD
ENDBRANCH  13  16
ENDBRANCH   9  11
BRANCH  10  18
HETATM   18  C12 UNL     1      20.898   0.674  52.190  1.00  0.00    -0.033 A 
HETATM   19  C13 UNL     1      20.507   0.777  53.517  1.00  0.00     0.010 A 
HETATM   20  C14 UNL     1      21.117   0.174  54.601  1.00  0.00     0.007 A 
HETATM   21  C15 UNL     1      22.220  -0.599  54.292  1.00  0.00    -0.062 A 
HETATM   22  C16 UNL     1      22.947  -1.291  55.388  1.00  0.00     0.048 C 
HETATM   23  C17 UNL     1      22.648  -0.732  52.976  1.00  0.00     0.007 A 
HETATM   24  C18 UNL     1      21.999  -0.105  51.935  1.00  0.00     0.010 A 
ENDBRANCH  10  18
TORSDOF 3
ENDMDL
MODEL 6
REMARK VINA RESULT:      -6.9      2.818      4.777
REMARK  3 active torsions:
REMARK  status: ('A' for Active; 'I' for Inactive)
REMARK    1  A    between atoms: N2_9  and  C8_10 
REMARK    2  A    between atoms: C9_12  and  O1_13 
REMARK    3  A    between atoms: C11_16  and  C12_17 
ROOT
HETATM    1  C1  UNL     1      21.822  -0.512  53.535  1.00  0.00     0.050 C 
HETATM    2  C2  UNL     1      22.902   0.295  52.860  1.00  0.00    -0.038 C 
HETATM    3  C3  UNL     1      24.169   0.492  53.287  1.00  0.00    -0.013 C 
HETATM    4  C4  UNL     1      24.848   1.374  52.256  1.00  0.00     0.017 C 
HETATM    5  C5  UNL     1      25.780   2.280  53.029  1.00  0.00     0.015 C 
HETATM    6  C6  UNL     1      23.678   2.111  51.643  1.00  0.00     0.077 C 
HETATM    7  C7  UNL     1      22.683   0.995  51.570  1.00  0.00     0.068 C 
HETATM    8  N1  UNL     1      22.071   1.122  50.444  1.00  0.00    -0.173 NA
HETATM    9  N2  UNL     1      22.504   2.178  49.682  1.00  0.00    -0.236 N 
HETATM   10  C11 UNL     1      23.830   2.451  50.194  1.00  0.00     0.156 C 
ENDROOT
BRANCH   9  11
HETATM   11  C8  UNL     1      21.882   2.897  48.631  1.00  0.00     0.192 A 
HETATM   12  N3  UNL     1      22.378   2.860  47.185  1.00  0.00    -0.198 NA
HETATM   13  C9  UNL     1      21.519   3.666  46.549  1.00  0.00     0.171 A 
HETATM   14  C10 UNL     1      20.307   4.485  47.003  1.00  0.00     0.111 A 
HETATM   15  S1  UNL     1      20.473   3.931  48.815  1.00  0.00    -0.058 SA
BRANCH  13  16
HETATM   16  O1  UNL     1      22.095   3.532  45.251  1.00  0.00    -0.344 OA
HETATM   17  H10 UNL     1      23.109   3.469  45.171  1.00  0.00     0.219 HD
ENDBRANCH  13  16
ENDBRANCH   9  11
BRANCH  10  18
HETATM   18  C12 UNL     1      24.134   3.923  50.155  1.00  0.00    -0.033 A 
HETATM   19  C13 UNL     1      23.581   4.719  51.148  1.00  0.00     0.010 A 
HETATM   20  C14 UNL     1      23.739   6.085  51.288  1.00  0.00     0.007 A 
HETATM   21  C15 UNL     1      24.535   6.680  50.326  1.00  0.00    -0.062 A 
HETATM   22  C16 UNL     1      24.768   8.146  50.388  1.00  0.00     0.048 C 
HETATM   23  C17 UNL     1      25.110   5.922  49.313  1.00  0.00     0.007 A 
HETATM   24  C18 UNL     1      24.916   4.560  49.224  1.00  0.00     0.010 A 
ENDBRANCH  10  18
TORSDOF 3
ENDMDL
MODEL 7
REMARK VINA RESULT:      -6.8      3.157      6.350
REMARK  3 active torsions:
REMARK  status: ('A' for Active; 'I' for Inactive)
REMARK    1  A    between atoms: N2_9  and  C8_10 
REMARK    2  A    between atoms: C9_12  and  O1_13 
REMARK    3  A    between atoms: C11_16  and  C12_17 
ROOT
HETATM    1  C1  UNL     1      22.049   3.010  47.085  1.00  0.00     0.050 C 
HETATM    2  C2  UNL     1      22.875   3.355  48.298  1.00  0.00    -0.038 C 
HETATM    3  C3  UNL     1      23.879   4.256  48.380  1.00  0.00    -0.013 C 
HETATM    4  C4  UNL     1      24.382   4.225  49.811  1.00  0.00     0.017 C 
HETATM    5  C5  UNL     1      25.876   4.443  49.734  1.00  0.00     0.015 C 
HETATM    6  C6  UNL     1      24.007   2.829  50.253  1.00  0.00     0.077 C 
HETATM    7  C7  UNL     1      22.656   2.713  49.618  1.00  0.00     0.068 C 
HETATM    8  N1  UNL     1      21.900   2.112  50.470  1.00  0.00    -0.173 NA
HETATM    9  N2  UNL     1      22.524   1.789  51.649  1.00  0.00    -0.236 N 
HETATM   10  C11 UNL     1      23.652   2.693  51.701  1.00  0.00     0.156 C 
ENDROOT
BRANCH   9  11
HETATM   11  C8  UNL     1      22.220   0.823  52.641  1.00  0.00     0.192 A 
HETATM   12  N3  UNL     1      21.358   1.127  53.867  1.00  0.00    -0.198 NA
HETATM   13  C9  UNL     1      21.335  -0.042  54.519  1.00  0.00     0.171 A 
HETATM   14  C10 UNL     1      21.956  -1.416  54.244  1.00  0.00     0.111 A 
HETATM   15  S1  UNL     1      22.775  -0.844  52.626  1.00  0.00    -0.058 SA
BRANCH  13  16
HETATM   16  O1  UNL     1      20.518   0.390  55.606  1.00  0.00    -0.344 OA
HETATM   17  H10 UNL     1      19.677  -0.142  55.825  1.00  0.00     0.219 HD
ENDBRANCH  13  16
ENDBRANCH   9  11
BRANCH  10  18
HETATM   18  C12 UNL     1      24.842   2.041  52.348  1.00  0.00    -0.033 A 
HETATM   19  C13 UNL     1      25.576   1.143  51.585  1.00  0.00     0.010 A 
HETATM   20  C14 UNL     1      26.696   0.444  51.993  1.00  0.00     0.007 A 
HETATM   21  C15 UNL     1      27.094   0.690  53.294  1.00  0.00    -0.062 A 
HETATM   22  C16 UNL     1      28.289  -0.013  53.829  1.00  0.00     0.048 C 
HETATM   23  C17 UNL     1      26.389   1.581  54.095  1.00  0.00     0.007 A 
HETATM   24  C18 UNL     1      25.277   2.251  53.633  1.00  0.00     0.010 A 
ENDBRANCH  10  18
TORSDOF 3
ENDMDL
MODEL 8
REMARK VINA RESULT:      -6.7      8.857     12.014
REMARK  3 active torsions:
REMARK  status: ('A' for Active; 'I' for Inactive)
REMARK    1  A    between atoms: N2_9  and  C8_10 
REMARK    2  A    between atoms: C9_12  and  O1_13 
REMARK    3  A    between atoms: C11_16  and  C12_17 
ROOT
HETATM    1  C1  UNL     1      26.848   5.401  48.669  1.00  0.00     0.050 C 
HETATM    2  C2  UNL     1      27.872   6.414  48.225  1.00  0.00    -0.038 C 
HETATM    3  C3  UNL     1      27.645   7.640  47.707  1.00  0.00    -0.013 C 
HETATM    4  C4  UNL     1      29.001   8.258  47.426  1.00  0.00     0.017 C 
HETATM    5  C5  UNL     1      28.836   9.071  46.161  1.00  0.00     0.015 C 
HETATM    6  C6  UNL     1      29.876   7.039  47.238  1.00  0.00     0.077 C 
HETATM    7  C7  UNL     1      29.332   6.164  48.323  1.00  0.00     0.068 C 
HETATM    8  N1  UNL     1      30.343   5.576  48.863  1.00  0.00    -0.173 NA
HETATM    9  N2  UNL     1      31.554   5.923  48.318  1.00  0.00    -0.236 N 
HETATM   10  C11 UNL     1      31.295   7.199  47.686  1.00  0.00     0.156 C 
ENDROOT
BRANCH   9  11
HETATM   11  C8  UNL     1      32.809   5.265  48.317  1.00  0.00     0.192 A 
HETATM   12  N3  UNL     1      34.033   5.795  49.064  1.00  0.00    -0.198 NA
HETATM   13  C9  UNL     1      34.974   4.883  48.792  1.00  0.00     0.171 A 
HETATM   14  C10 UNL     1      34.984   3.591  47.968  1.00  0.00     0.111 A 
HETATM   15  S1  UNL     1      33.157   3.764  47.471  1.00  0.00    -0.058 SA
BRANCH  13  16
HETATM   16  O1  UNL     1      36.023   5.499  49.536  1.00  0.00    -0.344 OA
HETATM   17  H10 UNL     1      36.725   4.904  49.974  1.00  0.00     0.219 HD
ENDBRANCH  13  16
ENDBRANCH   9  11
BRANCH  10  18
HETATM   18  C12 UNL     1      32.100   7.355  46.426  1.00  0.00    -0.033 A 
HETATM   19  C13 UNL     1      33.163   8.247  46.449  1.00  0.00     0.010 A 
HETATM   20  C14 UNL     1      34.018   8.530  45.401  1.00  0.00     0.007 A 
HETATM   21  C15 UNL     1      33.759   7.837  44.234  1.00  0.00    -0.062 A 
HETATM   22  C16 UNL     1      34.623   8.071  43.048  1.00  0.00     0.048 C 
HETATM   23  C17 UNL     1      32.705   6.933  44.164  1.00  0.00     0.007 A 
HETATM   24  C18 UNL     1      31.883   6.691  45.244  1.00  0.00     0.010 A 
ENDBRANCH  10  18
TORSDOF 3
ENDMDL
MODEL 9
REMARK VINA RESULT:      -6.2      9.341     11.688
REMARK  3 active torsions:
REMARK  status: ('A' for Active; 'I' for Inactive)
REMARK    1  A    between atoms: N2_9  and  C8_10 
REMARK    2  A    between atoms: C9_12  and  O1_13 
REMARK    3  A    between atoms: C11_16  and  C12_17 
ROOT
HETATM    1  C1  UNL     1      33.540   2.077  48.577  1.00  0.00     0.050 C 
HETATM    2  C2  UNL     1      33.294   3.041  47.444  1.00  0.00    -0.038 C 
HETATM    3  C3  UNL     1      33.851   3.022  46.213  1.00  0.00    -0.013 C 
HETATM    4  C4  UNL     1      33.277   4.201  45.451  1.00  0.00     0.017 C 
HETATM    5  C5  UNL     1      34.397   4.720  44.577  1.00  0.00     0.015 C 
HETATM    6  C6  UNL     1      32.906   5.153  46.566  1.00  0.00     0.077 C 
HETATM    7  C7  UNL     1      32.350   4.179  47.559  1.00  0.00     0.068 C 
HETATM    8  N1  UNL     1      31.314   4.739  48.081  1.00  0.00    -0.173 NA
HETATM    9  N2  UNL     1      31.037   5.988  47.585  1.00  0.00    -0.236 N 
HETATM   10  C11 UNL     1      31.705   6.005  46.301  1.00  0.00     0.156 C 
ENDROOT
BRANCH   9  11
HETATM   11  C8  UNL     1      30.292   7.069  48.119  1.00  0.00     0.192 A 
HETATM   12  N3  UNL     1      30.888   8.105  49.073  1.00  0.00    -0.198 NA
HETATM   13  C9  UNL     1      29.855   8.920  49.320  1.00  0.00     0.171 A 
HETATM   14  C10 UNL     1      28.396   8.946  48.851  1.00  0.00     0.111 A 
HETATM   15  S1  UNL     1      28.597   7.386  47.782  1.00  0.00    -0.058 SA
BRANCH  13  16
HETATM   16  O1  UNL     1      30.547   9.806  50.198  1.00  0.00    -0.344 OA
HETATM   17  H10 UNL     1      30.692   9.520  51.164  1.00  0.00     0.219 HD
ENDBRANCH  13  16
ENDBRANCH   9  11
BRANCH  10  18
HETATM   18  C12 UNL     1      32.244   7.374  45.987  1.00  0.00    -0.033 A 
HETATM   19  C13 UNL     1      31.540   8.147  45.076  1.00  0.00     0.010 A 
HETATM   20  C14 UNL     1      31.867   9.423  44.657  1.00  0.00     0.007 A 
HETATM   21  C15 UNL     1      33.015   9.945  45.223  1.00  0.00    -0.062 A 
HETATM   22  C16 UNL     1      33.454  11.311  44.838  1.00  0.00     0.048 C 
HETATM   23  C17 UNL     1      33.752   9.206  46.142  1.00  0.00     0.007 A 
HETATM   24  C18 UNL     1      33.376   7.936  46.522  1.00  0.00     0.010 A 
ENDBRANCH  10  18
TORSDOF 3
ENDMDL
