MODEL 1
REMARK VINA RESULT:      -7.9      0.000      0.000
REMARK  4 active torsions:
REMARK  status: ('A' for Active; 'I' for Inactive)
REMARK    1  A    between atoms: C3_4  and  C4_5 
REMARK    2  A    between atoms: C5_6  and  N1_7 
REMARK       I    between atoms: N1_7  and  C6_8 
REMARK    3  A    between atoms: C6_8  and  C7_10 
REMARK    4  A    between atoms: C8_11  and  C9_12 
ROOT
HETATM    1  C9  UNL     1      25.177   0.434  52.901  1.00  0.00     0.036 C 
HETATM    2  C10 UNL     1      25.285   1.750  52.848  1.00  0.00    -0.040 C 
HETATM    3  C11 UNL     1      24.038   2.537  53.034  1.00  0.00     0.048 C 
HETATM    4  C12 UNL     1      26.483   2.636  52.626  1.00  0.00     0.159 C 
HETATM    5  N2  UNL     1      27.501   2.451  53.622  1.00  0.00    -0.354 N 
HETATM    6  C13 UNL     1      28.397   1.383  53.926  1.00  0.00     0.243 C 
HETATM    7  O2  UNL     1      29.402   1.727  54.587  1.00  0.00    -0.269 OA
HETATM    8  C14 UNL     1      28.438  -0.069  53.648  1.00  0.00     0.098 C 
HETATM    9  C15 UNL     1      27.468  -0.871  53.175  1.00  0.00     0.011 C 
HETATM   10  C16 UNL     1      27.873  -2.272  53.025  1.00  0.00     0.068 C 
HETATM   11  N3  UNL     1      26.096  -0.669  52.773  1.00  0.00    -0.360 N 
HETATM   12  H15 UNL     1      27.621   3.268  54.268  1.00  0.00     0.163 HD
HETATM   13  H20 UNL     1      25.663  -1.504  52.277  1.00  0.00     0.166 HD
ENDROOT
BRANCH   1  14
HETATM   14  C8  UNL     1      23.829   0.005  53.136  1.00  0.00     0.035 C 
HETATM   15  C7  UNL     1      23.238  -0.803  53.997  1.00  0.00     0.076 C 
BRANCH  15  16
HETATM   16  C6  UNL     1      21.848  -1.206  54.191  1.00  0.00     0.245 C 
HETATM   17  N1  UNL     1      20.841  -0.728  53.317  1.00  0.00    -0.334 N 
HETATM   18  H7  UNL     1      21.044  -0.085  52.519  1.00  0.00     0.168 HD
HETATM   19  O1  UNL     1      21.635  -1.980  55.159  1.00  0.00    -0.268 OA
BRANCH  17  20
HETATM   20  C5  UNL     1      19.546  -1.229  53.662  1.00  0.00     0.091 C 
HETATM   21  C4  UNL     1      18.564  -0.688  52.953  1.00  0.00     0.020 C 
BRANCH  21  22
HETATM   22  C3  UNL     1      18.858   0.318  51.934  1.00  0.00     0.038 C 
HETATM   23  C2  UNL     1      18.255   0.315  50.755  1.00  0.00     0.090 C 
HETATM   24  C1  UNL     1      18.580   1.352  49.744  1.00  0.00     0.082 C 
HETATM   25  F1  UNL     1      17.345  -0.637  50.481  1.00  0.00    -0.211 F 
ENDBRANCH  21  22
ENDBRANCH  17  20
ENDBRANCH  15  16
ENDBRANCH   1  14
TORSDOF 4
ENDMDL
MODEL 2
REMARK VINA RESULT:      -7.8      3.442      8.445
REMARK  4 active torsions:
REMARK  status: ('A' for Active; 'I' for Inactive)
REMARK    1  A    between atoms: C3_4  and  C4_5 
REMARK    2  A    between atoms: C5_6  and  N1_7 
REMARK       I    between atoms: N1_7  and  C6_8 
REMARK    3  A    between atoms: C6_8  and  C7_10 
REMARK    4  A    between atoms: C8_11  and  C9_12 
ROOT
HETATM    1  C9  UNL     1      21.886  -0.209  52.951  1.00  0.00     0.036 C 
HETATM    2  C10 UNL     1      21.522  -1.071  53.885  1.00  0.00    -0.040 C 
HETATM    3  C11 UNL     1      22.396  -1.177  55.081  1.00  0.00     0.048 C 
HETATM    4  C12 UNL     1      20.340  -2.001  53.966  1.00  0.00     0.159 C 
HETATM    5  N2  UNL     1      19.084  -1.306  53.917  1.00  0.00    -0.354 N 
HETATM    6  C13 UNL     1      18.396  -0.586  52.895  1.00  0.00     0.243 C 
HETATM    7  O2  UNL     1      17.166  -0.470  53.086  1.00  0.00    -0.269 OA
HETATM    8  C14 UNL     1      18.784   0.075  51.630  1.00  0.00     0.098 C 
HETATM    9  C15 UNL     1      20.011   0.376  51.170  1.00  0.00     0.011 C 
HETATM   10  C16 UNL     1      20.012   1.039  49.862  1.00  0.00     0.068 C 
HETATM   11  N3  UNL     1      21.352   0.195  51.674  1.00  0.00    -0.360 N 
HETATM   12  H15 UNL     1      18.549  -1.327  54.819  1.00  0.00     0.163 HD
HETATM   13  H20 UNL     1      22.114   0.400  50.962  1.00  0.00     0.166 HD
ENDROOT
BRANCH   1  14
HETATM   14  C8  UNL     1      23.098   0.482  53.286  1.00  0.00     0.035 C 
HETATM   15  C7  UNL     1      23.967   1.224  52.627  1.00  0.00     0.076 C 
BRANCH  15  16
HETATM   16  C6  UNL     1      25.196   1.907  53.025  1.00  0.00     0.245 C 
HETATM   17  N1  UNL     1      26.455   1.382  52.644  1.00  0.00    -0.334 N 
HETATM   18  H7  UNL     1      26.557   0.508  52.081  1.00  0.00     0.168 HD
HETATM   19  O1  UNL     1      25.042   2.955  53.702  1.00  0.00    -0.268 OA
BRANCH  17  20
HETATM   20  C5  UNL     1      27.540   2.184  53.123  1.00  0.00     0.091 C 
HETATM   21  C4  UNL     1      28.536   1.474  53.634  1.00  0.00     0.020 C 
BRANCH  21  22
HETATM   22  C3  UNL     1      28.460   0.014  53.668  1.00  0.00     0.038 C 
HETATM   23  C2  UNL     1      29.495  -0.748  53.350  1.00  0.00     0.090 C 
HETATM   24  C1  UNL     1      29.380  -2.226  53.397  1.00  0.00     0.082 C 
HETATM   25  F1  UNL     1      30.653  -0.169  52.984  1.00  0.00    -0.211 F 
ENDBRANCH  21  22
ENDBRANCH  17  20
ENDBRANCH  15  16
ENDBRANCH   1  14
TORSDOF 4
ENDMDL
MODEL 3
REMARK VINA RESULT:      -7.7      4.386      6.908
REMARK  4 active torsions:
REMARK  status: ('A' for Active; 'I' for Inactive)
REMARK    1  A    between atoms: C3_4  and  C4_5 
REMARK    2  A    between atoms: C5_6  and  N1_7 
REMARK       I    between atoms: N1_7  and  C6_8 
REMARK    3  A    between atoms: C6_8  and  C7_10 
REMARK    4  A    between atoms: C8_11  and  C9_12 
ROOT
HETATM    1  C9  UNL     1      24.506   1.674  51.917  1.00  0.00     0.036 C 
HETATM    2  C10 UNL     1      25.791   1.366  51.944  1.00  0.00    -0.040 C 
HETATM    3  C11 UNL     1      26.745   2.412  51.495  1.00  0.00     0.048 C 
HETATM    4  C12 UNL     1      26.496   0.103  52.365  1.00  0.00     0.159 C 
HETATM    5  N2  UNL     1      26.237  -0.246  53.734  1.00  0.00    -0.354 N 
HETATM    6  C13 UNL     1      25.079  -0.708  54.429  1.00  0.00     0.243 C 
HETATM    7  O2  UNL     1      25.326  -1.290  55.509  1.00  0.00    -0.269 OA
HETATM    8  C14 UNL     1      23.621  -0.673  54.187  1.00  0.00     0.098 C 
HETATM    9  C15 UNL     1      22.928   0.037  53.280  1.00  0.00     0.011 C 
HETATM   10  C16 UNL     1      21.479  -0.182  53.331  1.00  0.00     0.068 C 
HETATM   11  N3  UNL     1      23.285   0.983  52.249  1.00  0.00    -0.360 N 
HETATM   12  H15 UNL     1      27.067  -0.146  54.366  1.00  0.00     0.163 HD
HETATM   13  H20 UNL     1      22.488   1.228  51.590  1.00  0.00     0.166 HD
ENDROOT
BRANCH   1  14
HETATM   14  C8  UNL     1      24.274   3.007  51.440  1.00  0.00     0.035 C 
HETATM   15  C7  UNL     1      23.681   4.085  51.919  1.00  0.00     0.076 C 
BRANCH  15  16
HETATM   16  C6  UNL     1      23.472   5.427  51.383  1.00  0.00     0.245 C 
HETATM   17  N1  UNL     1      24.367   6.473  51.718  1.00  0.00    -0.334 N 
HETATM   18  H7  UNL     1      25.191   6.333  52.345  1.00  0.00     0.168 HD
HETATM   19  O1  UNL     1      22.474   5.565  50.632  1.00  0.00    -0.268 OA
BRANCH  17  20
HETATM   20  C5  UNL     1      24.003   7.712  51.101  1.00  0.00     0.091 C 
HETATM   21  C4  UNL     1      24.857   8.107  50.166  1.00  0.00     0.020 C 
BRANCH  21  22
HETATM   22  C3  UNL     1      26.034   7.298  49.852  1.00  0.00     0.038 C 
HETATM   23  C2  UNL     1      26.009   6.359  48.918  1.00  0.00     0.090 C 
HETATM   24  C1  UNL     1      27.223   5.558  48.628  1.00  0.00     0.082 C 
HETATM   25  F1  UNL     1      24.871   6.139  48.234  1.00  0.00    -0.211 F 
ENDBRANCH  21  22
ENDBRANCH  17  20
ENDBRANCH  15  16
ENDBRANCH   1  14
TORSDOF 4
ENDMDL
MODEL 4
REMARK VINA RESULT:      -7.7      5.151      8.345
REMARK  4 active torsions:
REMARK  status: ('A' for Active; 'I' for Inactive)
REMARK    1  A    between atoms: C3_4  and  C4_5 
REMARK    2  A    between atoms: C5_6  and  N1_7 
REMARK       I    between atoms: N1_7  and  C6_8 
REMARK    3  A    between atoms: C6_8  and  C7_10 
REMARK    4  A    between atoms: C8_11  and  C9_12 
ROOT
HETATM    1  C9  UNL     1      26.219   1.334  52.497  1.00  0.00     0.036 C 
HETATM    2  C10 UNL     1      27.349   1.060  53.127  1.00  0.00    -0.040 C 
HETATM    3  C11 UNL     1      28.445   2.056  53.008  1.00  0.00     0.048 C 
HETATM    4  C12 UNL     1      27.748  -0.119  53.976  1.00  0.00     0.159 C 
HETATM    5  N2  UNL     1      26.901  -0.284  55.125  1.00  0.00    -0.354 N 
HETATM    6  C13 UNL     1      25.539  -0.672  55.296  1.00  0.00     0.243 C 
HETATM    7  O2  UNL     1      25.265  -1.096  56.441  1.00  0.00    -0.269 OA
HETATM    8  C14 UNL     1      24.336  -0.701  54.436  1.00  0.00     0.098 C 
HETATM    9  C15 UNL     1      24.139  -0.136  53.232  1.00  0.00     0.011 C 
HETATM   10  C16 UNL     1      22.806  -0.377  52.671  1.00  0.00     0.068 C 
HETATM   11  N3  UNL     1      24.950   0.668  52.348  1.00  0.00    -0.360 N 
HETATM   12  H15 UNL     1      27.375  -0.081  56.038  1.00  0.00     0.163 HD
HETATM   13  H20 UNL     1      24.531   0.804  51.380  1.00  0.00     0.166 HD
ENDROOT
BRANCH   1  14
HETATM   14  C8  UNL     1      26.274   2.584  51.796  1.00  0.00     0.035 C 
HETATM   15  C7  UNL     1      25.990   2.985  50.571  1.00  0.00     0.076 C 
BRANCH  15  16
HETATM   16  C6  UNL     1      26.066   4.284  49.907  1.00  0.00     0.245 C 
HETATM   17  N1  UNL     1      27.227   4.642  49.177  1.00  0.00    -0.334 N 
HETATM   18  H7  UNL     1      28.054   4.010  49.087  1.00  0.00     0.168 HD
HETATM   19  O1  UNL     1      25.056   5.021  50.033  1.00  0.00    -0.268 OA
BRANCH  17  20
HETATM   20  C5  UNL     1      27.118   5.945  48.598  1.00  0.00     0.091 C 
HETATM   21  C4  UNL     1      28.255   6.388  48.077  1.00  0.00     0.020 C 
BRANCH  21  22
HETATM   22  C3  UNL     1      29.460   5.563  48.128  1.00  0.00     0.038 C 
HETATM   23  C2  UNL     1      30.656   6.085  48.354  1.00  0.00     0.090 C 
HETATM   24  C1  UNL     1      31.857   5.215  48.398  1.00  0.00     0.082 C 
HETATM   25  F1  UNL     1      30.772   7.412  48.542  1.00  0.00    -0.211 F 
ENDBRANCH  21  22
ENDBRANCH  17  20
ENDBRANCH  15  16
ENDBRANCH   1  14
TORSDOF 4
ENDMDL
MODEL 5
REMARK VINA RESULT:      -7.5      4.144      6.294
REMARK  4 active torsions:
REMARK  status: ('A' for Active; 'I' for Inactive)
REMARK    1  A    between atoms: C3_4  and  C4_5 
REMARK    2  A    between atoms: C5_6  and  N1_7 
REMARK       I    between atoms: N1_7  and  C6_8 
REMARK    3  A    between atoms: C6_8  and  C7_10 
REMARK    4  A    between atoms: C8_11  and  C9_12 
ROOT
HETATM    1  C9  UNL     1      25.329   1.784  53.296  1.00  0.00     0.036 C 
HETATM    2  C10 UNL     1      24.625   0.678  53.469  1.00  0.00    -0.040 C 
HETATM    3  C11 UNL     1      23.238   0.672  52.938  1.00  0.00     0.048 C 
HETATM    4  C12 UNL     1      24.983  -0.629  54.128  1.00  0.00     0.159 C 
HETATM    5  N2  UNL     1      26.108  -1.272  53.509  1.00  0.00    -0.354 N 
HETATM    6  C13 UNL     1      27.501  -0.969  53.444  1.00  0.00     0.243 C 
HETATM    7  O2  UNL     1      28.228  -1.951  53.172  1.00  0.00    -0.269 OA
HETATM    8  C14 UNL     1      28.325   0.245  53.622  1.00  0.00     0.098 C 
HETATM    9  C15 UNL     1      27.937   1.531  53.699  1.00  0.00     0.011 C 
HETATM   10  C16 UNL     1      29.042   2.478  53.879  1.00  0.00     0.068 C 
HETATM   11  N3  UNL     1      26.663   2.207  53.643  1.00  0.00    -0.360 N 
HETATM   12  H15 UNL     1      25.867  -2.152  52.993  1.00  0.00     0.163 HD
HETATM   13  H20 UNL     1      26.705   3.234  53.913  1.00  0.00     0.166 HD
ENDROOT
BRANCH   1  14
HETATM   14  C8  UNL     1      24.589   2.800  52.605  1.00  0.00     0.035 C 
HETATM   15  C7  UNL     1      24.129   3.998  52.913  1.00  0.00     0.076 C 
BRANCH  15  16
HETATM   16  C6  UNL     1      23.373   4.998  52.162  1.00  0.00     0.245 C 
HETATM   17  N1  UNL     1      23.949   6.262  51.885  1.00  0.00    -0.334 N 
HETATM   18  H7  UNL     1      24.910   6.526  52.197  1.00  0.00     0.168 HD
HETATM   19  O1  UNL     1      22.221   4.651  51.800  1.00  0.00    -0.268 OA
BRANCH  17  20
HETATM   20  C5  UNL     1      23.064   7.105  51.141  1.00  0.00     0.091 C 
HETATM   21  C4  UNL     1      23.632   7.661  50.079  1.00  0.00     0.020 C 
BRANCH  21  22
HETATM   22  C3  UNL     1      25.033   7.388  49.764  1.00  0.00     0.038 C 
HETATM   23  C2  UNL     1      25.383   6.596  48.763  1.00  0.00     0.090 C 
HETATM   24  C1  UNL     1      26.816   6.343  48.473  1.00  0.00     0.082 C 
HETATM   25  F1  UNL     1      24.427   6.023  48.009  1.00  0.00    -0.211 F 
ENDBRANCH  21  22
ENDBRANCH  17  20
ENDBRANCH  15  16
ENDBRANCH   1  14
TORSDOF 4
ENDMDL
MODEL 6
REMARK VINA RESULT:      -7.5      2.344      2.976
REMARK  4 active torsions:
REMARK  status: ('A' for Active; 'I' for Inactive)
REMARK    1  A    between atoms: C3_4  and  C4_5 
REMARK    2  A    between atoms: C5_6  and  N1_7 
REMARK       I    between atoms: N1_7  and  C6_8 
REMARK    3  A    between atoms: C6_8  and  C7_10 
REMARK    4  A    between atoms: C8_11  and  C9_12 
ROOT
HETATM    1  C9  UNL     1      24.418   1.618  51.859  1.00  0.00     0.036 C 
HETATM    2  C10 UNL     1      25.174   2.387  51.093  1.00  0.00    -0.040 C 
HETATM    3  C11 UNL     1      24.473   3.332  50.186  1.00  0.00     0.048 C 
HETATM    4  C12 UNL     1      26.671   2.489  50.965  1.00  0.00     0.159 C 
HETATM    5  N2  UNL     1      27.309   2.849  52.201  1.00  0.00    -0.354 N 
HETATM    6  C13 UNL     1      27.501   2.173  53.443  1.00  0.00     0.243 C 
HETATM    7  O2  UNL     1      28.439   2.626  54.136  1.00  0.00    -0.269 OA
HETATM    8  C14 UNL     1      26.853   1.038  54.136  1.00  0.00     0.098 C 
HETATM    9  C15 UNL     1      25.690   0.423  53.854  1.00  0.00     0.011 C 
HETATM   10  C16 UNL     1      25.360  -0.675  54.767  1.00  0.00     0.068 C 
HETATM   11  N3  UNL     1      24.674   0.598  52.844  1.00  0.00    -0.360 N 
HETATM   12  H15 UNL     1      27.727   3.810  52.203  1.00  0.00     0.163 HD
HETATM   13  H20 UNL     1      23.957  -0.187  52.811  1.00  0.00     0.166 HD
ENDROOT
BRANCH   1  14
HETATM   14  C8  UNL     1      23.018   1.853  51.657  1.00  0.00     0.035 C 
HETATM   15  C7  UNL     1      21.931   1.738  52.397  1.00  0.00     0.076 C 
BRANCH  15  16
HETATM   16  C6  UNL     1      20.517   1.994  52.135  1.00  0.00     0.245 C 
HETATM   17  N1  UNL     1      19.785   1.130  51.284  1.00  0.00    -0.334 N 
HETATM   18  H7  UNL     1      20.212   0.298  50.819  1.00  0.00     0.168 HD
HETATM   19  O1  UNL     1      20.030   3.001  52.708  1.00  0.00    -0.268 OA
BRANCH  17  20
HETATM   20  C5  UNL     1      18.420   1.538  51.148  1.00  0.00     0.091 C 
HETATM   21  C4  UNL     1      17.554   0.652  51.621  1.00  0.00     0.020 C 
BRANCH  21  22
HETATM   22  C3  UNL     1      18.028  -0.600  52.211  1.00  0.00     0.038 C 
HETATM   23  C2  UNL     1      17.252  -1.348  52.980  1.00  0.00     0.090 C 
HETATM   24  C1  UNL     1      17.768  -2.612  53.561  1.00  0.00     0.082 C 
HETATM   25  F1  UNL     1      15.991  -0.951  53.230  1.00  0.00    -0.211 F 
ENDBRANCH  21  22
ENDBRANCH  17  20
ENDBRANCH  15  16
ENDBRANCH   1  14
TORSDOF 4
ENDMDL
MODEL 7
REMARK VINA RESULT:      -7.4      2.321      3.592
REMARK  4 active torsions:
REMARK  status: ('A' for Active; 'I' for Inactive)
REMARK    1  A    between atoms: C3_4  and  C4_5 
REMARK    2  A    between atoms: C5_6  and  N1_7 
REMARK       I    between atoms: N1_7  and  C6_8 
REMARK    3  A    between atoms: C6_8  and  C7_10 
REMARK    4  A    between atoms: C8_11  and  C9_12 
ROOT
HETATM    1  C9  UNL     1      23.784   0.736  53.057  1.00  0.00     0.036 C 
HETATM    2  C10 UNL     1      23.867  -0.187  54.000  1.00  0.00    -0.040 C 
HETATM    3  C11 UNL     1      22.599  -0.836  54.422  1.00  0.00     0.048 C 
HETATM    4  C12 UNL     1      25.054  -0.725  54.755  1.00  0.00     0.159 C 
HETATM    5  N2  UNL     1      26.038  -1.316  53.891  1.00  0.00    -0.354 N 
HETATM    6  C13 UNL     1      26.944  -0.786  52.924  1.00  0.00     0.243 C 
HETATM    7  O2  UNL     1      27.916  -1.531  52.668  1.00  0.00    -0.269 OA
HETATM    8  C14 UNL     1      27.024   0.456  52.126  1.00  0.00     0.098 C 
HETATM    9  C15 UNL     1      26.089   1.402  51.931  1.00  0.00     0.011 C 
HETATM   10  C16 UNL     1      26.527   2.505  51.070  1.00  0.00     0.068 C 
HETATM   11  N3  UNL     1      24.729   1.587  52.379  1.00  0.00    -0.360 N 
HETATM   12  H15 UNL     1      26.118  -2.358  53.983  1.00  0.00     0.163 HD
HETATM   13  H20 UNL     1      24.331   2.550  52.170  1.00  0.00     0.166 HD
ENDROOT
BRANCH   1  14
HETATM   14  C8  UNL     1      22.436   0.939  52.609  1.00  0.00     0.035 C 
HETATM   15  C7  UNL     1      21.651   1.987  52.444  1.00  0.00     0.076 C 
BRANCH  15  16
HETATM   16  C6  UNL     1      20.274   2.136  51.980  1.00  0.00     0.245 C 
HETATM   17  N1  UNL     1      19.730   1.205  51.061  1.00  0.00    -0.334 N 
HETATM   18  H7  UNL     1      20.274   0.396  50.686  1.00  0.00     0.168 HD
HETATM   19  O1  UNL     1      19.644   3.117  52.448  1.00  0.00    -0.268 OA
BRANCH  17  20
HETATM   20  C5  UNL     1      18.373   1.512  50.724  1.00  0.00     0.091 C 
HETATM   21  C4  UNL     1      17.508   0.589  51.123  1.00  0.00     0.020 C 
BRANCH  21  22
HETATM   22  C3  UNL     1      17.975  -0.601  51.834  1.00  0.00     0.038 C 
HETATM   23  C2  UNL     1      17.296  -1.122  52.845  1.00  0.00     0.090 C 
HETATM   24  C1  UNL     1      17.801  -2.330  53.542  1.00  0.00     0.082 C 
HETATM   25  F1  UNL     1      16.144  -0.546  53.233  1.00  0.00    -0.211 F 
ENDBRANCH  21  22
ENDBRANCH  17  20
ENDBRANCH  15  16
ENDBRANCH   1  14
TORSDOF 4
ENDMDL
MODEL 8
REMARK VINA RESULT:      -7.4      4.574      6.699
REMARK  4 active torsions:
REMARK  status: ('A' for Active; 'I' for Inactive)
REMARK    1  A    between atoms: C3_4  and  C4_5 
REMARK    2  A    between atoms: C5_6  and  N1_7 
REMARK       I    between atoms: N1_7  and  C6_8 
REMARK    3  A    between atoms: C6_8  and  C7_10 
REMARK    4  A    between atoms: C8_11  and  C9_12 
ROOT
HETATM    1  C9  UNL     1      25.727   4.068  49.736  1.00  0.00     0.036 C 
HETATM    2  C10 UNL     1      24.462   4.388  49.521  1.00  0.00    -0.040 C 
HETATM    3  C11 UNL     1      23.450   3.772  50.416  1.00  0.00     0.048 C 
HETATM    4  C12 UNL     1      23.832   5.297  48.498  1.00  0.00     0.159 C 
HETATM    5  N2  UNL     1      24.306   6.650  48.594  1.00  0.00    -0.354 N 
HETATM    6  C13 UNL     1      25.559   7.275  48.318  1.00  0.00     0.243 C 
HETATM    7  O2  UNL     1      25.487   8.510  48.128  1.00  0.00    -0.269 OA
HETATM    8  C14 UNL     1      26.960   6.818  48.197  1.00  0.00     0.098 C 
HETATM    9  C15 UNL     1      27.501   5.636  48.541  1.00  0.00     0.011 C 
HETATM   10  C16 UNL     1      28.939   5.537  48.274  1.00  0.00     0.068 C 
HETATM   11  N3  UNL     1      26.984   4.420  49.124  1.00  0.00    -0.360 N 
HETATM   12  H15 UNL     1      23.587   7.332  48.935  1.00  0.00     0.163 HD
HETATM   13  H20 UNL     1      27.667   3.605  49.102  1.00  0.00     0.166 HD
ENDROOT
BRANCH   1  14
HETATM   14  C8  UNL     1      25.882   3.155  50.830  1.00  0.00     0.035 C 
HETATM   15  C7  UNL     1      26.836   2.344  51.248  1.00  0.00     0.076 C 
BRANCH  15  16
HETATM   16  C6  UNL     1      26.938   1.428  52.381  1.00  0.00     0.245 C 
HETATM   17  N1  UNL     1      25.896   0.505  52.645  1.00  0.00    -0.334 N 
HETATM   18  H7  UNL     1      25.034   0.443  52.058  1.00  0.00     0.168 HD
HETATM   19  O1  UNL     1      27.986   1.526  53.068  1.00  0.00    -0.268 OA
BRANCH  17  20
HETATM   20  C5  UNL     1      26.173  -0.307  53.790  1.00  0.00     0.091 C 
HETATM   21  C4  UNL     1      25.082  -0.785  54.374  1.00  0.00     0.020 C 
BRANCH  21  22
HETATM   22  C3  UNL     1      23.760  -0.469  53.838  1.00  0.00     0.038 C 
HETATM   23  C2  UNL     1      22.648  -0.823  54.465  1.00  0.00     0.090 C 
HETATM   24  C1  UNL     1      21.323  -0.484  53.890  1.00  0.00     0.082 C 
HETATM   25  F1  UNL     1      22.732  -1.493  55.629  1.00  0.00    -0.211 F 
ENDBRANCH  21  22
ENDBRANCH  17  20
ENDBRANCH  15  16
ENDBRANCH   1  14
TORSDOF 4
ENDMDL
MODEL 9
REMARK VINA RESULT:      -7.3      6.029      8.503
REMARK  4 active torsions:
REMARK  status: ('A' for Active; 'I' for Inactive)
REMARK    1  A    between atoms: C3_4  and  C4_5 
REMARK    2  A    between atoms: C5_6  and  N1_7 
REMARK       I    between atoms: N1_7  and  C6_8 
REMARK    3  A    between atoms: C6_8  and  C7_10 
REMARK    4  A    between atoms: C8_11  and  C9_12 
ROOT
HETATM    1  C9  UNL     1      27.164   5.795  48.493  1.00  0.00     0.036 C 
HETATM    2  C10 UNL     1      26.438   6.852  48.173  1.00  0.00    -0.040 C 
HETATM    3  C11 UNL     1      25.049   6.900  48.698  1.00  0.00     0.048 C 
HETATM    4  C12 UNL     1      26.770   8.066  47.344  1.00  0.00     0.159 C 
HETATM    5  N2  UNL     1      27.879   8.810  47.872  1.00  0.00    -0.354 N 
HETATM    6  C13 UNL     1      29.278   8.549  47.977  1.00  0.00     0.243 C 
HETATM    7  O2  UNL     1      29.984   9.573  48.115  1.00  0.00    -0.269 OA
HETATM    8  C14 UNL     1      30.128   7.339  47.963  1.00  0.00     0.098 C 
HETATM    9  C15 UNL     1      29.768   6.047  48.060  1.00  0.00     0.011 C 
HETATM   10  C16 UNL     1      30.893   5.109  48.008  1.00  0.00     0.068 C 
HETATM   11  N3  UNL     1      28.508   5.358  48.206  1.00  0.00    -0.360 N 
HETATM   12  H15 UNL     1      27.618   9.747  48.265  1.00  0.00     0.163 HD
HETATM   13  H20 UNL     1      28.572   4.304  48.076  1.00  0.00     0.166 HD
ENDROOT
BRANCH   1  14
HETATM   14  C8  UNL     1      26.444   4.865  49.314  1.00  0.00     0.035 C 
HETATM   15  C7  UNL     1      26.661   3.641  49.756  1.00  0.00     0.076 C 
BRANCH  15  16
HETATM   16  C6  UNL     1      25.884   2.734  50.597  1.00  0.00     0.245 C 
HETATM   17  N1  UNL     1      26.541   1.879  51.517  1.00  0.00    -0.334 N 
HETATM   18  H7  UNL     1      27.579   1.862  51.629  1.00  0.00     0.168 HD
HETATM   19  O1  UNL     1      24.638   2.777  50.439  1.00  0.00    -0.268 OA
BRANCH  17  20
HETATM   20  C5  UNL     1      25.619   1.067  52.250  1.00  0.00     0.091 C 
HETATM   21  C4  UNL     1      26.188   0.023  52.838  1.00  0.00     0.020 C 
BRANCH  21  22
HETATM   22  C3  UNL     1      27.626  -0.207  52.704  1.00  0.00     0.038 C 
HETATM   23  C2  UNL     1      28.420  -0.301  53.759  1.00  0.00     0.090 C 
HETATM   24  C1  UNL     1      29.875  -0.535  53.583  1.00  0.00     0.082 C 
HETATM   25  F1  UNL     1      27.896  -0.183  54.992  1.00  0.00    -0.211 F 
ENDBRANCH  21  22
ENDBRANCH  17  20
ENDBRANCH  15  16
ENDBRANCH   1  14
TORSDOF 4
ENDMDL
