MODEL 1
REMARK VINA RESULT:      -8.7      0.000      0.000
REMARK  8 active torsions:
REMARK  status: ('A' for Active; 'I' for Inactive)
REMARK    1  A    between atoms: C2_2  and  C3_3 
REMARK    2  A    between atoms: C3_3  and  C4_4 
REMARK    3  A    between atoms: C6_6  and  C7_7 
REMARK    4  A    between atoms: C7_7  and  C9_10 
REMARK       I    between atoms: C9_10  and  N2_11 
REMARK    5  A    between atoms: C11_14  and  C12_15 
REMARK    6  A    between atoms: C12_15  and  S1_16 
REMARK    7  A    between atoms: S1_16  and  C13_17 
REMARK    8  A    between atoms: C20_24  and  O2_25 
ROOT
HETATM    1  C7  UNL     1      27.244   0.696  52.774  1.00  0.00     0.217 C 
HETATM    2  C8  UNL     1      28.010   1.777  53.433  1.00  0.00     0.078 C 
HETATM    3  N1  UNL     1      28.614   2.634  53.964  1.00  0.00    -0.196 NA
ENDROOT
BRANCH   1   4
HETATM    4  C6  UNL     1      25.824   1.122  52.628  1.00  0.00    -0.030 A 
HETATM    5  C5  UNL     1      24.800   0.212  52.790  1.00  0.00     0.019 A 
HETATM    6  C4  UNL     1      23.455   0.504  52.675  1.00  0.00    -0.024 A 
HETATM    7  C20 UNL     1      23.116   1.807  52.375  1.00  0.00     0.079 A 
HETATM    8  C11 UNL     1      24.111   2.772  52.200  1.00  0.00    -0.014 A 
HETATM    9  C10 UNL     1      25.459   2.418  52.330  1.00  0.00     0.019 A 
BRANCH   6  10
HETATM   10  C3  UNL     1      22.435  -0.554  52.869  1.00  0.00     0.041 C 
BRANCH  10  11
HETATM   11  C2  UNL     1      22.281  -0.990  54.302  1.00  0.00     0.000 C 
HETATM   12  C1  UNL     1      21.190  -0.131  54.921  1.00  0.00     0.005 C 
ENDBRANCH  10  11
ENDBRANCH   6  10
BRANCH   7  13
HETATM   13  O2  UNL     1      21.777   2.158  52.247  1.00  0.00    -0.360 OA
HETATM   14  H22 UNL     1      21.534   2.908  51.612  1.00  0.00     0.217 HD
ENDBRANCH   7  13
BRANCH   8  15
HETATM   15  C12 UNL     1      23.707   4.174  51.876  1.00  0.00     0.121 C 
BRANCH  15  16
HETATM   16  S1  UNL     1      23.541   4.371  50.073  1.00  0.00    -0.125 SA
BRANCH  16  17
HETATM   17  C13 UNL     1      25.122   4.920  49.446  1.00  0.00     0.000 A 
HETATM   18  C14 UNL     1      26.142   4.012  49.380  1.00  0.00     0.019 A 
HETATM   19  C15 UNL     1      27.365   4.445  48.895  1.00  0.00     0.008 A 
HETATM   20  C16 UNL     1      27.557   5.753  48.486  1.00  0.00    -0.062 A 
HETATM   21  C17 UNL     1      28.893   6.151  47.975  1.00  0.00     0.048 C 
HETATM   22  C18 UNL     1      26.514   6.642  48.563  1.00  0.00     0.008 A 
HETATM   23  C19 UNL     1      25.274   6.234  49.048  1.00  0.00     0.019 A 
ENDBRANCH  16  17
ENDBRANCH  15  16
ENDBRANCH   8  15
ENDBRANCH   1   4
BRANCH   1  24
HETATM   24  C9  UNL     1      27.384  -0.554  53.525  1.00  0.00     0.237 C 
HETATM   25  N2  UNL     1      27.587  -0.344  54.916  1.00  0.00    -0.369 N 
HETATM   26  H10 UNL     1      27.976   0.454  55.460  1.00  0.00     0.159 HD
HETATM   27  H11 UNL     1      27.373  -0.980  55.716  1.00  0.00     0.159 HD
HETATM   28  O1  UNL     1      27.368  -1.784  53.234  1.00  0.00    -0.272 OA
ENDBRANCH   1  24
TORSDOF 8
ENDMDL
MODEL 2
REMARK VINA RESULT:      -8.4      2.164      4.225
REMARK  8 active torsions:
REMARK  status: ('A' for Active; 'I' for Inactive)
REMARK    1  A    between atoms: C2_2  and  C3_3 
REMARK    2  A    between atoms: C3_3  and  C4_4 
REMARK    3  A    between atoms: C6_6  and  C7_7 
REMARK    4  A    between atoms: C7_7  and  C9_10 
REMARK       I    between atoms: C9_10  and  N2_11 
REMARK    5  A    between atoms: C11_14  and  C12_15 
REMARK    6  A    between atoms: C12_15  and  S1_16 
REMARK    7  A    between atoms: S1_16  and  C13_17 
REMARK    8  A    between atoms: C20_24  and  O2_25 
ROOT
HETATM    1  C7  UNL     1      22.447  -0.586  53.413  1.00  0.00     0.217 C 
HETATM    2  C8  UNL     1      22.719  -1.214  54.725  1.00  0.00     0.078 C 
HETATM    3  N1  UNL     1      22.933  -1.705  55.770  1.00  0.00    -0.196 NA
ENDROOT
BRANCH   1   4
HETATM    4  C6  UNL     1      23.613   0.257  53.023  1.00  0.00    -0.030 A 
HETATM    5  C5  UNL     1      24.893  -0.253  53.075  1.00  0.00     0.019 A 
HETATM    6  C4  UNL     1      26.037   0.443  52.737  1.00  0.00    -0.024 A 
HETATM    7  C20 UNL     1      25.881   1.747  52.316  1.00  0.00     0.079 A 
HETATM    8  C11 UNL     1      24.607   2.317  52.244  1.00  0.00    -0.014 A 
HETATM    9  C10 UNL     1      23.483   1.562  52.599  1.00  0.00     0.019 A 
BRANCH   6  10
HETATM   10  C3  UNL     1      27.368  -0.203  52.829  1.00  0.00     0.041 C 
BRANCH  10  11
HETATM   11  C2  UNL     1      28.063   0.029  54.145  1.00  0.00     0.000 C 
HETATM   12  C1  UNL     1      29.528  -0.325  53.951  1.00  0.00     0.005 C 
ENDBRANCH  10  11
ENDBRANCH   6  10
BRANCH   7  13
HETATM   13  O2  UNL     1      26.997   2.496  51.963  1.00  0.00    -0.360 OA
HETATM   14  H22 UNL     1      27.296   3.239  52.583  1.00  0.00     0.217 HD
ENDBRANCH   7  13
BRANCH   8  15
HETATM   15  C12 UNL     1      24.474   3.733  51.784  1.00  0.00     0.121 C 
BRANCH  15  16
HETATM   16  S1  UNL     1      24.221   3.778  49.980  1.00  0.00    -0.125 SA
BRANCH  16  17
HETATM   17  C13 UNL     1      25.540   4.760  49.279  1.00  0.00     0.000 A 
HETATM   18  C14 UNL     1      26.780   4.193  49.169  1.00  0.00     0.019 A 
HETATM   19  C15 UNL     1      27.797   4.960  48.626  1.00  0.00     0.008 A 
HETATM   20  C16 UNL     1      27.575   6.259  48.205  1.00  0.00    -0.062 A 
HETATM   21  C17 UNL     1      28.711   7.026  47.632  1.00  0.00     0.048 C 
HETATM   22  C18 UNL     1      26.320   6.801  48.328  1.00  0.00     0.008 A 
HETATM   23  C19 UNL     1      25.279   6.053  48.870  1.00  0.00     0.019 A 
ENDBRANCH  16  17
ENDBRANCH  15  16
ENDBRANCH   8  15
ENDBRANCH   1   4
BRANCH   1  24
HETATM   24  C9  UNL     1      21.195   0.173  53.465  1.00  0.00     0.237 C 
HETATM   25  N2  UNL     1      20.694   0.325  54.787  1.00  0.00    -0.369 N 
HETATM   26  H10 UNL     1      20.820  -0.232  55.657  1.00  0.00     0.159 HD
HETATM   27  H11 UNL     1      20.068   1.066  55.172  1.00  0.00     0.159 HD
HETATM   28  O1  UNL     1      20.445   0.730  52.612  1.00  0.00    -0.272 OA
ENDBRANCH   1  24
TORSDOF 8
ENDMDL
MODEL 3
REMARK VINA RESULT:      -8.1      1.587      2.056
REMARK  8 active torsions:
REMARK  status: ('A' for Active; 'I' for Inactive)
REMARK    1  A    between atoms: C2_2  and  C3_3 
REMARK    2  A    between atoms: C3_3  and  C4_4 
REMARK    3  A    between atoms: C6_6  and  C7_7 
REMARK    4  A    between atoms: C7_7  and  C9_10 
REMARK       I    between atoms: C9_10  and  N2_11 
REMARK    5  A    between atoms: C11_14  and  C12_15 
REMARK    6  A    between atoms: C12_15  and  S1_16 
REMARK    7  A    between atoms: S1_16  and  C13_17 
REMARK    8  A    between atoms: C20_24  and  O2_25 
ROOT
HETATM    1  C7  UNL     1      27.304   0.605  53.908  1.00  0.00     0.217 C 
HETATM    2  C8  UNL     1      27.780  -0.742  53.523  1.00  0.00     0.078 C 
HETATM    3  N1  UNL     1      28.161  -1.808  53.211  1.00  0.00    -0.196 NA
ENDROOT
BRANCH   1   4
HETATM    4  C6  UNL     1      26.150   0.982  53.043  1.00  0.00    -0.030 A 
HETATM    5  C5  UNL     1      24.866   0.617  53.392  1.00  0.00     0.019 A 
HETATM    6  C4  UNL     1      23.732   0.915  52.663  1.00  0.00    -0.024 A 
HETATM    7  C20 UNL     1      23.903   1.632  51.497  1.00  0.00     0.079 A 
HETATM    8  C11 UNL     1      25.180   2.029  51.094  1.00  0.00    -0.014 A 
HETATM    9  C10 UNL     1      26.294   1.699  51.875  1.00  0.00     0.019 A 
BRANCH   6  10
HETATM   10  C3  UNL     1      22.397   0.472  53.130  1.00  0.00     0.041 C 
BRANCH  10  11
HETATM   11  C2  UNL     1      22.290  -1.016  53.332  1.00  0.00     0.000 C 
HETATM   12  C1  UNL     1      21.900  -1.249  54.782  1.00  0.00     0.005 C 
ENDBRANCH  10  11
ENDBRANCH   6  10
BRANCH   7  13
HETATM   13  O2  UNL     1      22.797   1.961  50.722  1.00  0.00    -0.360 OA
HETATM   14  H22 UNL     1      22.897   1.963  49.714  1.00  0.00     0.217 HD
ENDBRANCH   7  13
BRANCH   8  15
HETATM   15  C12 UNL     1      25.328   2.806  49.825  1.00  0.00     0.121 C 
BRANCH  15  16
HETATM   16  S1  UNL     1      25.175   4.589  50.167  1.00  0.00    -0.125 SA
BRANCH  16  17
HETATM   17  C13 UNL     1      26.455   5.423  49.241  1.00  0.00     0.000 A 
HETATM   18  C14 UNL     1      27.586   4.722  48.924  1.00  0.00     0.019 A 
HETATM   19  C15 UNL     1      28.574   5.375  48.207  1.00  0.00     0.008 A 
HETATM   20  C16 UNL     1      28.431   6.695  47.818  1.00  0.00    -0.062 A 
HETATM   21  C17 UNL     1      29.529   7.336  47.051  1.00  0.00     0.048 C 
HETATM   22  C18 UNL     1      27.285   7.374  48.151  1.00  0.00     0.008 A 
HETATM   23  C19 UNL     1      26.275   6.742  48.871  1.00  0.00     0.019 A 
ENDBRANCH  16  17
ENDBRANCH  15  16
ENDBRANCH   8  15
ENDBRANCH   1   4
BRANCH   1  24
HETATM   24  C9  UNL     1      28.403   1.571  53.833  1.00  0.00     0.237 C 
HETATM   25  N2  UNL     1      29.634   0.979  53.436  1.00  0.00    -0.369 N 
HETATM   26  H10 UNL     1      30.004   0.009  53.505  1.00  0.00     0.159 HD
HETATM   27  H11 UNL     1      30.457   1.421  52.970  1.00  0.00     0.159 HD
HETATM   28  O1  UNL     1      28.525   2.813  54.037  1.00  0.00    -0.272 OA
ENDBRANCH   1  24
TORSDOF 8
ENDMDL
MODEL 4
REMARK VINA RESULT:      -7.8      3.900      7.203
REMARK  8 active torsions:
REMARK  status: ('A' for Active; 'I' for Inactive)
REMARK    1  A    between atoms: C2_2  and  C3_3 
REMARK    2  A    between atoms: C3_3  and  C4_4 
REMARK    3  A    between atoms: C6_6  and  C7_7 
REMARK    4  A    between atoms: C7_7  and  C9_10 
REMARK       I    between atoms: C9_10  and  N2_11 
REMARK    5  A    between atoms: C11_14  and  C12_15 
REMARK    6  A    between atoms: C12_15  and  S1_16 
REMARK    7  A    between atoms: S1_16  and  C13_17 
REMARK    8  A    between atoms: C20_24  and  O2_25 
ROOT
HETATM    1  C7  UNL     1      21.573   1.544  48.750  1.00  0.00     0.217 C 
HETATM    2  C8  UNL     1      20.284   1.237  49.407  1.00  0.00     0.078 C 
HETATM    3  N1  UNL     1      19.258   1.002  49.930  1.00  0.00    -0.196 NA
ENDROOT
BRANCH   1   4
HETATM    4  C6  UNL     1      22.562   1.962  49.785  1.00  0.00    -0.030 A 
HETATM    5  C5  UNL     1      23.540   2.886  49.484  1.00  0.00     0.019 A 
HETATM    6  C4  UNL     1      24.501   3.338  50.368  1.00  0.00    -0.024 A 
HETATM    7  C20 UNL     1      24.474   2.822  51.647  1.00  0.00     0.079 A 
HETATM    8  C11 UNL     1      23.505   1.882  52.008  1.00  0.00    -0.014 A 
HETATM    9  C10 UNL     1      22.555   1.462  51.070  1.00  0.00     0.019 A 
BRANCH   6  10
HETATM   10  C3  UNL     1      25.510   4.336  49.940  1.00  0.00     0.041 C 
BRANCH  10  11
HETATM   11  C2  UNL     1      26.752   3.725  49.348  1.00  0.00     0.000 C 
HETATM   12  C1  UNL     1      27.556   4.851  48.722  1.00  0.00     0.005 C 
ENDBRANCH  10  11
ENDBRANCH   6  10
BRANCH   7  13
HETATM   13  O2  UNL     1      25.416   3.241  52.579  1.00  0.00    -0.360 OA
HETATM   14  H22 UNL     1      26.377   3.353  52.277  1.00  0.00     0.217 HD
ENDBRANCH   7  13
BRANCH   8  15
HETATM   15  C12 UNL     1      23.505   1.344  53.403  1.00  0.00     0.121 C 
BRANCH  15  16
HETATM   16  S1  UNL     1      24.003  -0.408  53.391  1.00  0.00    -0.125 SA
BRANCH  16  17
HETATM   17  C13 UNL     1      25.787  -0.458  53.494  1.00  0.00     0.000 A 
HETATM   18  C14 UNL     1      26.409   0.405  54.353  1.00  0.00     0.019 A 
HETATM   19  C15 UNL     1      27.791   0.362  54.428  1.00  0.00     0.008 A 
HETATM   20  C16 UNL     1      28.528  -0.525  53.662  1.00  0.00    -0.062 A 
HETATM   21  C17 UNL     1      30.008  -0.519  53.790  1.00  0.00     0.048 C 
HETATM   22  C18 UNL     1      27.876  -1.379  52.809  1.00  0.00     0.008 A 
HETATM   23  C19 UNL     1      26.487  -1.357  52.713  1.00  0.00     0.019 A 
ENDBRANCH  16  17
ENDBRANCH  15  16
ENDBRANCH   8  15
ENDBRANCH   1   4
BRANCH   1  24
HETATM   24  C9  UNL     1      21.383   2.557  47.710  1.00  0.00     0.237 C 
HETATM   25  N2  UNL     1      20.214   3.341  47.907  1.00  0.00    -0.369 N 
HETATM   26  H10 UNL     1      19.319   3.159  48.407  1.00  0.00     0.159 HD
HETATM   27  H11 UNL     1      20.005   4.308  47.575  1.00  0.00     0.159 HD
HETATM   28  O1  UNL     1      22.013   2.908  46.670  1.00  0.00    -0.272 OA
ENDBRANCH   1  24
TORSDOF 8
ENDMDL
MODEL 5
REMARK VINA RESULT:      -7.6      3.337      5.093
REMARK  8 active torsions:
REMARK  status: ('A' for Active; 'I' for Inactive)
REMARK    1  A    between atoms: C2_2  and  C3_3 
REMARK    2  A    between atoms: C3_3  and  C4_4 
REMARK    3  A    between atoms: C6_6  and  C7_7 
REMARK    4  A    between atoms: C7_7  and  C9_10 
REMARK       I    between atoms: C9_10  and  N2_11 
REMARK    5  A    between atoms: C11_14  and  C12_15 
REMARK    6  A    between atoms: C12_15  and  S1_16 
REMARK    7  A    between atoms: S1_16  and  C13_17 
REMARK    8  A    between atoms: C20_24  and  O2_25 
ROOT
HETATM    1  C7  UNL     1      22.275  -0.635  53.434  1.00  0.00     0.217 C 
HETATM    2  C8  UNL     1      22.635  -1.239  54.736  1.00  0.00     0.078 C 
HETATM    3  N1  UNL     1      22.919  -1.711  55.774  1.00  0.00    -0.196 NA
ENDROOT
BRANCH   1   4
HETATM    4  C6  UNL     1      23.346   0.316  53.023  1.00  0.00    -0.030 A 
HETATM    5  C5  UNL     1      24.648  -0.117  52.875  1.00  0.00     0.019 A 
HETATM    6  C4  UNL     1      25.710   0.681  52.500  1.00  0.00    -0.024 A 
HETATM    7  C20 UNL     1      25.444   2.012  52.256  1.00  0.00     0.079 A 
HETATM    8  C11 UNL     1      24.144   2.507  52.389  1.00  0.00    -0.014 A 
HETATM    9  C10 UNL     1      23.105   1.650  52.772  1.00  0.00     0.019 A 
BRANCH   6  10
HETATM   10  C3  UNL     1      27.073   0.111  52.371  1.00  0.00     0.041 C 
BRANCH  10  11
HETATM   11  C2  UNL     1      27.681  -0.303  53.685  1.00  0.00     0.000 C 
HETATM   12  C1  UNL     1      28.908   0.566  53.908  1.00  0.00     0.005 C 
ENDBRANCH  10  11
ENDBRANCH   6  10
BRANCH   7  13
HETATM   13  O2  UNL     1      26.475   2.862  51.875  1.00  0.00    -0.360 OA
HETATM   14  H22 UNL     1      26.573   3.748  52.357  1.00  0.00     0.217 HD
ENDBRANCH   7  13
BRANCH   8  15
HETATM   15  C12 UNL     1      23.891   3.955  52.117  1.00  0.00     0.121 C 
BRANCH  15  16
HETATM   16  S1  UNL     1      22.162   4.195  51.595  1.00  0.00    -0.125 SA
BRANCH  16  17
HETATM   17  C13 UNL     1      22.110   4.019  49.817  1.00  0.00     0.000 A 
HETATM   18  C14 UNL     1      21.833   5.127  49.065  1.00  0.00     0.019 A 
HETATM   19  C15 UNL     1      21.794   4.983  47.689  1.00  0.00     0.008 A 
HETATM   20  C16 UNL     1      22.028   3.760  47.084  1.00  0.00    -0.062 A 
HETATM   21  C17 UNL     1      21.970   3.675  45.602  1.00  0.00     0.048 C 
HETATM   22  C18 UNL     1      22.304   2.665  47.864  1.00  0.00     0.008 A 
HETATM   23  C19 UNL     1      22.350   2.781  49.251  1.00  0.00     0.019 A 
ENDBRANCH  16  17
ENDBRANCH  15  16
ENDBRANCH   8  15
ENDBRANCH   1   4
BRANCH   1  24
HETATM   24  C9  UNL     1      20.958   0.001  53.518  1.00  0.00     0.237 C 
HETATM   25  N2  UNL     1      20.566   0.288  54.854  1.00  0.00    -0.369 N 
HETATM   26  H10 UNL     1      20.829  -0.127  55.771  1.00  0.00     0.159 HD
HETATM   27  H11 UNL     1      19.901   1.013  55.204  1.00  0.00     0.159 HD
HETATM   28  O1  UNL     1      20.078   0.360  52.683  1.00  0.00    -0.272 OA
ENDBRANCH   1  24
TORSDOF 8
ENDMDL
MODEL 6
REMARK VINA RESULT:      -7.4      2.219      3.266
REMARK  8 active torsions:
REMARK  status: ('A' for Active; 'I' for Inactive)
REMARK    1  A    between atoms: C2_2  and  C3_3 
REMARK    2  A    between atoms: C3_3  and  C4_4 
REMARK    3  A    between atoms: C6_6  and  C7_7 
REMARK    4  A    between atoms: C7_7  and  C9_10 
REMARK       I    between atoms: C9_10  and  N2_11 
REMARK    5  A    between atoms: C11_14  and  C12_15 
REMARK    6  A    between atoms: C12_15  and  S1_16 
REMARK    7  A    between atoms: S1_16  and  C13_17 
REMARK    8  A    between atoms: C20_24  and  O2_25 
ROOT
HETATM    1  C7  UNL     1      27.571   0.666  52.715  1.00  0.00     0.217 C 
HETATM    2  C8  UNL     1      28.240   1.724  53.504  1.00  0.00     0.078 C 
HETATM    3  N1  UNL     1      28.765   2.563  54.138  1.00  0.00    -0.196 NA
ENDROOT
BRANCH   1   4
HETATM    4  C6  UNL     1      26.285   1.195  52.180  1.00  0.00    -0.030 A 
HETATM    5  C5  UNL     1      25.083   0.800  52.730  1.00  0.00     0.019 A 
HETATM    6  C4  UNL     1      23.840   1.229  52.308  1.00  0.00    -0.024 A 
HETATM    7  C20 UNL     1      23.804   2.120  51.256  1.00  0.00     0.079 A 
HETATM    8  C11 UNL     1      24.990   2.556  50.660  1.00  0.00    -0.014 A 
HETATM    9  C10 UNL     1      26.222   2.087  51.131  1.00  0.00     0.019 A 
BRANCH   6  10
HETATM   10  C3  UNL     1      22.608   0.739  52.971  1.00  0.00     0.041 C 
BRANCH  10  11
HETATM   11  C2  UNL     1      22.618  -0.742  53.247  1.00  0.00     0.000 C 
HETATM   12  C1  UNL     1      22.240  -0.933  54.706  1.00  0.00     0.005 C 
ENDBRANCH  10  11
ENDBRANCH   6  10
BRANCH   7  13
HETATM   13  O2  UNL     1      22.580   2.586  50.790  1.00  0.00    -0.360 OA
HETATM   14  H22 UNL     1      21.734   2.230  51.218  1.00  0.00     0.217 HD
ENDBRANCH   7  13
BRANCH   8  15
HETATM   15  C12 UNL     1      24.914   3.522  49.522  1.00  0.00     0.121 C 
BRANCH  15  16
HETATM   16  S1  UNL     1      25.023   5.229  50.150  1.00  0.00    -0.125 SA
BRANCH  16  17
HETATM   17  C13 UNL     1      23.420   5.986  49.923  1.00  0.00     0.000 A 
HETATM   18  C14 UNL     1      23.001   6.904  50.846  1.00  0.00     0.019 A 
HETATM   19  C15 UNL     1      21.758   7.486  50.665  1.00  0.00     0.008 A 
HETATM   20  C16 UNL     1      20.958   7.156  49.585  1.00  0.00    -0.062 A 
HETATM   21  C17 UNL     1      19.635   7.818  49.450  1.00  0.00     0.048 C 
HETATM   22  C18 UNL     1      21.404   6.231  48.674  1.00  0.00     0.008 A 
HETATM   23  C19 UNL     1      22.650   5.631  48.832  1.00  0.00     0.019 A 
ENDBRANCH  16  17
ENDBRANCH  15  16
ENDBRANCH   8  15
ENDBRANCH   1   4
BRANCH   1  24
HETATM   24  C9  UNL     1      27.391  -0.537  53.530  1.00  0.00     0.237 C 
HETATM   25  N2  UNL     1      27.511  -0.284  54.924  1.00  0.00    -0.369 N 
HETATM   26  H10 UNL     1      28.005   0.454  55.467  1.00  0.00     0.159 HD
HETATM   27  H11 UNL     1      27.106  -0.814  55.727  1.00  0.00     0.159 HD
HETATM   28  O1  UNL     1      27.153  -1.757  53.294  1.00  0.00    -0.272 OA
ENDBRANCH   1  24
TORSDOF 8
ENDMDL
MODEL 7
REMARK VINA RESULT:      -7.4      3.378      5.684
REMARK  8 active torsions:
REMARK  status: ('A' for Active; 'I' for Inactive)
REMARK    1  A    between atoms: C2_2  and  C3_3 
REMARK    2  A    between atoms: C3_3  and  C4_4 
REMARK    3  A    between atoms: C6_6  and  C7_7 
REMARK    4  A    between atoms: C7_7  and  C9_10 
REMARK       I    between atoms: C9_10  and  N2_11 
REMARK    5  A    between atoms: C11_14  and  C12_15 
REMARK    6  A    between atoms: C12_15  and  S1_16 
REMARK    7  A    between atoms: S1_16  and  C13_17 
REMARK    8  A    between atoms: C20_24  and  O2_25 
ROOT
HETATM    1  C7  UNL     1      22.063   0.277  53.991  1.00  0.00     0.217 C 
HETATM    2  C8  UNL     1      20.941   0.171  53.032  1.00  0.00     0.078 C 
HETATM    3  N1  UNL     1      20.054   0.079  52.267  1.00  0.00    -0.196 NA
ENDROOT
BRANCH   1   4
HETATM    4  C6  UNL     1      23.287   0.718  53.265  1.00  0.00    -0.030 A 
HETATM    5  C5  UNL     1      24.397  -0.099  53.205  1.00  0.00     0.019 A 
HETATM    6  C4  UNL     1      25.578   0.216  52.560  1.00  0.00    -0.024 A 
HETATM    7  C20 UNL     1      25.646   1.441  51.930  1.00  0.00     0.079 A 
HETATM    8  C11 UNL     1      24.551   2.309  51.958  1.00  0.00    -0.014 A 
HETATM    9  C10 UNL     1      23.379   1.937  52.627  1.00  0.00     0.019 A 
BRANCH   6  10
HETATM   10  C3  UNL     1      26.712  -0.738  52.558  1.00  0.00     0.041 C 
BRANCH  10  11
HETATM   11  C2  UNL     1      27.695  -0.512  53.676  1.00  0.00     0.000 C 
HETATM   12  C1  UNL     1      28.986  -1.217  53.293  1.00  0.00     0.005 C 
ENDBRANCH  10  11
ENDBRANCH   6  10
BRANCH   7  13
HETATM   13  O2  UNL     1      26.809   1.810  51.266  1.00  0.00    -0.360 OA
HETATM   14  H22 UNL     1      27.048   1.327  50.408  1.00  0.00     0.217 HD
ENDBRANCH   7  13
BRANCH   8  15
HETATM   15  C12 UNL     1      24.660   3.629  51.265  1.00  0.00     0.121 C 
BRANCH  15  16
HETATM   16  S1  UNL     1      24.164   3.456  49.520  1.00  0.00    -0.125 SA
BRANCH  16  17
HETATM   17  C13 UNL     1      22.446   2.966  49.499  1.00  0.00     0.000 A 
HETATM   18  C14 UNL     1      21.516   3.848  49.976  1.00  0.00     0.019 A 
HETATM   19  C15 UNL     1      20.186   3.462  49.957  1.00  0.00     0.008 A 
HETATM   20  C16 UNL     1      19.801   2.225  49.471  1.00  0.00    -0.062 A 
HETATM   21  C17 UNL     1      18.358   1.873  49.479  1.00  0.00     0.048 C 
HETATM   22  C18 UNL     1      20.757   1.360  48.998  1.00  0.00     0.008 A 
HETATM   23  C19 UNL     1      22.101   1.723  49.005  1.00  0.00     0.019 A 
ENDBRANCH  16  17
ENDBRANCH  15  16
ENDBRANCH   8  15
ENDBRANCH   1   4
BRANCH   1  24
HETATM   24  C9  UNL     1      22.251  -0.994  54.694  1.00  0.00     0.237 C 
HETATM   25  N2  UNL     1      21.556  -2.073  54.082  1.00  0.00    -0.369 N 
HETATM   26  H10 UNL     1      20.712  -2.114  53.473  1.00  0.00     0.159 HD
HETATM   27  H11 UNL     1      21.762  -3.095  54.120  1.00  0.00     0.159 HD
HETATM   28  O1  UNL     1      22.886  -1.369  55.721  1.00  0.00    -0.272 OA
ENDBRANCH   1  24
TORSDOF 8
ENDMDL
MODEL 8
REMARK VINA RESULT:      -7.3      3.321      7.004
REMARK  8 active torsions:
REMARK  status: ('A' for Active; 'I' for Inactive)
REMARK    1  A    between atoms: C2_2  and  C3_3 
REMARK    2  A    between atoms: C3_3  and  C4_4 
REMARK    3  A    between atoms: C6_6  and  C7_7 
REMARK    4  A    between atoms: C7_7  and  C9_10 
REMARK       I    between atoms: C9_10  and  N2_11 
REMARK    5  A    between atoms: C11_14  and  C12_15 
REMARK    6  A    between atoms: C12_15  and  S1_16 
REMARK    7  A    between atoms: S1_16  and  C13_17 
REMARK    8  A    between atoms: C20_24  and  O2_25 
ROOT
HETATM    1  C7  UNL     1      24.784   2.622  50.305  1.00  0.00     0.217 C 
HETATM    2  C8  UNL     1      23.509   3.345  50.505  1.00  0.00     0.078 C 
HETATM    3  N1  UNL     1      22.500   3.923  50.670  1.00  0.00    -0.196 NA
ENDROOT
BRANCH   1   4
HETATM    4  C6  UNL     1      24.950   1.613  51.389  1.00  0.00    -0.030 A 
HETATM    5  C5  UNL     1      26.208   1.262  51.833  1.00  0.00     0.019 A 
HETATM    6  C4  UNL     1      26.468   0.341  52.828  1.00  0.00    -0.024 A 
HETATM    7  C20 UNL     1      25.383  -0.272  53.420  1.00  0.00     0.079 A 
HETATM    8  C11 UNL     1      24.085   0.044  53.011  1.00  0.00    -0.014 A 
HETATM    9  C10 UNL     1      23.882   0.987  51.997  1.00  0.00     0.019 A 
BRANCH   6  10
HETATM   10  C3  UNL     1      27.863   0.037  53.229  1.00  0.00     0.041 C 
BRANCH  10  11
HETATM   11  C2  UNL     1      28.304   0.758  54.475  1.00  0.00     0.000 C 
HETATM   12  C1  UNL     1      29.043   2.010  54.036  1.00  0.00     0.005 C 
ENDBRANCH  10  11
ENDBRANCH   6  10
BRANCH   7  13
HETATM   13  O2  UNL     1      25.586  -1.208  54.427  1.00  0.00    -0.360 OA
HETATM   14  H22 UNL     1      25.623  -2.188  54.175  1.00  0.00     0.217 HD
ENDBRANCH   7  13
BRANCH   8  15
HETATM   15  C12 UNL     1      22.933  -0.640  53.674  1.00  0.00     0.121 C 
BRANCH  15  16
HETATM   16  S1  UNL     1      21.631   0.575  54.061  1.00  0.00    -0.125 SA
BRANCH  16  17
HETATM   17  C13 UNL     1      20.279   0.289  52.928  1.00  0.00     0.000 A 
HETATM   18  C14 UNL     1      20.276   0.967  51.740  1.00  0.00     0.019 A 
HETATM   19  C15 UNL     1      19.225   0.742  50.867  1.00  0.00     0.008 A 
HETATM   20  C16 UNL     1      18.206  -0.141  51.177  1.00  0.00    -0.062 A 
HETATM   21  C17 UNL     1      17.108  -0.336  50.196  1.00  0.00     0.048 C 
HETATM   22  C18 UNL     1      18.235  -0.808  52.377  1.00  0.00     0.008 A 
HETATM   23  C19 UNL     1      19.279  -0.600  53.273  1.00  0.00     0.019 A 
ENDBRANCH  16  17
ENDBRANCH  15  16
ENDBRANCH   8  15
ENDBRANCH   1   4
BRANCH   1  24
HETATM   24  C9  UNL     1      25.899   3.569  50.242  1.00  0.00     0.237 C 
HETATM   25  N2  UNL     1      25.573   4.845  50.778  1.00  0.00    -0.369 N 
HETATM   26  H10 UNL     1      24.671   5.350  50.897  1.00  0.00     0.159 HD
HETATM   27  H11 UNL     1      26.205   5.570  51.184  1.00  0.00     0.159 HD
HETATM   28  O1  UNL     1      27.092   3.528  49.822  1.00  0.00    -0.272 OA
ENDBRANCH   1  24
TORSDOF 8
ENDMDL
MODEL 9
REMARK VINA RESULT:      -7.3      3.104      6.136
REMARK  8 active torsions:
REMARK  status: ('A' for Active; 'I' for Inactive)
REMARK    1  A    between atoms: C2_2  and  C3_3 
REMARK    2  A    between atoms: C3_3  and  C4_4 
REMARK    3  A    between atoms: C6_6  and  C7_7 
REMARK    4  A    between atoms: C7_7  and  C9_10 
REMARK       I    between atoms: C9_10  and  N2_11 
REMARK    5  A    between atoms: C11_14  and  C12_15 
REMARK    6  A    between atoms: C12_15  and  S1_16 
REMARK    7  A    between atoms: S1_16  and  C13_17 
REMARK    8  A    between atoms: C20_24  and  O2_25 
ROOT
HETATM    1  C7  UNL     1      25.100   4.496  50.955  1.00  0.00     0.217 C 
HETATM    2  C8  UNL     1      26.108   4.240  49.903  1.00  0.00     0.078 C 
HETATM    3  N1  UNL     1      26.902   4.038  49.061  1.00  0.00    -0.196 NA
ENDROOT
BRANCH   1   4
HETATM    4  C6  UNL     1      24.130   3.365  50.989  1.00  0.00    -0.030 A 
HETATM    5  C5  UNL     1      23.480   2.966  49.840  1.00  0.00     0.019 A 
HETATM    6  C4  UNL     1      22.565   1.933  49.766  1.00  0.00    -0.024 A 
HETATM    7  C20 UNL     1      22.285   1.253  50.932  1.00  0.00     0.079 A 
HETATM    8  C11 UNL     1      22.914   1.614  52.127  1.00  0.00    -0.014 A 
HETATM    9  C10 UNL     1      23.834   2.669  52.142  1.00  0.00     0.019 A 
BRANCH   6  10
HETATM   10  C3  UNL     1      21.923   1.587  48.475  1.00  0.00     0.041 C 
BRANCH  10  11
HETATM   11  C2  UNL     1      21.166   2.729  47.851  1.00  0.00     0.000 C 
HETATM   12  C1  UNL     1      21.938   3.160  46.615  1.00  0.00     0.005 C 
ENDBRANCH  10  11
ENDBRANCH   6  10
BRANCH   7  13
HETATM   13  O2  UNL     1      21.373   0.205  50.917  1.00  0.00    -0.360 OA
HETATM   14  H22 UNL     1      20.396   0.413  51.084  1.00  0.00     0.217 HD
ENDBRANCH   7  13
BRANCH   8  15
HETATM   15  C12 UNL     1      22.587   0.855  53.373  1.00  0.00     0.121 C 
BRANCH  15  16
HETATM   16  S1  UNL     1      23.466  -0.740  53.376  1.00  0.00    -0.125 SA
BRANCH  16  17
HETATM   17  C13 UNL     1      25.213  -0.388  53.512  1.00  0.00     0.000 A 
HETATM   18  C14 UNL     1      25.985  -0.505  52.389  1.00  0.00     0.019 A 
HETATM   19  C15 UNL     1      27.338  -0.231  52.501  1.00  0.00     0.008 A 
HETATM   20  C16 UNL     1      27.900   0.150  53.707  1.00  0.00    -0.062 A 
HETATM   21  C17 UNL     1      29.358   0.428  53.758  1.00  0.00     0.048 C 
HETATM   22  C18 UNL     1      27.100   0.258  54.817  1.00  0.00     0.008 A 
HETATM   23  C19 UNL     1      25.737  -0.011  54.733  1.00  0.00     0.019 A 
ENDBRANCH  16  17
ENDBRANCH  15  16
ENDBRANCH   8  15
ENDBRANCH   1   4
BRANCH   1  24
HETATM   24  C9  UNL     1      24.451   5.789  50.731  1.00  0.00     0.237 C 
HETATM   25  N2  UNL     1      24.238   6.518  51.933  1.00  0.00    -0.369 N 
HETATM   26  H10 UNL     1      24.134   6.225  52.926  1.00  0.00     0.159 HD
HETATM   27  H11 UNL     1      24.139   7.548  52.069  1.00  0.00     0.159 HD
HETATM   28  O1  UNL     1      24.030   6.421  49.718  1.00  0.00    -0.272 OA
ENDBRANCH   1  24
TORSDOF 8
ENDMDL
