MODEL 1
REMARK VINA RESULT:      -7.0      0.000      0.000
REMARK  7 active torsions:
REMARK  status: ('A' for Active; 'I' for Inactive)
REMARK    1  A    between atoms: C3_3  and  C4_4 
REMARK    2  A    between atoms: C4_4  and  C5_5 
REMARK    3  A    between atoms: C4_4  and  N3_17 
REMARK    4  A    between atoms: C6_6  and  C7_7 
REMARK    5  A    between atoms: C8_8  and  N1_9 
REMARK    6  A    between atoms: N1_9  and  C9_10 
REMARK    7  A    between atoms: C9_10  and  C10_11 
ROOT
HETATM    1  C1  UNL     1      29.803  -1.065  53.499  1.00  0.00     0.091 C 
HETATM    2  C2  UNL     1      28.597  -1.407  53.108  1.00  0.00    -0.174 C 
HETATM    3  C3  UNL     1      27.331  -1.632  52.862  1.00  0.00     0.097 C 
ENDROOT
BRANCH   3   4
HETATM    4  C4  UNL     1      26.409  -0.506  52.924  1.00  0.00     0.148 C 
BRANCH   4   5
HETATM    5  C5  UNL     1      27.120   0.678  53.474  1.00  0.00     0.001 C 
HETATM    6  C6  UNL     1      27.079   1.826  52.833  1.00  0.00    -0.001 C 
BRANCH   6   7
HETATM    7  C7  UNL     1      26.341   1.976  51.574  1.00  0.00     0.016 C 
HETATM    8  C8  UNL     1      26.392   3.086  50.867  1.00  0.00     0.083 C 
BRANCH   8   9
HETATM    9  N1  UNL     1      25.687   3.257  49.631  1.00  0.00    -0.393 N 
HETATM   10  H9  UNL     1      25.994   3.051  48.635  1.00  0.00     0.159 HD
BRANCH   9  11
HETATM   11  C9  UNL     1      24.353   3.807  49.890  1.00  0.00     0.178 C 
BRANCH  11  12
HETATM   12  C10 UNL     1      23.301   2.785  49.610  1.00  0.00     0.051 A 
HETATM   13  C11 UNL     1      22.755   2.069  50.658  1.00  0.00     0.029 A 
HETATM   14  C12 UNL     1      21.792   1.136  50.350  1.00  0.00     0.003 A 
HETATM   15  C13 UNL     1      21.417   0.959  49.032  1.00  0.00     0.019 A 
HETATM   16  C14 UNL     1      21.999   1.707  48.015  1.00  0.00     0.117 A 
HETATM   17  N2  UNL     1      22.943   2.619  48.328  1.00  0.00    -0.264 NA
ENDBRANCH  11  12
ENDBRANCH   9  11
ENDBRANCH   8   9
ENDBRANCH   6   7
ENDBRANCH   4   5
BRANCH   4  18
HETATM   18  N3  UNL     1      25.239  -0.728  53.751  1.00  0.00    -0.271 N 
HETATM   19  C15 UNL     1      23.960  -0.512  53.119  1.00  0.00     0.125 C 
HETATM   20  C16 UNL     1      22.935  -0.266  53.884  1.00  0.00    -0.006 C 
HETATM   21  C17 UNL     1      22.788  -1.037  54.948  1.00  0.00     0.034 C 
HETATM   22  C18 UNL     1      24.046  -1.285  55.683  1.00  0.00     0.140 C 
HETATM   23  N4  UNL     1      25.188  -1.128  55.084  1.00  0.00    -0.185 NA
ENDBRANCH   4  18
ENDBRANCH   3   4
TORSDOF 7
ENDMDL
MODEL 2
REMARK VINA RESULT:      -6.9      2.351      3.887
REMARK  7 active torsions:
REMARK  status: ('A' for Active; 'I' for Inactive)
REMARK    1  A    between atoms: C3_3  and  C4_4 
REMARK    2  A    between atoms: C4_4  and  C5_5 
REMARK    3  A    between atoms: C4_4  and  N3_17 
REMARK    4  A    between atoms: C6_6  and  C7_7 
REMARK    5  A    between atoms: C8_8  and  N1_9 
REMARK    6  A    between atoms: N1_9  and  C9_10 
REMARK    7  A    between atoms: C9_10  and  C10_11 
ROOT
HETATM    1  C1  UNL     1      28.843  -0.539  53.393  1.00  0.00     0.091 C 
HETATM    2  C2  UNL     1      27.632  -0.956  53.101  1.00  0.00    -0.174 C 
HETATM    3  C3  UNL     1      26.366  -1.255  52.957  1.00  0.00     0.097 C 
ENDROOT
BRANCH   3   4
HETATM    4  C4  UNL     1      25.390  -0.178  53.066  1.00  0.00     0.148 C 
BRANCH   4   5
HETATM    5  C5  UNL     1      25.984   0.943  53.839  1.00  0.00     0.001 C 
HETATM    6  C6  UNL     1      26.108   2.131  53.286  1.00  0.00    -0.001 C 
BRANCH   6   7
HETATM    7  C7  UNL     1      25.672   2.385  51.909  1.00  0.00     0.016 C 
HETATM    8  C8  UNL     1      26.489   2.878  51.001  1.00  0.00     0.083 C 
BRANCH   8   9
HETATM    9  N1  UNL     1      26.091   3.131  49.647  1.00  0.00    -0.393 N 
HETATM   10  H9  UNL     1      26.113   2.492  48.799  1.00  0.00     0.159 HD
BRANCH   9  11
HETATM   11  C9  UNL     1      25.597   4.504  49.522  1.00  0.00     0.178 C 
BRANCH  11  12
HETATM   12  C10 UNL     1      26.669   5.402  48.998  1.00  0.00     0.051 A 
HETATM   13  C11 UNL     1      27.870   4.856  48.588  1.00  0.00     0.029 A 
HETATM   14  C12 UNL     1      28.829   5.722  48.117  1.00  0.00     0.003 A 
HETATM   15  C13 UNL     1      28.555   7.076  48.074  1.00  0.00     0.019 A 
HETATM   16  C14 UNL     1      27.329   7.573  48.499  1.00  0.00     0.117 A 
HETATM   17  N2  UNL     1      26.396   6.715  48.959  1.00  0.00    -0.264 NA
ENDBRANCH  11  12
ENDBRANCH   9  11
ENDBRANCH   8   9
ENDBRANCH   6   7
ENDBRANCH   4   5
BRANCH   4  18
HETATM   18  N3  UNL     1      24.153  -0.550  53.726  1.00  0.00    -0.271 N 
HETATM   19  C15 UNL     1      22.935  -0.251  53.013  1.00  0.00     0.125 C 
HETATM   20  C16 UNL     1      21.835  -0.148  53.703  1.00  0.00    -0.006 C 
HETATM   21  C17 UNL     1      21.610  -1.085  54.608  1.00  0.00     0.034 C 
HETATM   22  C18 UNL     1      22.799  -1.432  55.414  1.00  0.00     0.140 C 
HETATM   23  N4  UNL     1      23.987  -1.163  54.965  1.00  0.00    -0.185 NA
ENDBRANCH   4  18
ENDBRANCH   3   4
TORSDOF 7
ENDMDL
MODEL 3
REMARK VINA RESULT:      -6.8      3.379      6.807
REMARK  7 active torsions:
REMARK  status: ('A' for Active; 'I' for Inactive)
REMARK    1  A    between atoms: C3_3  and  C4_4 
REMARK    2  A    between atoms: C4_4  and  C5_5 
REMARK    3  A    between atoms: C4_4  and  N3_17 
REMARK    4  A    between atoms: C6_6  and  C7_7 
REMARK    5  A    between atoms: C8_8  and  N1_9 
REMARK    6  A    between atoms: N1_9  and  C9_10 
REMARK    7  A    between atoms: C9_10  and  C10_11 
ROOT
HETATM    1  C1  UNL     1      22.391  -1.541  54.978  1.00  0.00     0.091 C 
HETATM    2  C2  UNL     1      21.430  -0.693  54.691  1.00  0.00    -0.174 C 
HETATM    3  C3  UNL     1      20.578   0.194  54.245  1.00  0.00     0.097 C 
ENDROOT
BRANCH   3   4
HETATM    4  C4  UNL     1      20.289   0.210  52.817  1.00  0.00     0.148 C 
BRANCH   4   5
HETATM    5  C5  UNL     1      20.412   1.601  52.309  1.00  0.00     0.001 C 
HETATM    6  C6  UNL     1      21.577   2.047  51.890  1.00  0.00    -0.001 C 
BRANCH   6   7
HETATM    7  C7  UNL     1      22.775   1.201  51.908  1.00  0.00     0.016 C 
HETATM    8  C8  UNL     1      23.779   1.435  52.727  1.00  0.00     0.083 C 
BRANCH   8   9
HETATM    9  N1  UNL     1      24.958   0.621  52.771  1.00  0.00    -0.393 N 
HETATM   10  H9  UNL     1      25.311  -0.107  52.082  1.00  0.00     0.159 HD
BRANCH   9  11
HETATM   11  C9  UNL     1      25.719   0.912  53.988  1.00  0.00     0.178 C 
BRANCH  11  12
HETATM   12  C10 UNL     1      27.114   0.391  53.872  1.00  0.00     0.051 A 
HETATM   13  C11 UNL     1      27.338  -0.805  53.218  1.00  0.00     0.029 A 
HETATM   14  C12 UNL     1      28.639  -1.247  53.140  1.00  0.00     0.003 A 
HETATM   15  C13 UNL     1      29.647  -0.490  53.706  1.00  0.00     0.019 A 
HETATM   16  C14 UNL     1      29.365   0.708  54.353  1.00  0.00     0.117 A 
HETATM   17  N2  UNL     1      28.087   1.132  54.424  1.00  0.00    -0.264 NA
ENDBRANCH  11  12
ENDBRANCH   9  11
ENDBRANCH   8   9
ENDBRANCH   6   7
ENDBRANCH   4   5
BRANCH   4  18
HETATM   18  N3  UNL     1      18.963  -0.261  52.464  1.00  0.00    -0.271 N 
HETATM   19  C15 UNL     1      18.479   0.112  51.158  1.00  0.00     0.125 C 
HETATM   20  C16 UNL     1      17.192   0.109  50.960  1.00  0.00    -0.006 C 
HETATM   21  C17 UNL     1      16.524  -0.941  51.405  1.00  0.00     0.034 C 
HETATM   22  C18 UNL     1      16.930  -1.376  52.758  1.00  0.00     0.140 C 
HETATM   23  N4  UNL     1      18.092  -1.035  53.227  1.00  0.00    -0.185 NA
ENDBRANCH   4  18
ENDBRANCH   3   4
TORSDOF 7
ENDMDL
MODEL 4
REMARK VINA RESULT:      -6.7      1.898      4.630
REMARK  7 active torsions:
REMARK  status: ('A' for Active; 'I' for Inactive)
REMARK    1  A    between atoms: C3_3  and  C4_4 
REMARK    2  A    between atoms: C4_4  and  C5_5 
REMARK    3  A    between atoms: C4_4  and  N3_17 
REMARK    4  A    between atoms: C6_6  and  C7_7 
REMARK    5  A    between atoms: C8_8  and  N1_9 
REMARK    6  A    between atoms: N1_9  and  C9_10 
REMARK    7  A    between atoms: C9_10  and  C10_11 
ROOT
HETATM    1  C1  UNL     1      23.040   5.053  52.166  1.00  0.00     0.091 C 
HETATM    2  C2  UNL     1      23.771   4.191  52.836  1.00  0.00    -0.174 C 
HETATM    3  C3  UNL     1      24.364   3.201  53.452  1.00  0.00     0.097 C 
ENDROOT
BRANCH   3   4
HETATM    4  C4  UNL     1      24.417   1.909  52.780  1.00  0.00     0.148 C 
BRANCH   4   5
HETATM    5  C5  UNL     1      23.240   1.098  53.187  1.00  0.00     0.001 C 
HETATM    6  C6  UNL     1      22.290   0.834  52.317  1.00  0.00    -0.001 C 
BRANCH   6   7
HETATM    7  C7  UNL     1      22.357   1.324  50.935  1.00  0.00     0.016 C 
HETATM    8  C8  UNL     1      21.581   2.296  50.503  1.00  0.00     0.083 C 
BRANCH   8   9
HETATM    9  N1  UNL     1      21.630   2.797  49.161  1.00  0.00    -0.393 N 
HETATM   10  H9  UNL     1      20.886   3.298  48.592  1.00  0.00     0.159 HD
BRANCH   9  11
HETATM   11  C9  UNL     1      22.946   2.527  48.577  1.00  0.00     0.178 C 
BRANCH  11  12
HETATM   12  C10 UNL     1      23.886   3.654  48.856  1.00  0.00     0.051 A 
HETATM   13  C11 UNL     1      25.092   3.393  49.476  1.00  0.00     0.029 A 
HETATM   14  C12 UNL     1      25.923   4.464  49.715  1.00  0.00     0.003 A 
HETATM   15  C13 UNL     1      25.523   5.730  49.333  1.00  0.00     0.019 A 
HETATM   16  C14 UNL     1      24.297   5.937  48.711  1.00  0.00     0.117 A 
HETATM   17  N2  UNL     1      23.490   4.881  48.481  1.00  0.00    -0.264 NA
ENDBRANCH  11  12
ENDBRANCH   9  11
ENDBRANCH   8   9
ENDBRANCH   6   7
ENDBRANCH   4   5
BRANCH   4  18
HETATM   18  N3  UNL     1      25.602   1.125  53.072  1.00  0.00    -0.271 N 
HETATM   19  C15 UNL     1      26.154   0.370  51.974  1.00  0.00     0.125 C 
HETATM   20  C16 UNL     1      26.907  -0.655  52.255  1.00  0.00    -0.006 C 
HETATM   21  C17 UNL     1      27.827  -0.478  53.189  1.00  0.00     0.034 C 
HETATM   22  C18 UNL     1      27.339   0.259  54.374  1.00  0.00     0.140 C 
HETATM   23  N4  UNL     1      26.283   1.008  54.281  1.00  0.00    -0.185 NA
ENDBRANCH   4  18
ENDBRANCH   3   4
TORSDOF 7
ENDMDL
MODEL 5
REMARK VINA RESULT:      -6.7      2.685      5.122
REMARK  7 active torsions:
REMARK  status: ('A' for Active; 'I' for Inactive)
REMARK    1  A    between atoms: C3_3  and  C4_4 
REMARK    2  A    between atoms: C4_4  and  C5_5 
REMARK    3  A    between atoms: C4_4  and  N3_17 
REMARK    4  A    between atoms: C6_6  and  C7_7 
REMARK    5  A    between atoms: C8_8  and  N1_9 
REMARK    6  A    between atoms: N1_9  and  C9_10 
REMARK    7  A    between atoms: C9_10  and  C10_11 
ROOT
HETATM    1  C1  UNL     1      25.000   3.736  49.476  1.00  0.00     0.091 C 
HETATM    2  C2  UNL     1      25.926   3.035  50.090  1.00  0.00    -0.174 C 
HETATM    3  C3  UNL     1      26.750   2.377  50.865  1.00  0.00     0.097 C 
ENDROOT
BRANCH   3   4
HETATM    4  C4  UNL     1      26.184   1.570  51.939  1.00  0.00     0.148 C 
BRANCH   4   5
HETATM    5  C5  UNL     1      25.684   2.467  53.012  1.00  0.00     0.001 C 
HETATM    6  C6  UNL     1      24.449   2.343  53.450  1.00  0.00    -0.001 C 
BRANCH   6   7
HETATM    7  C7  UNL     1      23.538   1.332  52.902  1.00  0.00     0.016 C 
HETATM    8  C8  UNL     1      23.194   0.262  53.588  1.00  0.00     0.083 C 
BRANCH   8   9
HETATM    9  N1  UNL     1      22.302  -0.739  53.080  1.00  0.00    -0.393 N 
HETATM   10  H9  UNL     1      22.433  -1.428  52.282  1.00  0.00     0.159 HD
BRANCH   9  11
HETATM   11  C9  UNL     1      21.052  -0.725  53.843  1.00  0.00     0.178 C 
BRANCH  11  12
HETATM   12  C10 UNL     1      19.888  -0.482  52.940  1.00  0.00     0.051 A 
HETATM   13  C11 UNL     1      20.056   0.302  51.814  1.00  0.00     0.029 A 
HETATM   14  C12 UNL     1      18.955   0.501  51.014  1.00  0.00     0.003 A 
HETATM   15  C13 UNL     1      17.750  -0.081  51.363  1.00  0.00     0.019 A 
HETATM   16  C14 UNL     1      17.637  -0.862  52.507  1.00  0.00     0.117 A 
HETATM   17  N2  UNL     1      18.723  -1.050  53.285  1.00  0.00    -0.264 NA
ENDBRANCH  11  12
ENDBRANCH   9  11
ENDBRANCH   8   9
ENDBRANCH   6   7
ENDBRANCH   4   5
BRANCH   4  18
HETATM   18  N3  UNL     1      27.117   0.643  52.552  1.00  0.00    -0.271 N 
HETATM   19  C15 UNL     1      28.189   1.229  53.317  1.00  0.00     0.125 C 
HETATM   20  C16 UNL     1      29.264   0.517  53.507  1.00  0.00    -0.006 C 
HETATM   21  C17 UNL     1      29.086  -0.741  53.870  1.00  0.00     0.034 C 
HETATM   22  C18 UNL     1      28.025  -1.437  53.110  1.00  0.00     0.140 C 
HETATM   23  N4  UNL     1      27.110  -0.748  52.498  1.00  0.00    -0.185 NA
ENDBRANCH   4  18
ENDBRANCH   3   4
TORSDOF 7
ENDMDL
MODEL 6
REMARK VINA RESULT:      -6.7      1.706      4.260
REMARK  7 active torsions:
REMARK  status: ('A' for Active; 'I' for Inactive)
REMARK    1  A    between atoms: C3_3  and  C4_4 
REMARK    2  A    between atoms: C4_4  and  C5_5 
REMARK    3  A    between atoms: C4_4  and  N3_17 
REMARK    4  A    between atoms: C6_6  and  C7_7 
REMARK    5  A    between atoms: C8_8  and  N1_9 
REMARK    6  A    between atoms: N1_9  and  C9_10 
REMARK    7  A    between atoms: C9_10  and  C10_11 
ROOT
HETATM    1  C1  UNL     1      26.355   2.564  50.889  1.00  0.00     0.091 C 
HETATM    2  C2  UNL     1      26.316   2.046  52.096  1.00  0.00    -0.174 C 
HETATM    3  C3  UNL     1      26.152   1.399  53.222  1.00  0.00     0.097 C 
ENDROOT
BRANCH   3   4
HETATM    4  C4  UNL     1      26.114  -0.057  53.177  1.00  0.00     0.148 C 
BRANCH   4   5
HETATM    5  C5  UNL     1      25.249  -0.556  54.277  1.00  0.00     0.001 C 
HETATM    6  C6  UNL     1      23.940  -0.533  54.148  1.00  0.00    -0.001 C 
BRANCH   6   7
HETATM    7  C7  UNL     1      23.299  -0.020  52.932  1.00  0.00     0.016 C 
HETATM    8  C8  UNL     1      22.052  -0.316  52.626  1.00  0.00     0.083 C 
BRANCH   8   9
HETATM    9  N1  UNL     1      21.399   0.175  51.449  1.00  0.00    -0.393 N 
HETATM   10  H9  UNL     1      21.138  -0.330  50.551  1.00  0.00     0.159 HD
BRANCH   9  11
HETATM   11  C9  UNL     1      21.089   1.598  51.609  1.00  0.00     0.178 C 
BRANCH  11  12
HETATM   12  C10 UNL     1      21.929   2.424  50.692  1.00  0.00     0.051 A 
HETATM   13  C11 UNL     1      22.326   1.898  49.477  1.00  0.00     0.029 A 
HETATM   14  C12 UNL     1      23.102   2.695  48.668  1.00  0.00     0.003 A 
HETATM   15  C13 UNL     1      23.445   3.965  49.095  1.00  0.00     0.019 A 
HETATM   16  C14 UNL     1      23.017   4.445  50.327  1.00  0.00     0.117 A 
HETATM   17  N2  UNL     1      22.257   3.656  51.113  1.00  0.00    -0.264 NA
ENDBRANCH  11  12
ENDBRANCH   9  11
ENDBRANCH   8   9
ENDBRANCH   6   7
ENDBRANCH   4   5
BRANCH   4  18
HETATM   18  N3  UNL     1      27.406  -0.699  53.319  1.00  0.00    -0.271 N 
HETATM   19  C15 UNL     1      28.469   0.116  53.856  1.00  0.00     0.125 C 
HETATM   20  C16 UNL     1      29.697  -0.236  53.602  1.00  0.00    -0.006 C 
HETATM   21  C17 UNL     1      29.991  -1.517  53.751  1.00  0.00     0.034 C 
HETATM   22  C18 UNL     1      28.971  -2.431  53.195  1.00  0.00     0.140 C 
HETATM   23  N4  UNL     1      27.758  -2.009  53.004  1.00  0.00    -0.185 NA
ENDBRANCH   4  18
ENDBRANCH   3   4
TORSDOF 7
ENDMDL
MODEL 7
REMARK VINA RESULT:      -6.6      2.233      7.403
REMARK  7 active torsions:
REMARK  status: ('A' for Active; 'I' for Inactive)
REMARK    1  A    between atoms: C3_3  and  C4_4 
REMARK    2  A    between atoms: C4_4  and  C5_5 
REMARK    3  A    between atoms: C4_4  and  N3_17 
REMARK    4  A    between atoms: C6_6  and  C7_7 
REMARK    5  A    between atoms: C8_8  and  N1_9 
REMARK    6  A    between atoms: N1_9  and  C9_10 
REMARK    7  A    between atoms: C9_10  and  C10_11 
ROOT
HETATM    1  C1  UNL     1      22.128   4.072  48.115  1.00  0.00     0.091 C 
HETATM    2  C2  UNL     1      23.033   3.357  48.743  1.00  0.00    -0.174 C 
HETATM    3  C3  UNL     1      24.051   2.801  49.350  1.00  0.00     0.097 C 
ENDROOT
BRANCH   3   4
HETATM    4  C4  UNL     1      24.822   3.614  50.281  1.00  0.00     0.148 C 
BRANCH   4   5
HETATM    5  C5  UNL     1      23.895   4.466  51.070  1.00  0.00     0.001 C 
HETATM    6  C6  UNL     1      23.662   4.189  52.335  1.00  0.00    -0.001 C 
BRANCH   6   7
HETATM    7  C7  UNL     1      24.299   3.047  53.000  1.00  0.00     0.016 C 
HETATM    8  C8  UNL     1      23.818   1.825  52.896  1.00  0.00     0.083 C 
BRANCH   8   9
HETATM    9  N1  UNL     1      24.424   0.691  53.530  1.00  0.00    -0.393 N 
HETATM   10  H9  UNL     1      24.179   0.209  54.445  1.00  0.00     0.159 HD
BRANCH   9  11
HETATM   11  C9  UNL     1      25.538   0.201  52.715  1.00  0.00     0.178 C 
BRANCH  11  12
HETATM   12  C10 UNL     1      26.845   0.585  53.326  1.00  0.00     0.051 A 
HETATM   13  C11 UNL     1      27.498   1.715  52.875  1.00  0.00     0.029 A 
HETATM   14  C12 UNL     1      28.701   2.027  53.466  1.00  0.00     0.003 A 
HETATM   15  C13 UNL     1      29.195   1.212  54.467  1.00  0.00     0.019 A 
HETATM   16  C14 UNL     1      28.495   0.085  54.884  1.00  0.00     0.117 A 
HETATM   17  N2  UNL     1      27.317  -0.211  54.298  1.00  0.00    -0.264 NA
ENDBRANCH  11  12
ENDBRANCH   9  11
ENDBRANCH   8   9
ENDBRANCH   6   7
ENDBRANCH   4   5
BRANCH   4  18
HETATM   18  N3  UNL     1      25.789   4.495  49.654  1.00  0.00    -0.271 N 
HETATM   19  C15 UNL     1      25.431   5.891  49.586  1.00  0.00     0.125 C 
HETATM   20  C16 UNL     1      26.014   6.627  48.683  1.00  0.00    -0.006 C 
HETATM   21  C17 UNL     1      27.323   6.491  48.559  1.00  0.00     0.034 C 
HETATM   22  C18 UNL     1      27.780   5.085  48.582  1.00  0.00     0.140 C 
HETATM   23  N4  UNL     1      27.028   4.167  49.108  1.00  0.00    -0.185 NA
ENDBRANCH   4  18
ENDBRANCH   3   4
TORSDOF 7
ENDMDL
MODEL 8
REMARK VINA RESULT:      -6.5      2.153      4.780
REMARK  7 active torsions:
REMARK  status: ('A' for Active; 'I' for Inactive)
REMARK    1  A    between atoms: C3_3  and  C4_4 
REMARK    2  A    between atoms: C4_4  and  C5_5 
REMARK    3  A    between atoms: C4_4  and  N3_17 
REMARK    4  A    between atoms: C6_6  and  C7_7 
REMARK    5  A    between atoms: C8_8  and  N1_9 
REMARK    6  A    between atoms: N1_9  and  C9_10 
REMARK    7  A    between atoms: C9_10  and  C10_11 
ROOT
HETATM    1  C1  UNL     1      25.547   2.201  51.438  1.00  0.00     0.091 C 
HETATM    2  C2  UNL     1      25.814   1.860  52.678  1.00  0.00    -0.174 C 
HETATM    3  C3  UNL     1      25.952   1.374  53.886  1.00  0.00     0.097 C 
ENDROOT
BRANCH   3   4
HETATM    4  C4  UNL     1      26.011  -0.074  54.040  1.00  0.00     0.148 C 
BRANCH   4   5
HETATM    5  C5  UNL     1      25.631  -0.433  55.431  1.00  0.00     0.001 C 
HETATM    6  C6  UNL     1      24.433  -0.916  55.682  1.00  0.00    -0.001 C 
BRANCH   6   7
HETATM    7  C7  UNL     1      23.446  -1.113  54.614  1.00  0.00     0.016 C 
HETATM    8  C8  UNL     1      22.156  -1.191  54.866  1.00  0.00     0.083 C 
BRANCH   8   9
HETATM    9  N1  UNL     1      21.170  -1.377  53.842  1.00  0.00    -0.393 N 
HETATM   10  H9  UNL     1      20.961  -2.229  53.243  1.00  0.00     0.159 HD
BRANCH   9  11
HETATM   11  C9  UNL     1      20.390  -0.149  53.673  1.00  0.00     0.178 C 
BRANCH  11  12
HETATM   12  C10 UNL     1      20.885   0.630  52.499  1.00  0.00     0.051 A 
HETATM   13  C11 UNL     1      21.685   1.737  52.709  1.00  0.00     0.029 A 
HETATM   14  C12 UNL     1      22.114   2.425  51.597  1.00  0.00     0.003 A 
HETATM   15  C13 UNL     1      21.735   1.988  50.342  1.00  0.00     0.019 A 
HETATM   16  C14 UNL     1      20.929   0.866  50.188  1.00  0.00     0.117 A 
HETATM   17  N2  UNL     1      20.514   0.199  51.284  1.00  0.00    -0.264 NA
ENDBRANCH  11  12
ENDBRANCH   9  11
ENDBRANCH   8   9
ENDBRANCH   6   7
ENDBRANCH   4   5
BRANCH   4  18
HETATM   18  N3  UNL     1      27.316  -0.655  53.786  1.00  0.00    -0.271 N 
HETATM   19  C15 UNL     1      28.453   0.103  54.249  1.00  0.00     0.125 C 
HETATM   20  C16 UNL     1      29.606  -0.122  53.686  1.00  0.00    -0.006 C 
HETATM   21  C17 UNL     1      29.947  -1.387  53.514  1.00  0.00     0.034 C 
HETATM   22  C18 UNL     1      28.849  -2.237  53.004  1.00  0.00     0.140 C 
HETATM   23  N4  UNL     1      27.616  -1.857  53.151  1.00  0.00    -0.185 NA
ENDBRANCH   4  18
ENDBRANCH   3   4
TORSDOF 7
ENDMDL
MODEL 9
REMARK VINA RESULT:      -6.5      3.640      6.392
REMARK  7 active torsions:
REMARK  status: ('A' for Active; 'I' for Inactive)
REMARK    1  A    between atoms: C3_3  and  C4_4 
REMARK    2  A    between atoms: C4_4  and  C5_5 
REMARK    3  A    between atoms: C4_4  and  N3_17 
REMARK    4  A    between atoms: C6_6  and  C7_7 
REMARK    5  A    between atoms: C8_8  and  N1_9 
REMARK    6  A    between atoms: N1_9  and  C9_10 
REMARK    7  A    between atoms: C9_10  and  C10_11 
ROOT
HETATM    1  C1  UNL     1      22.707   5.617  51.679  1.00  0.00     0.091 C 
HETATM    2  C2  UNL     1      23.206   4.560  52.277  1.00  0.00    -0.174 C 
HETATM    3  C3  UNL     1      23.708   3.426  52.695  1.00  0.00     0.097 C 
ENDROOT
BRANCH   3   4
HETATM    4  C4  UNL     1      24.750   2.799  51.892  1.00  0.00     0.148 C 
BRANCH   4   5
HETATM    5  C5  UNL     1      24.248   2.602  50.508  1.00  0.00     0.001 C 
HETATM    6  C6  UNL     1      24.768   3.292  49.515  1.00  0.00    -0.001 C 
BRANCH   6   7
HETATM    7  C7  UNL     1      25.844   4.264  49.738  1.00  0.00     0.016 C 
HETATM    8  C8  UNL     1      25.702   5.538  49.439  1.00  0.00     0.083 C 
BRANCH   8   9
HETATM    9  N1  UNL     1      26.734   6.510  49.651  1.00  0.00    -0.393 N 
HETATM   10  H9  UNL     1      27.133   6.896  50.557  1.00  0.00     0.159 HD
BRANCH   9  11
HETATM   11  C9  UNL     1      27.248   6.980  48.362  1.00  0.00     0.178 C 
BRANCH  11  12
HETATM   12  C10 UNL     1      28.728   6.801  48.290  1.00  0.00     0.051 A 
HETATM   13  C11 UNL     1      29.248   5.543  48.054  1.00  0.00     0.029 A 
HETATM   14  C12 UNL     1      30.618   5.427  48.001  1.00  0.00     0.003 A 
HETATM   15  C13 UNL     1      31.401   6.551  48.181  1.00  0.00     0.019 A 
HETATM   16  C14 UNL     1      30.825   7.795  48.415  1.00  0.00     0.117 A 
HETATM   17  N2  UNL     1      29.482   7.898  48.466  1.00  0.00    -0.264 NA
ENDBRANCH  11  12
ENDBRANCH   9  11
ENDBRANCH   8   9
ENDBRANCH   6   7
ENDBRANCH   4   5
BRANCH   4  18
HETATM   18  N3  UNL     1      25.191   1.506  52.379  1.00  0.00    -0.271 N 
HETATM   19  C15 UNL     1      26.489   1.064  51.931  1.00  0.00     0.125 C 
HETATM   20  C16 UNL     1      26.742  -0.214  51.960  1.00  0.00    -0.006 C 
HETATM   21  C17 UNL     1      26.399  -0.863  53.060  1.00  0.00     0.034 C 
HETATM   22  C18 UNL     1      25.062  -0.499  53.575  1.00  0.00     0.140 C 
HETATM   23  N4  UNL     1      24.521   0.631  53.231  1.00  0.00    -0.185 NA
ENDBRANCH   4  18
ENDBRANCH   3   4
TORSDOF 7
ENDMDL
