MODEL 1
REMARK VINA RESULT:      -7.2      0.000      0.000
REMARK  7 active torsions:
REMARK  status: ('A' for Active; 'I' for Inactive)
REMARK    1  A    between atoms: O1_1  and  C1_2 
REMARK    2  A    between atoms: C2_3  and  C3_4 
REMARK    3  A    between atoms: C4_5  and  C5_6 
REMARK    4  A    between atoms: C5_6  and  C6_7 
REMARK    5  A    between atoms: C10_12  and  N2_13 
REMARK    6  A    between atoms: N2_13  and  C11_14 
REMARK    7  A    between atoms: C11_14  and  C12_15 
ROOT
HETATM    1  C6  UNL     1      23.889  -0.499  54.158  1.00  0.00    -0.011 A 
HETATM    2  C7  UNL     1      23.502  -1.305  55.201  1.00  0.00     0.126 A 
HETATM    3  N1  UNL     1      22.286  -1.822  55.331  1.00  0.00    -0.272 NA
HETATM    4  C8  UNL     1      21.359  -1.557  54.404  1.00  0.00     0.118 A 
HETATM    5  C9  UNL     1      21.727  -0.751  53.351  1.00  0.00     0.049 A 
HETATM    6  C10 UNL     1      22.969  -0.191  53.169  1.00  0.00     0.037 A 
ENDROOT
BRANCH   6   7
HETATM    7  N2  UNL     1      23.246   0.636  52.053  1.00  0.00    -0.385 N 
HETATM    8  H11 UNL     1      23.790   0.088  51.315  1.00  0.00     0.160 HD
BRANCH   7   9
HETATM    9  C11 UNL     1      23.008   1.985  51.658  1.00  0.00     0.158 C 
BRANCH   9  10
HETATM   10  C12 UNL     1      24.091   2.645  50.919  1.00  0.00    -0.041 A 
HETATM   11  C13 UNL     1      25.389   2.243  51.275  1.00  0.00     0.009 A 
HETATM   12  C14 UNL     1      26.550   2.720  50.705  1.00  0.00     0.001 A 
HETATM   13  C15 UNL     1      26.442   3.665  49.708  1.00  0.00     0.000 A 
HETATM   14  C16 UNL     1      25.192   4.090  49.327  1.00  0.00     0.001 A 
HETATM   15  C17 UNL     1      24.076   3.590  49.918  1.00  0.00     0.009 A 
ENDBRANCH   9  10
ENDBRANCH   7   9
ENDBRANCH   6   7
BRANCH   1  16
HETATM   16  C5  UNL     1      25.277   0.021  54.073  1.00  0.00     0.069 C 
BRANCH  16  17
HETATM   17  C4  UNL     1      26.210  -0.854  53.355  1.00  0.00    -0.022 C 
HETATM   18  C3  UNL     1      27.462  -0.572  53.033  1.00  0.00    -0.002 C 
BRANCH  18  19
HETATM   19  C2  UNL     1      28.171   0.663  53.323  1.00  0.00     0.023 C 
HETATM   20  C1  UNL     1      28.920   0.899  54.386  1.00  0.00     0.131 C 
BRANCH  20  21
HETATM   21  O1  UNL     1      29.588   2.083  54.644  1.00  0.00    -0.373 OA
HETATM   22  H1  UNL     1      29.069   2.899  54.888  1.00  0.00     0.216 HD
ENDBRANCH  20  21
ENDBRANCH  18  19
ENDBRANCH  16  17
ENDBRANCH   1  16
TORSDOF 7
ENDMDL
MODEL 2
REMARK VINA RESULT:      -7.2      1.465      2.247
REMARK  7 active torsions:
REMARK  status: ('A' for Active; 'I' for Inactive)
REMARK    1  A    between atoms: O1_1  and  C1_2 
REMARK    2  A    between atoms: C2_3  and  C3_4 
REMARK    3  A    between atoms: C4_5  and  C5_6 
REMARK    4  A    between atoms: C5_6  and  C6_7 
REMARK    5  A    between atoms: C10_12  and  N2_13 
REMARK    6  A    between atoms: N2_13  and  C11_14 
REMARK    7  A    between atoms: C11_14  and  C12_15 
ROOT
HETATM    1  C6  UNL     1      25.299   0.399  52.578  1.00  0.00    -0.011 A 
HETATM    2  C7  UNL     1      24.753  -0.525  53.437  1.00  0.00     0.126 A 
HETATM    3  N1  UNL     1      23.485  -0.519  53.828  1.00  0.00    -0.272 NA
HETATM    4  C8  UNL     1      22.663   0.435  53.373  1.00  0.00     0.118 A 
HETATM    5  C9  UNL     1      23.191   1.369  52.512  1.00  0.00     0.049 A 
HETATM    6  C10 UNL     1      24.493   1.409  52.077  1.00  0.00     0.037 A 
ENDROOT
BRANCH   6   7
HETATM    7  N2  UNL     1      24.943   2.422  51.195  1.00  0.00    -0.385 N 
HETATM    8  H11 UNL     1      25.906   2.772  51.497  1.00  0.00     0.160 HD
BRANCH   7   9
HETATM    9  C11 UNL     1      24.462   3.098  50.035  1.00  0.00     0.158 C 
BRANCH   9  10
HETATM   10  C12 UNL     1      25.320   4.163  49.502  1.00  0.00    -0.041 A 
HETATM   11  C13 UNL     1      26.665   3.805  49.307  1.00  0.00     0.009 A 
HETATM   12  C14 UNL     1      27.642   4.638  48.806  1.00  0.00     0.001 A 
HETATM   13  C15 UNL     1      27.285   5.925  48.468  1.00  0.00     0.000 A 
HETATM   14  C16 UNL     1      25.980   6.321  48.641  1.00  0.00     0.001 A 
HETATM   15  C17 UNL     1      25.052   5.462  49.138  1.00  0.00     0.009 A 
ENDBRANCH   9  10
ENDBRANCH   7   9
ENDBRANCH   6   7
BRANCH   1  16
HETATM   16  C5  UNL     1      26.724   0.310  52.171  1.00  0.00     0.069 C 
BRANCH  16  17
HETATM   17  C4  UNL     1      27.441  -0.845  52.721  1.00  0.00    -0.022 C 
HETATM   18  C3  UNL     1      28.596  -0.818  53.366  1.00  0.00    -0.002 C 
BRANCH  18  19
HETATM   19  C2  UNL     1      29.393   0.362  53.661  1.00  0.00     0.023 C 
HETATM   20  C1  UNL     1      29.057   1.343  54.482  1.00  0.00     0.131 C 
BRANCH  20  21
HETATM   21  O1  UNL     1      29.831   2.458  54.750  1.00  0.00    -0.373 OA
HETATM   22  H1  UNL     1      29.473   3.175  55.344  1.00  0.00     0.216 HD
ENDBRANCH  20  21
ENDBRANCH  18  19
ENDBRANCH  16  17
ENDBRANCH   1  16
TORSDOF 7
ENDMDL
MODEL 3
REMARK VINA RESULT:      -7.0      2.707      4.713
REMARK  7 active torsions:
REMARK  status: ('A' for Active; 'I' for Inactive)
REMARK    1  A    between atoms: O1_1  and  C1_2 
REMARK    2  A    between atoms: C2_3  and  C3_4 
REMARK    3  A    between atoms: C4_5  and  C5_6 
REMARK    4  A    between atoms: C5_6  and  C6_7 
REMARK    5  A    between atoms: C10_12  and  N2_13 
REMARK    6  A    between atoms: N2_13  and  C11_14 
REMARK    7  A    between atoms: C11_14  and  C12_15 
ROOT
HETATM    1  C6  UNL     1      26.048   1.433  53.550  1.00  0.00    -0.011 A 
HETATM    2  C7  UNL     1      26.318   0.524  54.544  1.00  0.00     0.126 A 
HETATM    3  N1  UNL     1      27.530   0.057  54.817  1.00  0.00    -0.272 NA
HETATM    4  C8  UNL     1      28.574   0.480  54.094  1.00  0.00     0.118 A 
HETATM    5  C9  UNL     1      28.324   1.390  53.093  1.00  0.00     0.049 A 
HETATM    6  C10 UNL     1      27.092   1.905  52.769  1.00  0.00     0.037 A 
ENDROOT
BRANCH   6   7
HETATM    7  N2  UNL     1      26.938   2.833  51.710  1.00  0.00    -0.385 N 
HETATM    8  H11 UNL     1      27.245   3.806  52.025  1.00  0.00     0.160 HD
BRANCH   7   9
HETATM    9  C11 UNL     1      26.479   2.822  50.360  1.00  0.00     0.158 C 
BRANCH   9  10
HETATM   10  C12 UNL     1      26.586   4.091  49.629  1.00  0.00    -0.041 A 
HETATM   11  C13 UNL     1      25.430   4.889  49.647  1.00  0.00     0.009 A 
HETATM   12  C14 UNL     1      25.308   6.121  49.040  1.00  0.00     0.001 A 
HETATM   13  C15 UNL     1      26.398   6.617  48.358  1.00  0.00     0.000 A 
HETATM   14  C16 UNL     1      27.551   5.871  48.313  1.00  0.00     0.001 A 
HETATM   15  C17 UNL     1      27.623   4.662  48.928  1.00  0.00     0.009 A 
ENDBRANCH   9  10
ENDBRANCH   7   9
ENDBRANCH   6   7
BRANCH   1  16
HETATM   16  C5  UNL     1      24.666   1.924  53.322  1.00  0.00     0.069 C 
BRANCH  16  17
HETATM   17  C4  UNL     1      23.883   1.118  52.380  1.00  0.00    -0.022 C 
HETATM   18  C3  UNL     1      23.033   0.153  52.689  1.00  0.00    -0.002 C 
BRANCH  18  19
HETATM   19  C2  UNL     1      22.700  -0.310  54.026  1.00  0.00     0.023 C 
HETATM   20  C1  UNL     1      23.301  -1.287  54.684  1.00  0.00     0.131 C 
BRANCH  20  21
HETATM   21  O1  UNL     1      22.969  -1.713  55.957  1.00  0.00    -0.373 OA
HETATM   22  H1  UNL     1      22.890  -1.047  56.695  1.00  0.00     0.216 HD
ENDBRANCH  20  21
ENDBRANCH  18  19
ENDBRANCH  16  17
ENDBRANCH   1  16
TORSDOF 7
ENDMDL
MODEL 4
REMARK VINA RESULT:      -6.9      1.799      4.210
REMARK  7 active torsions:
REMARK  status: ('A' for Active; 'I' for Inactive)
REMARK    1  A    between atoms: O1_1  and  C1_2 
REMARK    2  A    between atoms: C2_3  and  C3_4 
REMARK    3  A    between atoms: C4_5  and  C5_6 
REMARK    4  A    between atoms: C5_6  and  C6_7 
REMARK    5  A    between atoms: C10_12  and  N2_13 
REMARK    6  A    between atoms: N2_13  and  C11_14 
REMARK    7  A    between atoms: C11_14  and  C12_15 
ROOT
HETATM    1  C6  UNL     1      22.352   0.761  53.135  1.00  0.00    -0.011 A 
HETATM    2  C7  UNL     1      20.982   0.802  53.239  1.00  0.00     0.126 A 
HETATM    3  N1  UNL     1      20.250  -0.149  53.807  1.00  0.00    -0.272 NA
HETATM    4  C8  UNL     1      20.857  -1.225  54.319  1.00  0.00     0.118 A 
HETATM    5  C9  UNL     1      22.229  -1.285  54.226  1.00  0.00     0.049 A 
HETATM    6  C10 UNL     1      23.033  -0.332  53.649  1.00  0.00     0.037 A 
ENDROOT
BRANCH   6   7
HETATM    7  N2  UNL     1      24.439  -0.492  53.593  1.00  0.00    -0.385 N 
HETATM    8  H11 UNL     1      24.751  -0.662  52.586  1.00  0.00     0.160 HD
BRANCH   7   9
HETATM    9  C11 UNL     1      25.534  -0.497  54.506  1.00  0.00     0.158 C 
BRANCH   9  10
HETATM   10  C12 UNL     1      26.614   0.459  54.229  1.00  0.00    -0.041 A 
HETATM   11  C13 UNL     1      27.872   0.105  54.746  1.00  0.00     0.009 A 
HETATM   12  C14 UNL     1      29.026   0.845  54.596  1.00  0.00     0.001 A 
HETATM   13  C15 UNL     1      28.953   2.024  53.888  1.00  0.00     0.000 A 
HETATM   14  C16 UNL     1      27.743   2.411  53.363  1.00  0.00     0.001 A 
HETATM   15  C17 UNL     1      26.632   1.648  53.536  1.00  0.00     0.009 A 
ENDBRANCH   9  10
ENDBRANCH   7   9
ENDBRANCH   6   7
BRANCH   1  16
HETATM   16  C5  UNL     1      23.101   1.877  52.505  1.00  0.00     0.069 C 
BRANCH  16  17
HETATM   17  C4  UNL     1      22.961   1.954  51.047  1.00  0.00    -0.022 C 
HETATM   18  C3  UNL     1      23.797   2.543  50.207  1.00  0.00    -0.002 C 
BRANCH  18  19
HETATM   19  C2  UNL     1      25.027   3.235  50.556  1.00  0.00     0.023 C 
HETATM   20  C1  UNL     1      26.126   3.284  49.823  1.00  0.00     0.131 C 
BRANCH  20  21
HETATM   21  O1  UNL     1      27.288   3.948  50.173  1.00  0.00    -0.373 OA
HETATM   22  H1  UNL     1      28.045   3.439  50.577  1.00  0.00     0.216 HD
ENDBRANCH  20  21
ENDBRANCH  18  19
ENDBRANCH  16  17
ENDBRANCH   1  16
TORSDOF 7
ENDMDL
MODEL 5
REMARK VINA RESULT:      -6.9      2.794      5.443
REMARK  7 active torsions:
REMARK  status: ('A' for Active; 'I' for Inactive)
REMARK    1  A    between atoms: O1_1  and  C1_2 
REMARK    2  A    between atoms: C2_3  and  C3_4 
REMARK    3  A    between atoms: C4_5  and  C5_6 
REMARK    4  A    between atoms: C5_6  and  C6_7 
REMARK    5  A    between atoms: C10_12  and  N2_13 
REMARK    6  A    between atoms: N2_13  and  C11_14 
REMARK    7  A    between atoms: C11_14  and  C12_15 
ROOT
HETATM    1  C6  UNL     1      23.098   2.781  51.537  1.00  0.00    -0.011 A 
HETATM    2  C7  UNL     1      21.955   3.409  51.971  1.00  0.00     0.126 A 
HETATM    3  N1  UNL     1      21.794   4.726  51.999  1.00  0.00    -0.272 NA
HETATM    4  C8  UNL     1      22.790   5.517  51.584  1.00  0.00     0.118 A 
HETATM    5  C9  UNL     1      23.943   4.908  51.146  1.00  0.00     0.049 A 
HETATM    6  C10 UNL     1      24.162   3.553  51.096  1.00  0.00     0.037 A 
ENDROOT
BRANCH   6   7
HETATM    7  N2  UNL     1      25.392   3.022  50.635  1.00  0.00    -0.385 N 
HETATM    8  H11 UNL     1      25.383   2.943  49.570  1.00  0.00     0.160 HD
BRANCH   7   9
HETATM    9  C11 UNL     1      26.617   2.562  51.201  1.00  0.00     0.158 C 
BRANCH   9  10
HETATM   10  C12 UNL     1      26.503   1.565  52.273  1.00  0.00    -0.041 A 
HETATM   11  C13 UNL     1      26.639   0.228  51.863  1.00  0.00     0.009 A 
HETATM   12  C14 UNL     1      26.580  -0.866  52.698  1.00  0.00     0.001 A 
HETATM   13  C15 UNL     1      26.370  -0.645  54.042  1.00  0.00     0.000 A 
HETATM   14  C16 UNL     1      26.231   0.646  54.490  1.00  0.00     0.001 A 
HETATM   15  C17 UNL     1      26.297   1.694  53.628  1.00  0.00     0.009 A 
ENDBRANCH   9  10
ENDBRANCH   7   9
ENDBRANCH   6   7
BRANCH   1  16
HETATM   16  C5  UNL     1      23.191   1.300  51.515  1.00  0.00     0.069 C 
BRANCH  16  17
HETATM   17  C4  UNL     1      21.925   0.608  51.780  1.00  0.00    -0.022 C 
HETATM   18  C3  UNL     1      21.685  -0.239  52.767  1.00  0.00    -0.002 C 
BRANCH  18  19
HETATM   19  C2  UNL     1      22.625  -0.660  53.792  1.00  0.00     0.023 C 
HETATM   20  C1  UNL     1      22.325  -1.310  54.904  1.00  0.00     0.131 C 
BRANCH  20  21
HETATM   21  O1  UNL     1      23.235  -1.703  55.868  1.00  0.00    -0.373 OA
HETATM   22  H1  UNL     1      24.163  -1.952  55.599  1.00  0.00     0.216 HD
ENDBRANCH  20  21
ENDBRANCH  18  19
ENDBRANCH  16  17
ENDBRANCH   1  16
TORSDOF 7
ENDMDL
MODEL 6
REMARK VINA RESULT:      -6.8      2.747      6.003
REMARK  7 active torsions:
REMARK  status: ('A' for Active; 'I' for Inactive)
REMARK    1  A    between atoms: O1_1  and  C1_2 
REMARK    2  A    between atoms: C2_3  and  C3_4 
REMARK    3  A    between atoms: C4_5  and  C5_6 
REMARK    4  A    between atoms: C5_6  and  C6_7 
REMARK    5  A    between atoms: C10_12  and  N2_13 
REMARK    6  A    between atoms: N2_13  and  C11_14 
REMARK    7  A    between atoms: C11_14  and  C12_15 
ROOT
HETATM    1  C6  UNL     1      26.800   1.715  53.599  1.00  0.00    -0.011 A 
HETATM    2  C7  UNL     1      27.940   2.470  53.738  1.00  0.00     0.126 A 
HETATM    3  N1  UNL     1      29.099   1.995  54.177  1.00  0.00    -0.272 NA
HETATM    4  C8  UNL     1      29.193   0.704  54.513  1.00  0.00     0.118 A 
HETATM    5  C9  UNL     1      28.062  -0.070  54.382  1.00  0.00     0.049 A 
HETATM    6  C10 UNL     1      26.841   0.370  53.934  1.00  0.00     0.037 A 
ENDROOT
BRANCH   6   7
HETATM    7  N2  UNL     1      25.731  -0.506  53.844  1.00  0.00    -0.385 N 
HETATM    8  H11 UNL     1      25.735  -1.010  52.903  1.00  0.00     0.160 HD
BRANCH   7   9
HETATM    9  C11 UNL     1      24.621  -0.884  54.654  1.00  0.00     0.158 C 
BRANCH   9  10
HETATM   10  C12 UNL     1      23.290  -0.689  54.064  1.00  0.00    -0.041 A 
HETATM   11  C13 UNL     1      22.232  -1.294  54.762  1.00  0.00     0.009 A 
HETATM   12  C14 UNL     1      20.904  -1.231  54.398  1.00  0.00     0.001 A 
HETATM   13  C15 UNL     1      20.577  -0.524  53.262  1.00  0.00     0.000 A 
HETATM   14  C16 UNL     1      21.579   0.085  52.545  1.00  0.00     0.001 A 
HETATM   15  C17 UNL     1      22.875  -0.004  52.945  1.00  0.00     0.009 A 
ENDBRANCH   9  10
ENDBRANCH   7   9
ENDBRANCH   6   7
BRANCH   1  16
HETATM   16  C5  UNL     1      25.547   2.316  53.078  1.00  0.00     0.069 C 
BRANCH  16  17
HETATM   17  C4  UNL     1      25.433   2.311  51.616  1.00  0.00    -0.022 C 
HETATM   18  C3  UNL     1      24.481   2.885  50.900  1.00  0.00    -0.002 C 
BRANCH  18  19
HETATM   19  C2  UNL     1      23.349   3.639  51.414  1.00  0.00     0.023 C 
HETATM   20  C1  UNL     1      23.327   4.938  51.659  1.00  0.00     0.131 C 
BRANCH  20  21
HETATM   21  O1  UNL     1      22.239   5.638  52.149  1.00  0.00    -0.373 OA
HETATM   22  H1  UNL     1      22.255   5.985  53.084  1.00  0.00     0.216 HD
ENDBRANCH  20  21
ENDBRANCH  18  19
ENDBRANCH  16  17
ENDBRANCH   1  16
TORSDOF 7
ENDMDL
MODEL 7
REMARK VINA RESULT:      -6.7      2.618      6.235
REMARK  7 active torsions:
REMARK  status: ('A' for Active; 'I' for Inactive)
REMARK    1  A    between atoms: O1_1  and  C1_2 
REMARK    2  A    between atoms: C2_3  and  C3_4 
REMARK    3  A    between atoms: C4_5  and  C5_6 
REMARK    4  A    between atoms: C5_6  and  C6_7 
REMARK    5  A    between atoms: C10_12  and  N2_13 
REMARK    6  A    between atoms: N2_13  and  C11_14 
REMARK    7  A    between atoms: C11_14  and  C12_15 
ROOT
HETATM    1  C6  UNL     1      24.334   2.811  51.627  1.00  0.00    -0.011 A 
HETATM    2  C7  UNL     1      24.475   4.002  50.957  1.00  0.00     0.126 A 
HETATM    3  N1  UNL     1      25.553   4.340  50.260  1.00  0.00    -0.272 NA
HETATM    4  C8  UNL     1      26.581   3.487  50.187  1.00  0.00     0.118 A 
HETATM    5  C9  UNL     1      26.459   2.289  50.852  1.00  0.00     0.049 A 
HETATM    6  C10 UNL     1      25.369   1.890  51.587  1.00  0.00     0.037 A 
ENDROOT
BRANCH   6   7
HETATM    7  N2  UNL     1      25.344   0.636  52.244  1.00  0.00    -0.385 N 
HETATM    8  H11 UNL     1      24.792  -0.073  51.666  1.00  0.00     0.160 HD
BRANCH   7   9
HETATM    9  C11 UNL     1      25.840   0.073  53.457  1.00  0.00     0.158 C 
BRANCH   9  10
HETATM   10  C12 UNL     1      27.243  -0.358  53.446  1.00  0.00    -0.041 A 
HETATM   11  C13 UNL     1      28.168   0.605  53.885  1.00  0.00     0.009 A 
HETATM   12  C14 UNL     1      29.530   0.415  53.969  1.00  0.00     0.001 A 
HETATM   13  C15 UNL     1      30.037  -0.811  53.596  1.00  0.00     0.000 A 
HETATM   14  C16 UNL     1      29.171  -1.784  53.159  1.00  0.00     0.001 A 
HETATM   15  C17 UNL     1      27.834  -1.549  53.094  1.00  0.00     0.009 A 
ENDBRANCH   9  10
ENDBRANCH   7   9
ENDBRANCH   6   7
BRANCH   1  16
HETATM   16  C5  UNL     1      23.085   2.498  52.367  1.00  0.00     0.069 C 
BRANCH  16  17
HETATM   17  C4  UNL     1      22.139   1.653  51.631  1.00  0.00    -0.022 C 
HETATM   18  C3  UNL     1      21.577   0.538  52.068  1.00  0.00    -0.002 C 
BRANCH  18  19
HETATM   19  C2  UNL     1      21.781  -0.081  53.368  1.00  0.00     0.023 C 
HETATM   20  C1  UNL     1      21.065  -1.066  53.881  1.00  0.00     0.131 C 
BRANCH  20  21
HETATM   21  O1  UNL     1      21.275  -1.642  55.121  1.00  0.00    -0.373 OA
HETATM   22  H1  UNL     1      21.510  -2.609  55.182  1.00  0.00     0.216 HD
ENDBRANCH  20  21
ENDBRANCH  18  19
ENDBRANCH  16  17
ENDBRANCH   1  16
TORSDOF 7
ENDMDL
MODEL 8
REMARK VINA RESULT:      -6.6      2.557      5.294
REMARK  7 active torsions:
REMARK  status: ('A' for Active; 'I' for Inactive)
REMARK    1  A    between atoms: O1_1  and  C1_2 
REMARK    2  A    between atoms: C2_3  and  C3_4 
REMARK    3  A    between atoms: C4_5  and  C5_6 
REMARK    4  A    between atoms: C5_6  and  C6_7 
REMARK    5  A    between atoms: C10_12  and  N2_13 
REMARK    6  A    between atoms: N2_13  and  C11_14 
REMARK    7  A    between atoms: C11_14  and  C12_15 
ROOT
HETATM    1  C6  UNL     1      22.420   0.931  52.984  1.00  0.00    -0.011 A 
HETATM    2  C7  UNL     1      21.112   0.891  53.403  1.00  0.00     0.126 A 
HETATM    3  N1  UNL     1      20.612  -0.051  54.193  1.00  0.00    -0.272 NA
HETATM    4  C8  UNL     1      21.409  -1.037  54.623  1.00  0.00     0.118 A 
HETATM    5  C9  UNL     1      22.722  -1.015  54.214  1.00  0.00     0.049 A 
HETATM    6  C10 UNL     1      23.290  -0.066  53.399  1.00  0.00     0.037 A 
ENDROOT
BRANCH   6   7
HETATM    7  N2  UNL     1      24.654  -0.138  53.025  1.00  0.00    -0.385 N 
HETATM    8  H11 UNL     1      24.762  -0.718  52.134  1.00  0.00     0.160 HD
BRANCH   7   9
HETATM    9  C11 UNL     1      25.906   0.338  53.515  1.00  0.00     0.158 C 
BRANCH   9  10
HETATM   10  C12 UNL     1      27.049  -0.572  53.366  1.00  0.00    -0.041 A 
HETATM   11  C13 UNL     1      28.284  -0.054  53.790  1.00  0.00     0.009 A 
HETATM   12  C14 UNL     1      29.482  -0.734  53.755  1.00  0.00     0.001 A 
HETATM   13  C15 UNL     1      29.482  -2.022  53.266  1.00  0.00     0.000 A 
HETATM   14  C16 UNL     1      28.297  -2.572  52.840  1.00  0.00     0.001 A 
HETATM   15  C17 UNL     1      27.140  -1.862  52.895  1.00  0.00     0.009 A 
ENDBRANCH   9  10
ENDBRANCH   7   9
ENDBRANCH   6   7
BRANCH   1  16
HETATM   16  C5  UNL     1      22.909   2.033  52.118  1.00  0.00     0.069 C 
BRANCH  16  17
HETATM   17  C4  UNL     1      21.849   2.790  51.443  1.00  0.00    -0.022 C 
HETATM   18  C3  UNL     1      21.683   4.102  51.468  1.00  0.00    -0.002 C 
BRANCH  18  19
HETATM   19  C2  UNL     1      22.517   5.066  52.168  1.00  0.00     0.023 C 
HETATM   20  C1  UNL     1      23.605   5.645  51.692  1.00  0.00     0.131 C 
BRANCH  20  21
HETATM   21  O1  UNL     1      24.386   6.560  52.375  1.00  0.00    -0.373 OA
HETATM   22  H1  UNL     1      24.208   6.737  53.340  1.00  0.00     0.216 HD
ENDBRANCH  20  21
ENDBRANCH  18  19
ENDBRANCH  16  17
ENDBRANCH   1  16
TORSDOF 7
ENDMDL
MODEL 9
REMARK VINA RESULT:      -6.6      3.575      6.015
REMARK  7 active torsions:
REMARK  status: ('A' for Active; 'I' for Inactive)
REMARK    1  A    between atoms: O1_1  and  C1_2 
REMARK    2  A    between atoms: C2_3  and  C3_4 
REMARK    3  A    between atoms: C4_5  and  C5_6 
REMARK    4  A    between atoms: C5_6  and  C6_7 
REMARK    5  A    between atoms: C10_12  and  N2_13 
REMARK    6  A    between atoms: N2_13  and  C11_14 
REMARK    7  A    between atoms: C11_14  and  C12_15 
ROOT
HETATM    1  C6  UNL     1      22.292  -0.594  53.196  1.00  0.00    -0.011 A 
HETATM    2  C7  UNL     1      21.555  -1.292  54.123  1.00  0.00     0.126 A 
HETATM    3  N1  UNL     1      22.039  -1.733  55.278  1.00  0.00    -0.272 NA
HETATM    4  C8  UNL     1      23.320  -1.498  55.584  1.00  0.00     0.118 A 
HETATM    5  C9  UNL     1      24.074  -0.801  54.669  1.00  0.00     0.049 A 
HETATM    6  C10 UNL     1      23.625  -0.323  53.462  1.00  0.00     0.037 A 
ENDROOT
BRANCH   6   7
HETATM    7  N2  UNL     1      24.486   0.377  52.581  1.00  0.00    -0.385 N 
HETATM    8  H11 UNL     1      24.181   0.224  51.569  1.00  0.00     0.160 HD
BRANCH   7   9
HETATM    9  C11 UNL     1      25.639   1.209  52.678  1.00  0.00     0.158 C 
BRANCH   9  10
HETATM   10  C12 UNL     1      26.911   0.527  52.948  1.00  0.00    -0.041 A 
HETATM   11  C13 UNL     1      27.943   1.353  53.426  1.00  0.00     0.009 A 
HETATM   12  C14 UNL     1      29.210   0.926  53.756  1.00  0.00     0.001 A 
HETATM   13  C15 UNL     1      29.502  -0.413  53.610  1.00  0.00     0.000 A 
HETATM   14  C16 UNL     1      28.525  -1.259  53.145  1.00  0.00     0.001 A 
HETATM   15  C17 UNL     1      27.288  -0.792  52.833  1.00  0.00     0.009 A 
ENDBRANCH   9  10
ENDBRANCH   7   9
ENDBRANCH   6   7
BRANCH   1  16
HETATM   16  C5  UNL     1      21.671  -0.115  51.935  1.00  0.00     0.069 C 
BRANCH  16  17
HETATM   17  C4  UNL     1      20.734   1.001  52.106  1.00  0.00    -0.022 C 
HETATM   18  C3  UNL     1      19.415   0.920  52.149  1.00  0.00    -0.002 C 
BRANCH  18  19
HETATM   19  C2  UNL     1      18.620  -0.292  52.035  1.00  0.00     0.023 C 
HETATM   20  C1  UNL     1      18.027  -0.931  53.029  1.00  0.00     0.131 C 
BRANCH  20  21
HETATM   21  O1  UNL     1      17.273  -2.084  52.899  1.00  0.00    -0.373 OA
HETATM   22  H1  UNL     1      16.863  -2.308  52.019  1.00  0.00     0.216 HD
ENDBRANCH  20  21
ENDBRANCH  18  19
ENDBRANCH  16  17
ENDBRANCH   1  16
TORSDOF 7
ENDMDL
