MODEL 1
REMARK VINA RESULT:      -8.3      0.000      0.000
REMARK  6 active torsions:
REMARK  status: ('A' for Active; 'I' for Inactive)
REMARK    1  A    between atoms: C2_2  and  C4_4 
REMARK    2  A    between atoms: C5_5  and  C6_6 
REMARK    3  A    between atoms: C6_6  and  C7_7 
REMARK    4  A    between atoms: C7_7  and  N1_8 
REMARK    5  A    between atoms: N1_8  and  C8_9 
REMARK    6  A    between atoms: C10_12  and  N3_13 
ROOT
HETATM    1  C8  UNL     1      24.001   1.957  51.336  1.00  0.00     0.110 C 
HETATM    2  N2  UNL     1      24.278   0.893  51.944  1.00  0.00    -0.245 NA
HETATM    3  C9  UNL     1      25.394   0.645  52.749  1.00  0.00     0.147 C 
HETATM    4  C10 UNL     1      24.992  -0.168  53.764  1.00  0.00     0.043 C 
HETATM    5  C11 UNL     1      23.656  -0.636  54.136  1.00  0.00     0.030 C 
HETATM    6  C12 UNL     1      22.541  -1.165  54.627  1.00  0.00     0.003 C 
HETATM    7  C13 UNL     1      21.105  -1.193  54.411  1.00  0.00     0.011 C 
HETATM    8  C14 UNL     1      20.465  -0.557  53.469  1.00  0.00     0.060 C 
HETATM    9  N4  UNL     1      20.974   0.317  52.418  1.00  0.00    -0.263 NA
HETATM   10  C15 UNL     1      20.881   1.769  52.237  1.00  0.00     0.225 C 
HETATM   11  O1  UNL     1      20.356   2.743  52.949  1.00  0.00    -0.204 OA
HETATM   12  C16 UNL     1      21.478   2.253  51.003  1.00  0.00     0.154 C 
HETATM   13  N5  UNL     1      21.553   3.723  51.047  1.00  0.00    -0.351 N 
HETATM   14  C17 UNL     1      22.333   4.041  49.869  1.00  0.00     0.218 C 
HETATM   15  O2  UNL     1      22.386   5.201  49.454  1.00  0.00    -0.274 OA
HETATM   16  C18 UNL     1      23.014   2.816  49.297  1.00  0.00     0.117 C 
HETATM   17  C19 UNL     1      22.808   1.892  50.541  1.00  0.00     0.091 C 
HETATM   18  H18 UNL     1      20.462   0.766  53.183  1.00  0.00     0.130 HD
HETATM   19  H20 UNL     1      21.157   4.398  51.730  1.00  0.00     0.163 HD
ENDROOT
BRANCH   1  20
HETATM   20  N1  UNL     1      24.900   3.098  51.434  1.00  0.00    -0.354 N 
HETATM   21  H10 UNL     1      24.681   3.730  52.271  1.00  0.00     0.166 HD
BRANCH  20  22
HETATM   22  C7  UNL     1      25.949   3.277  50.460  1.00  0.00     0.089 C 
BRANCH  22  23
HETATM   23  C6  UNL     1      26.320   4.268  49.708  1.00  0.00     0.017 C 
BRANCH  23  24
HETATM   24  C5  UNL     1      26.452   5.494  48.971  1.00  0.00     0.002 C 
HETATM   25  C4  UNL     1      27.168   6.336  48.296  1.00  0.00     0.002 C 
BRANCH  25  26
HETATM   26  C2  UNL     1      28.559   6.274  47.968  1.00  0.00    -0.084 C 
HETATM   27  C1  UNL     1      28.936   7.348  47.277  1.00  0.00     0.038 C 
HETATM   28  C3  UNL     1      29.785   5.472  48.109  1.00  0.00     0.043 C 
ENDBRANCH  25  26
ENDBRANCH  23  24
ENDBRANCH  22  23
ENDBRANCH  20  22
ENDBRANCH   1  20
BRANCH   4  29
HETATM   29  N3  UNL     1      25.494  -0.834  54.917  1.00  0.00    -0.398 N 
HETATM   30  H12 UNL     1      25.680  -0.304  55.824  1.00  0.00     0.156 HD
HETATM   31  H13 UNL     1      25.751  -1.796  55.136  1.00  0.00     0.156 HD
ENDBRANCH   4  29
TORSDOF 6
ENDMDL
MODEL 2
REMARK VINA RESULT:      -8.3      2.814      4.137
REMARK  6 active torsions:
REMARK  status: ('A' for Active; 'I' for Inactive)
REMARK    1  A    between atoms: C2_2  and  C4_4 
REMARK    2  A    between atoms: C5_5  and  C6_6 
REMARK    3  A    between atoms: C6_6  and  C7_7 
REMARK    4  A    between atoms: C7_7  and  N1_8 
REMARK    5  A    between atoms: N1_8  and  C8_9 
REMARK    6  A    between atoms: C10_12  and  N3_13 
ROOT
HETATM    1  C8  UNL     1      23.913   1.642  52.245  1.00  0.00     0.110 C 
HETATM    2  N2  UNL     1      23.763   0.495  52.736  1.00  0.00    -0.245 NA
HETATM    3  C9  UNL     1      24.459  -0.061  53.813  1.00  0.00     0.147 C 
HETATM    4  C10 UNL     1      23.587  -0.848  54.500  1.00  0.00     0.043 C 
HETATM    5  C11 UNL     1      22.145  -1.039  54.335  1.00  0.00     0.030 C 
HETATM    6  C12 UNL     1      20.853  -1.347  54.344  1.00  0.00     0.003 C 
HETATM    7  C13 UNL     1      19.606  -1.037  53.668  1.00  0.00     0.011 C 
HETATM    8  C14 UNL     1      19.465  -0.197  52.680  1.00  0.00     0.060 C 
HETATM    9  N4  UNL     1      20.459   0.628  52.004  1.00  0.00    -0.263 NA
HETATM   10  C15 UNL     1      20.696   2.074  52.031  1.00  0.00     0.225 C 
HETATM   11  O1  UNL     1      20.137   3.076  52.676  1.00  0.00    -0.204 OA
HETATM   12  C16 UNL     1      21.767   2.517  51.154  1.00  0.00     0.154 C 
HETATM   13  N5  UNL     1      22.083   3.924  51.449  1.00  0.00    -0.351 N 
HETATM   14  C17 UNL     1      23.273   4.160  50.657  1.00  0.00     0.218 C 
HETATM   15  O2  UNL     1      23.675   5.311  50.469  1.00  0.00    -0.274 OA
HETATM   16  C18 UNL     1      23.881   2.869  50.155  1.00  0.00     0.117 C 
HETATM   17  C19 UNL     1      23.087   1.911  51.103  1.00  0.00     0.091 C 
HETATM   18  H18 UNL     1      19.799   1.112  52.619  1.00  0.00     0.130 HD
HETATM   19  H20 UNL     1      21.598   4.610  52.061  1.00  0.00     0.163 HD
ENDROOT
BRANCH   1  20
HETATM   20  N1  UNL     1      24.909   2.543  52.810  1.00  0.00    -0.354 N 
HETATM   21  H10 UNL     1      24.493   3.231  53.519  1.00  0.00     0.166 HD
BRANCH  20  22
HETATM   22  C7  UNL     1      26.288   2.446  52.398  1.00  0.00     0.089 C 
BRANCH  22  23
HETATM   23  C6  UNL     1      27.392   2.146  53.011  1.00  0.00     0.017 C 
BRANCH  23  24
HETATM   24  C5  UNL     1      28.634   1.585  53.466  1.00  0.00     0.002 C 
HETATM   25  C4  UNL     1      29.401   0.565  53.685  1.00  0.00     0.002 C 
BRANCH  25  26
HETATM   26  C2  UNL     1      29.138  -0.823  53.459  1.00  0.00    -0.084 C 
HETATM   27  C1  UNL     1      30.191  -1.569  53.788  1.00  0.00     0.038 C 
HETATM   28  C3  UNL     1      28.125  -1.789  53.005  1.00  0.00     0.043 C 
ENDBRANCH  25  26
ENDBRANCH  23  24
ENDBRANCH  22  23
ENDBRANCH  20  22
ENDBRANCH   1  20
BRANCH   4  29
HETATM   29  N3  UNL     1      23.522  -1.704  55.635  1.00  0.00    -0.398 N 
HETATM   30  H12 UNL     1      24.384  -2.227  55.984  1.00  0.00     0.156 HD
HETATM   31  H13 UNL     1      22.786  -1.982  56.284  1.00  0.00     0.156 HD
ENDBRANCH   4  29
TORSDOF 6
ENDMDL
MODEL 3
REMARK VINA RESULT:      -8.0      3.075      4.511
REMARK  6 active torsions:
REMARK  status: ('A' for Active; 'I' for Inactive)
REMARK    1  A    between atoms: C2_2  and  C4_4 
REMARK    2  A    between atoms: C5_5  and  C6_6 
REMARK    3  A    between atoms: C6_6  and  C7_7 
REMARK    4  A    between atoms: C7_7  and  N1_8 
REMARK    5  A    between atoms: N1_8  and  C8_9 
REMARK    6  A    between atoms: C10_12  and  N3_13 
ROOT
HETATM    1  C8  UNL     1      22.846   1.740  51.367  1.00  0.00     0.110 C 
HETATM    2  N2  UNL     1      22.397   0.696  51.904  1.00  0.00    -0.245 NA
HETATM    3  C9  UNL     1      22.678   0.216  53.186  1.00  0.00     0.147 C 
HETATM    4  C10 UNL     1      21.544  -0.364  53.663  1.00  0.00     0.043 C 
HETATM    5  C11 UNL     1      20.191  -0.408  53.105  1.00  0.00     0.030 C 
HETATM    6  C12 UNL     1      18.916  -0.562  52.768  1.00  0.00     0.003 C 
HETATM    7  C13 UNL     1      17.964  -0.207  51.731  1.00  0.00     0.011 C 
HETATM    8  C14 UNL     1      18.227   0.500  50.667  1.00  0.00     0.060 C 
HETATM    9  N4  UNL     1      19.480   1.105  50.232  1.00  0.00    -0.263 NA
HETATM   10  C15 UNL     1      19.913   2.505  50.184  1.00  0.00     0.225 C 
HETATM   11  O1  UNL     1      19.354   3.643  50.536  1.00  0.00    -0.204 OA
HETATM   12  C16 UNL     1      21.238   2.697  49.617  1.00  0.00     0.154 C 
HETATM   13  N5  UNL     1      21.666   4.086  49.852  1.00  0.00    -0.351 N 
HETATM   14  C17 UNL     1      23.049   4.074  49.421  1.00  0.00     0.218 C 
HETATM   15  O2  UNL     1      23.655   5.134  49.246  1.00  0.00    -0.274 OA
HETATM   16  C18 UNL     1      23.572   2.664  49.248  1.00  0.00     0.117 C 
HETATM   17  C19 UNL     1      22.415   1.943  50.013  1.00  0.00     0.091 C 
HETATM   18  H18 UNL     1      18.755   1.742  50.577  1.00  0.00     0.130 HD
HETATM   19  H20 UNL     1      21.140   4.900  50.225  1.00  0.00     0.163 HD
ENDROOT
BRANCH   1  20
HETATM   20  N1  UNL     1      23.770   2.590  52.106  1.00  0.00    -0.354 N 
HETATM   21  H10 UNL     1      23.273   3.354  52.669  1.00  0.00     0.166 HD
BRANCH  20  22
HETATM   22  C7  UNL     1      25.190   2.351  52.027  1.00  0.00     0.089 C 
BRANCH  22  23
HETATM   23  C6  UNL     1      25.920   1.280  51.955  1.00  0.00     0.017 C 
BRANCH  23  24
HETATM   24  C5  UNL     1      26.508  -0.025  52.076  1.00  0.00     0.002 C 
HETATM   25  C4  UNL     1      27.362  -0.835  52.616  1.00  0.00     0.002 C 
BRANCH  25  26
HETATM   26  C2  UNL     1      28.343  -0.568  53.623  1.00  0.00    -0.084 C 
HETATM   27  C1  UNL     1      29.488  -1.192  53.352  1.00  0.00     0.038 C 
HETATM   28  C3  UNL     1      28.602   0.161  54.875  1.00  0.00     0.043 C 
ENDBRANCH  25  26
ENDBRANCH  23  24
ENDBRANCH  22  23
ENDBRANCH  20  22
ENDBRANCH   1  20
BRANCH   4  29
HETATM   29  N3  UNL     1      21.042  -1.043  54.809  1.00  0.00    -0.398 N 
HETATM   30  H12 UNL     1      21.469  -0.889  55.774  1.00  0.00     0.156 HD
HETATM   31  H13 UNL     1      20.293  -1.714  54.976  1.00  0.00     0.156 HD
ENDBRANCH   4  29
TORSDOF 6
ENDMDL
MODEL 4
REMARK VINA RESULT:      -8.0      2.691      4.382
REMARK  6 active torsions:
REMARK  status: ('A' for Active; 'I' for Inactive)
REMARK    1  A    between atoms: C2_2  and  C4_4 
REMARK    2  A    between atoms: C5_5  and  C6_6 
REMARK    3  A    between atoms: C6_6  and  C7_7 
REMARK    4  A    between atoms: C7_7  and  N1_8 
REMARK    5  A    between atoms: N1_8  and  C8_9 
REMARK    6  A    between atoms: C10_12  and  N3_13 
ROOT
HETATM    1  C8  UNL     1      25.344   1.821  52.271  1.00  0.00     0.110 C 
HETATM    2  N2  UNL     1      24.088   1.794  52.221  1.00  0.00    -0.245 NA
HETATM    3  C9  UNL     1      23.284   1.929  51.085  1.00  0.00     0.147 C 
HETATM    4  C10 UNL     1      22.203   1.120  51.251  1.00  0.00     0.043 C 
HETATM    5  C11 UNL     1      21.901   0.139  52.295  1.00  0.00     0.030 C 
HETATM    6  C12 UNL     1      21.447  -0.782  53.138  1.00  0.00     0.003 C 
HETATM    7  C13 UNL     1      21.812  -1.489  54.352  1.00  0.00     0.011 C 
HETATM    8  C14 UNL     1      22.918  -1.326  55.024  1.00  0.00     0.060 C 
HETATM    9  N4  UNL     1      24.046  -0.439  54.767  1.00  0.00    -0.263 NA
HETATM   10  C15 UNL     1      25.411  -0.716  54.306  1.00  0.00     0.225 C 
HETATM   11  O1  UNL     1      26.045  -1.812  53.948  1.00  0.00    -0.204 OA
HETATM   12  C16 UNL     1      26.264   0.459  54.236  1.00  0.00     0.154 C 
HETATM   13  N5  UNL     1      27.507   0.110  53.529  1.00  0.00    -0.351 N 
HETATM   14  C17 UNL     1      28.154   1.396  53.364  1.00  0.00     0.218 C 
HETATM   15  O2  UNL     1      29.340   1.456  53.027  1.00  0.00    -0.274 OA
HETATM   16  C18 UNL     1      27.207   2.543  53.641  1.00  0.00     0.117 C 
HETATM   17  C19 UNL     1      25.887   1.707  53.594  1.00  0.00     0.091 C 
HETATM   18  H18 UNL     1      24.198  -1.438  54.599  1.00  0.00     0.130 HD
HETATM   19  H20 UNL     1      27.869  -0.811  53.216  1.00  0.00     0.163 HD
ENDROOT
BRANCH   1  20
HETATM   20  N1  UNL     1      26.109   2.016  51.048  1.00  0.00    -0.354 N 
HETATM   21  H10 UNL     1      26.669   1.148  50.763  1.00  0.00     0.166 HD
BRANCH  20  22
HETATM   22  C7  UNL     1      26.058   3.282  50.358  1.00  0.00     0.089 C 
BRANCH  22  23
HETATM   23  C6  UNL     1      26.844   3.881  49.516  1.00  0.00     0.017 C 
BRANCH  23  24
HETATM   24  C5  UNL     1      27.585   4.810  48.708  1.00  0.00     0.002 C 
HETATM   25  C4  UNL     1      27.802   6.013  48.279  1.00  0.00     0.002 C 
BRANCH  25  26
HETATM   26  C2  UNL     1      27.104   7.220  48.597  1.00  0.00    -0.084 C 
HETATM   27  C1  UNL     1      26.455   7.692  47.533  1.00  0.00     0.038 C 
HETATM   28  C3  UNL     1      26.797   8.175  49.674  1.00  0.00     0.043 C 
ENDBRANCH  25  26
ENDBRANCH  23  24
ENDBRANCH  22  23
ENDBRANCH  20  22
ENDBRANCH   1  20
BRANCH   4  29
HETATM   29  N3  UNL     1      21.004   0.722  50.596  1.00  0.00    -0.398 N 
HETATM   30  H12 UNL     1      21.029   0.209  49.661  1.00  0.00     0.156 HD
HETATM   31  H13 UNL     1      20.010   0.801  50.807  1.00  0.00     0.156 HD
ENDBRANCH   4  29
TORSDOF 6
ENDMDL
MODEL 5
REMARK VINA RESULT:      -7.7      2.943      6.812
REMARK  6 active torsions:
REMARK  status: ('A' for Active; 'I' for Inactive)
REMARK    1  A    between atoms: C2_2  and  C4_4 
REMARK    2  A    between atoms: C5_5  and  C6_6 
REMARK    3  A    between atoms: C6_6  and  C7_7 
REMARK    4  A    between atoms: C7_7  and  N1_8 
REMARK    5  A    between atoms: N1_8  and  C8_9 
REMARK    6  A    between atoms: C10_12  and  N3_13 
ROOT
HETATM    1  C8  UNL     1      24.552   4.353  50.965  1.00  0.00     0.110 C 
HETATM    2  N2  UNL     1      24.875   5.459  50.463  1.00  0.00    -0.245 NA
HETATM    3  C9  UNL     1      25.722   5.678  49.373  1.00  0.00     0.147 C 
HETATM    4  C10 UNL     1      25.237   6.749  48.688  1.00  0.00     0.043 C 
HETATM    5  C11 UNL     1      24.001   7.512  48.867  1.00  0.00     0.030 C 
HETATM    6  C12 UNL     1      22.947   8.321  48.869  1.00  0.00     0.003 C 
HETATM    7  C13 UNL     1      21.692   8.550  49.563  1.00  0.00     0.011 C 
HETATM    8  C14 UNL     1      21.234   7.846  50.561  1.00  0.00     0.060 C 
HETATM    9  N4  UNL     1      21.815   6.690  51.233  1.00  0.00    -0.263 NA
HETATM   10  C15 UNL     1      21.442   5.272  51.219  1.00  0.00     0.225 C 
HETATM   11  O1  UNL     1      20.513   4.583  50.591  1.00  0.00    -0.204 OA
HETATM   12  C16 UNL     1      22.251   4.436  52.089  1.00  0.00     0.154 C 
HETATM   13  N5  UNL     1      21.961   3.020  51.804  1.00  0.00    -0.351 N 
HETATM   14  C17 UNL     1      22.962   2.323  52.586  1.00  0.00     0.218 C 
HETATM   15  O2  UNL     1      22.863   1.109  52.781  1.00  0.00    -0.274 OA
HETATM   16  C18 UNL     1      24.052   3.257  53.067  1.00  0.00     0.117 C 
HETATM   17  C19 UNL     1      23.704   4.450  52.119  1.00  0.00     0.091 C 
HETATM   18  H18 UNL     1      21.006   6.514  50.631  1.00  0.00     0.130 HD
HETATM   19  H20 UNL     1      21.230   2.589  51.205  1.00  0.00     0.163 HD
ENDROOT
BRANCH   1  20
HETATM   20  N1  UNL     1      25.085   3.122  50.398  1.00  0.00    -0.354 N 
HETATM   21  H10 UNL     1      24.497   2.750  49.583  1.00  0.00     0.166 HD
BRANCH  20  22
HETATM   22  C7  UNL     1      26.285   2.537  50.943  1.00  0.00     0.089 C 
BRANCH  22  23
HETATM   23  C6  UNL     1      26.602   1.345  51.350  1.00  0.00     0.017 C 
BRANCH  23  24
HETATM   24  C5  UNL     1      26.681   0.053  51.972  1.00  0.00     0.002 C 
HETATM   25  C4  UNL     1      27.236  -0.770  52.805  1.00  0.00     0.002 C 
BRANCH  25  26
HETATM   26  C2  UNL     1      28.355  -0.555  53.669  1.00  0.00    -0.084 C 
HETATM   27  C1  UNL     1      29.337  -1.414  53.403  1.00  0.00     0.038 C 
HETATM   28  C3  UNL     1      28.876   0.278  54.765  1.00  0.00     0.043 C 
ENDBRANCH  25  26
ENDBRANCH  23  24
ENDBRANCH  22  23
ENDBRANCH  20  22
ENDBRANCH   1  20
BRANCH   4  29
HETATM   29  N3  UNL     1      25.510   7.552  47.545  1.00  0.00    -0.398 N 
HETATM   30  H12 UNL     1      26.376   7.382  46.945  1.00  0.00     0.156 HD
HETATM   31  H13 UNL     1      25.043   8.335  47.089  1.00  0.00     0.156 HD
ENDBRANCH   4  29
TORSDOF 6
ENDMDL
MODEL 6
REMARK VINA RESULT:      -7.5      2.223      4.127
REMARK  6 active torsions:
REMARK  status: ('A' for Active; 'I' for Inactive)
REMARK    1  A    between atoms: C2_2  and  C4_4 
REMARK    2  A    between atoms: C5_5  and  C6_6 
REMARK    3  A    between atoms: C6_6  and  C7_7 
REMARK    4  A    between atoms: C7_7  and  N1_8 
REMARK    5  A    between atoms: N1_8  and  C8_9 
REMARK    6  A    between atoms: C10_12  and  N3_13 
ROOT
HETATM    1  C8  UNL     1      24.214   1.795  51.591  1.00  0.00     0.110 C 
HETATM    2  N2  UNL     1      23.233   2.221  50.932  1.00  0.00    -0.245 NA
HETATM    3  C9  UNL     1      23.191   2.506  49.564  1.00  0.00     0.147 C 
HETATM    4  C10 UNL     1      21.952   2.171  49.115  1.00  0.00     0.043 C 
HETATM    5  C11 UNL     1      20.844   1.497  49.794  1.00  0.00     0.030 C 
HETATM    6  C12 UNL     1      19.734   0.910  50.229  1.00  0.00     0.003 C 
HETATM    7  C13 UNL     1      19.176   0.266  51.405  1.00  0.00     0.011 C 
HETATM    8  C14 UNL     1      19.792   0.092  52.542  1.00  0.00     0.060 C 
HETATM    9  N4  UNL     1      21.141   0.471  52.942  1.00  0.00    -0.263 NA
HETATM   10  C15 UNL     1      22.342  -0.335  53.184  1.00  0.00     0.225 C 
HETATM   11  O1  UNL     1      22.608  -1.620  53.093  1.00  0.00    -0.204 OA
HETATM   12  C16 UNL     1      23.491   0.431  53.636  1.00  0.00     0.154 C 
HETATM   13  N5  UNL     1      24.688  -0.426  53.600  1.00  0.00    -0.351 N 
HETATM   14  C17 UNL     1      25.761   0.507  53.877  1.00  0.00     0.218 C 
HETATM   15  O2  UNL     1      26.885   0.092  54.168  1.00  0.00    -0.274 OA
HETATM   16  C18 UNL     1      25.304   1.944  53.750  1.00  0.00     0.117 C 
HETATM   17  C19 UNL     1      23.967   1.647  52.997  1.00  0.00     0.091 C 
HETATM   18  H18 UNL     1      20.969  -0.527  52.788  1.00  0.00     0.130 HD
HETATM   19  H20 UNL     1      24.781  -1.446  53.428  1.00  0.00     0.163 HD
ENDROOT
BRANCH   1  20
HETATM   20  N1  UNL     1      25.483   1.553  50.918  1.00  0.00    -0.354 N 
HETATM   21  H10 UNL     1      25.584   0.545  50.569  1.00  0.00     0.166 HD
BRANCH  20  22
HETATM   22  C7  UNL     1      26.443   2.621  50.782  1.00  0.00     0.089 C 
BRANCH  22  23
HETATM   23  C6  UNL     1      26.421   3.784  50.205  1.00  0.00     0.017 C 
BRANCH  23  24
HETATM   24  C5  UNL     1      26.266   4.907  49.322  1.00  0.00     0.002 C 
HETATM   25  C4  UNL     1      26.768   5.803  48.534  1.00  0.00     0.002 C 
BRANCH  25  26
HETATM   26  C2  UNL     1      28.137   6.026  48.182  1.00  0.00    -0.084 C 
HETATM   27  C1  UNL     1      28.300   7.229  47.634  1.00  0.00     0.038 C 
HETATM   28  C3  UNL     1      29.486   5.438  48.199  1.00  0.00     0.043 C 
ENDBRANCH  25  26
ENDBRANCH  23  24
ENDBRANCH  22  23
ENDBRANCH  20  22
ENDBRANCH   1  20
BRANCH   4  29
HETATM   29  N3  UNL     1      21.167   2.163  47.928  1.00  0.00    -0.398 N 
HETATM   30  H12 UNL     1      21.487   2.675  47.049  1.00  0.00     0.156 HD
HETATM   31  H13 UNL     1      20.276   1.745  47.658  1.00  0.00     0.156 HD
ENDBRANCH   4  29
TORSDOF 6
ENDMDL
MODEL 7
REMARK VINA RESULT:      -7.2      8.806     12.161
REMARK  6 active torsions:
REMARK  status: ('A' for Active; 'I' for Inactive)
REMARK    1  A    between atoms: C2_2  and  C4_4 
REMARK    2  A    between atoms: C5_5  and  C6_6 
REMARK    3  A    between atoms: C6_6  and  C7_7 
REMARK    4  A    between atoms: C7_7  and  N1_8 
REMARK    5  A    between atoms: N1_8  and  C8_9 
REMARK    6  A    between atoms: C10_12  and  N3_13 
ROOT
HETATM    1  C8  UNL     1      33.428   6.543  46.109  1.00  0.00     0.110 C 
HETATM    2  N2  UNL     1      32.726   7.518  45.739  1.00  0.00    -0.245 NA
HETATM    3  C9  UNL     1      32.650   8.067  44.456  1.00  0.00     0.147 C 
HETATM    4  C10 UNL     1      31.367   8.475  44.262  1.00  0.00     0.043 C 
HETATM    5  C11 UNL     1      30.175   8.295  45.093  1.00  0.00     0.030 C 
HETATM    6  C12 UNL     1      28.994   8.240  45.698  1.00  0.00     0.003 C 
HETATM    7  C13 UNL     1      28.351   7.716  46.890  1.00  0.00     0.011 C 
HETATM    8  C14 UNL     1      28.938   7.032  47.833  1.00  0.00     0.060 C 
HETATM    9  N4  UNL     1      30.330   6.618  47.959  1.00  0.00    -0.263 NA
HETATM   10  C15 UNL     1      30.965   5.302  47.834  1.00  0.00     0.225 C 
HETATM   11  O1  UNL     1      30.516   4.101  47.543  1.00  0.00    -0.204 OA
HETATM   12  C16 UNL     1      32.394   5.304  48.099  1.00  0.00     0.154 C 
HETATM   13  N5  UNL     1      32.960   4.005  47.700  1.00  0.00    -0.351 N 
HETATM   14  C17 UNL     1      34.387   4.222  47.831  1.00  0.00     0.218 C 
HETATM   15  O2  UNL     1      35.165   3.265  47.815  1.00  0.00    -0.274 OA
HETATM   16  C18 UNL     1      34.723   5.691  47.972  1.00  0.00     0.117 C 
HETATM   17  C19 UNL     1      33.335   6.242  47.509  1.00  0.00     0.091 C 
HETATM   18  H18 UNL     1      29.650   5.886  47.737  1.00  0.00     0.130 HD
HETATM   19  H20 UNL     1      32.491   3.129  47.399  1.00  0.00     0.163 HD
ENDROOT
BRANCH   1  20
HETATM   20  N1  UNL     1      34.285   5.866  45.145  1.00  0.00    -0.354 N 
HETATM   21  H10 UNL     1      35.297   6.217  45.169  1.00  0.00     0.166 HD
BRANCH  20  22
HETATM   22  C7  UNL     1      33.740   4.841  44.289  1.00  0.00     0.089 C 
BRANCH  22  23
HETATM   23  C6  UNL     1      33.714   4.662  43.004  1.00  0.00     0.017 C 
BRANCH  23  24
HETATM   24  C5  UNL     1      33.994   4.554  41.599  1.00  0.00     0.002 C 
HETATM   25  C4  UNL     1      33.907   3.917  40.474  1.00  0.00     0.002 C 
BRANCH  25  26
HETATM   26  C2  UNL     1      33.276   2.663  40.197  1.00  0.00    -0.084 C 
HETATM   27  C1  UNL     1      34.181   1.711  39.977  1.00  0.00     0.038 C 
HETATM   28  C3  UNL     1      31.978   1.982  40.068  1.00  0.00     0.043 C 
ENDBRANCH  25  26
ENDBRANCH  23  24
ENDBRANCH  22  23
ENDBRANCH  20  22
ENDBRANCH   1  20
BRANCH   4  29
HETATM   29  N3  UNL     1      30.536   9.097  43.288  1.00  0.00    -0.398 N 
HETATM   30  H12 UNL     1      30.024  10.009  43.498  1.00  0.00     0.156 HD
HETATM   31  H13 UNL     1      30.270   8.881  42.327  1.00  0.00     0.156 HD
ENDBRANCH   4  29
TORSDOF 6
ENDMDL
MODEL 8
REMARK VINA RESULT:      -7.2      2.584      3.063
REMARK  6 active torsions:
REMARK  status: ('A' for Active; 'I' for Inactive)
REMARK    1  A    between atoms: C2_2  and  C4_4 
REMARK    2  A    between atoms: C5_5  and  C6_6 
REMARK    3  A    between atoms: C6_6  and  C7_7 
REMARK    4  A    between atoms: C7_7  and  N1_8 
REMARK    5  A    between atoms: N1_8  and  C8_9 
REMARK    6  A    between atoms: C10_12  and  N3_13 
ROOT
HETATM    1  C8  UNL     1      23.407   1.978  50.863  1.00  0.00     0.110 C 
HETATM    2  N2  UNL     1      23.897   1.033  51.529  1.00  0.00    -0.245 NA
HETATM    3  C9  UNL     1      25.121   1.019  52.205  1.00  0.00     0.147 C 
HETATM    4  C10 UNL     1      24.954   0.281  53.336  1.00  0.00     0.043 C 
HETATM    5  C11 UNL     1      23.748  -0.307  53.919  1.00  0.00     0.030 C 
HETATM    6  C12 UNL     1      22.780  -0.913  54.598  1.00  0.00     0.003 C 
HETATM    7  C13 UNL     1      21.347  -1.146  54.572  1.00  0.00     0.011 C 
HETATM    8  C14 UNL     1      20.522  -0.705  53.663  1.00  0.00     0.060 C 
HETATM    9  N4  UNL     1      20.781   0.102  52.477  1.00  0.00    -0.263 NA
HETATM   10  C15 UNL     1      20.467   1.501  52.170  1.00  0.00     0.225 C 
HETATM   11  O1  UNL     1      19.897   2.474  52.847  1.00  0.00    -0.204 OA
HETATM   12  C16 UNL     1      20.846   1.915  50.829  1.00  0.00     0.154 C 
HETATM   13  N5  UNL     1      20.721   3.378  50.722  1.00  0.00    -0.351 N 
HETATM   14  C17 UNL     1      21.310   3.657  49.428  1.00  0.00     0.218 C 
HETATM   15  O2  UNL     1      21.153   4.761  48.900  1.00  0.00    -0.274 OA
HETATM   16  C18 UNL     1      22.083   2.472  48.894  1.00  0.00     0.117 C 
HETATM   17  C19 UNL     1      22.151   1.675  50.237  1.00  0.00     0.091 C 
HETATM   18  H18 UNL     1      20.302   0.565  53.254  1.00  0.00     0.130 HD
HETATM   19  H20 UNL     1      20.315   4.070  51.382  1.00  0.00     0.163 HD
ENDROOT
BRANCH   1  20
HETATM   20  N1  UNL     1      24.145   3.228  50.735  1.00  0.00    -0.354 N 
HETATM   21  H10 UNL     1      24.844   3.217  49.923  1.00  0.00     0.166 HD
BRANCH  20  22
HETATM   22  C7  UNL     1      23.893   4.312  51.652  1.00  0.00     0.089 C 
BRANCH  22  23
HETATM   23  C6  UNL     1      23.969   5.605  51.560  1.00  0.00     0.017 C 
BRANCH  23  24
HETATM   24  C5  UNL     1      24.028   6.978  51.144  1.00  0.00     0.002 C 
HETATM   25  C4  UNL     1      23.547   7.980  50.478  1.00  0.00     0.002 C 
BRANCH  25  26
HETATM   26  C2  UNL     1      22.386   8.030  49.644  1.00  0.00    -0.084 C 
HETATM   27  C1  UNL     1      21.273   7.927  50.368  1.00  0.00     0.038 C 
HETATM   28  C3  UNL     1      21.916   8.169  48.256  1.00  0.00     0.043 C 
ENDBRANCH  25  26
ENDBRANCH  23  24
ENDBRANCH  22  23
ENDBRANCH  20  22
ENDBRANCH   1  20
BRANCH   4  29
HETATM   29  N3  UNL     1      25.673  -0.182  54.474  1.00  0.00    -0.398 N 
HETATM   30  H12 UNL     1      25.486  -1.146  54.891  1.00  0.00     0.156 HD
HETATM   31  H13 UNL     1      26.409   0.204  55.065  1.00  0.00     0.156 HD
ENDBRANCH   4  29
TORSDOF 6
ENDMDL
MODEL 9
REMARK VINA RESULT:      -7.1      3.367      6.401
REMARK  6 active torsions:
REMARK  status: ('A' for Active; 'I' for Inactive)
REMARK    1  A    between atoms: C2_2  and  C4_4 
REMARK    2  A    between atoms: C5_5  and  C6_6 
REMARK    3  A    between atoms: C6_6  and  C7_7 
REMARK    4  A    between atoms: C7_7  and  N1_8 
REMARK    5  A    between atoms: N1_8  and  C8_9 
REMARK    6  A    between atoms: C10_12  and  N3_13 
ROOT
HETATM    1  C8  UNL     1      20.341   3.171  51.614  1.00  0.00     0.110 C 
HETATM    2  N2  UNL     1      21.014   4.232  51.592  1.00  0.00    -0.245 NA
HETATM    3  C9  UNL     1      21.959   4.655  52.532  1.00  0.00     0.147 C 
HETATM    4  C10 UNL     1      22.942   5.309  51.856  1.00  0.00     0.043 C 
HETATM    5  C11 UNL     1      23.160   5.474  50.418  1.00  0.00     0.030 C 
HETATM    6  C12 UNL     1      23.526   5.737  49.169  1.00  0.00     0.003 C 
HETATM    7  C13 UNL     1      23.134   5.485  47.793  1.00  0.00     0.011 C 
HETATM    8  C14 UNL     1      22.100   4.788  47.412  1.00  0.00     0.060 C 
HETATM    9  N4  UNL     1      21.093   4.098  48.209  1.00  0.00    -0.263 NA
HETATM   10  C15 UNL     1      20.853   2.670  48.441  1.00  0.00     0.225 C 
HETATM   11  O1  UNL     1      21.463   1.571  48.053  1.00  0.00    -0.204 OA
HETATM   12  C16 UNL     1      19.688   2.389  49.263  1.00  0.00     0.154 C 
HETATM   13  N5  UNL     1      19.693   0.965  49.637  1.00  0.00    -0.351 N 
HETATM   14  C17 UNL     1      18.611   0.881  50.597  1.00  0.00     0.218 C 
HETATM   15  O2  UNL     1      18.167  -0.219  50.937  1.00  0.00    -0.274 OA
HETATM   16  C18 UNL     1      18.168   2.249  51.068  1.00  0.00     0.117 C 
HETATM   17  C19 UNL     1      19.407   3.038  50.533  1.00  0.00     0.091 C 
HETATM   18  H18 UNL     1      21.773   3.511  47.717  1.00  0.00     0.130 HD
HETATM   19  H20 UNL     1      20.299   0.186  49.315  1.00  0.00     0.163 HD
ENDROOT
BRANCH   1  20
HETATM   20  N1  UNL     1      20.513   2.232  52.715  1.00  0.00    -0.354 N 
HETATM   21  H10 UNL     1      19.860   2.434  53.540  1.00  0.00     0.166 HD
BRANCH  20  22
HETATM   22  C7  UNL     1      21.485   1.172  52.614  1.00  0.00     0.089 C 
BRANCH  22  23
HETATM   23  C6  UNL     1      22.733   1.125  52.258  1.00  0.00     0.017 C 
BRANCH  23  24
HETATM   24  C5  UNL     1      24.116   1.379  51.962  1.00  0.00     0.002 C 
HETATM   25  C4  UNL     1      25.368   1.059  52.047  1.00  0.00     0.002 C 
BRANCH  25  26
HETATM   26  C2  UNL     1      25.967  -0.056  52.714  1.00  0.00    -0.084 C 
HETATM   27  C1  UNL     1      25.871   0.070  54.037  1.00  0.00     0.038 C 
HETATM   28  C3  UNL     1      26.660  -1.338  52.511  1.00  0.00     0.043 C 
ENDBRANCH  25  26
ENDBRANCH  23  24
ENDBRANCH  22  23
ENDBRANCH  20  22
ENDBRANCH   1  20
BRANCH   4  29
HETATM   29  N3  UNL     1      24.170   5.995  52.073  1.00  0.00    -0.398 N 
HETATM   30  H12 UNL     1      25.104   5.551  51.815  1.00  0.00     0.156 HD
HETATM   31  H13 UNL     1      24.426   6.907  52.451  1.00  0.00     0.156 HD
ENDBRANCH   4  29
TORSDOF 6
ENDMDL
