MODEL 1
REMARK VINA RESULT:      -7.6      0.000      0.000
REMARK  4 active torsions:
REMARK  status: ('A' for Active; 'I' for Inactive)
REMARK    1  A    between atoms: C1_2  and  C16_20 
REMARK    2  A    between atoms: C2_3  and  C3_4 
REMARK    3  A    between atoms: C3_4  and  N1_5 
REMARK    4  A    between atoms: N1_5  and  C4_6 
ROOT
HETATM    1  C4  UNL     1      21.629   2.642  51.659  1.00  0.00     0.245 C 
HETATM    2  C5  UNL     1      22.814   1.962  51.093  1.00  0.00     0.009 C 
HETATM    3  C6  UNL     1      24.086   1.722  51.501  1.00  0.00     0.012 C 
HETATM    4  C7  UNL     1      24.830   2.058  52.724  1.00  0.00    -0.011 C 
HETATM    5  C8  UNL     1      25.762   1.062  53.183  1.00  0.00    -0.022 A 
HETATM    6  C9  UNL     1      25.808  -0.140  52.518  1.00  0.00     0.031 A 
HETATM    7  C10 UNL     1      26.685  -1.131  52.892  1.00  0.00     0.117 A 
HETATM    8  N2  UNL     1      27.543  -0.986  53.921  1.00  0.00    -0.273 NA
HETATM    9  C11 UNL     1      27.538   0.174  54.606  1.00  0.00     0.117 A 
HETATM   10  C12 UNL     1      26.649   1.142  54.205  1.00  0.00     0.031 A 
HETATM   11  C13 UNL     1      24.696   3.218  53.391  1.00  0.00     0.095 C 
HETATM   12  N3  UNL     1      23.920   4.437  53.260  1.00  0.00    -0.398 N 
HETATM   13  C14 UNL     1      23.074   4.713  52.103  1.00  0.00     0.121 C 
HETATM   14  C15 UNL     1      21.769   4.042  52.085  1.00  0.00     0.059 C 
HETATM   15  H13 UNL     1      24.076   5.046  54.101  1.00  0.00     0.158 HD
ENDROOT
BRANCH   1  16
HETATM   16  N1  UNL     1      20.961   1.909  52.705  1.00  0.00     0.095 NA
HETATM   17  H4  UNL     1      21.695   1.524  53.361  1.00  0.00     0.317 HD
BRANCH  16  18
HETATM   18  C3  UNL     1      20.024   0.925  52.338  1.00  0.00     0.300 C 
BRANCH  18  19
HETATM   19  C2  UNL     1      19.848  -0.179  53.301  1.00  0.00     0.046 C 
HETATM   20  C1  UNL     1      20.781  -1.002  53.836  1.00  0.00     0.155 C 
HETATM   21  F1  UNL     1      20.517  -2.013  54.737  1.00  0.00    -0.205 F 
BRANCH  20  22
HETATM   22  C16 UNL     1      22.256  -1.159  53.711  1.00  0.00     0.414 C 
HETATM   23  F2  UNL     1      22.904  -0.101  54.322  1.00  0.00    -0.207 F 
HETATM   24  F3  UNL     1      22.659  -1.144  52.379  1.00  0.00    -0.207 F 
ENDBRANCH  20  22
ENDBRANCH  18  19
ENDBRANCH  16  18
ENDBRANCH   1  16
TORSDOF 4
ENDMDL
MODEL 2
REMARK VINA RESULT:      -7.4      2.952      6.015
REMARK  4 active torsions:
REMARK  status: ('A' for Active; 'I' for Inactive)
REMARK    1  A    between atoms: C1_2  and  C16_20 
REMARK    2  A    between atoms: C2_3  and  C3_4 
REMARK    3  A    between atoms: C3_4  and  N1_5 
REMARK    4  A    between atoms: N1_5  and  C4_6 
ROOT
HETATM    1  C4  UNL     1      26.489   1.457  52.153  1.00  0.00     0.245 C 
HETATM    2  C5  UNL     1      25.411   1.634  53.150  1.00  0.00     0.009 C 
HETATM    3  C6  UNL     1      24.055   1.686  53.118  1.00  0.00     0.012 C 
HETATM    4  C7  UNL     1      23.070   1.583  52.031  1.00  0.00    -0.011 C 
HETATM    5  C8  UNL     1      21.848   0.898  52.357  1.00  0.00    -0.022 A 
HETATM    6  C9  UNL     1      21.741   0.315  53.598  1.00  0.00     0.031 A 
HETATM    7  C10 UNL     1      20.596  -0.342  53.982  1.00  0.00     0.117 A 
HETATM    8  N2  UNL     1      19.521  -0.454  53.177  1.00  0.00    -0.273 NA
HETATM    9  C11 UNL     1      19.575   0.099  51.950  1.00  0.00     0.117 A 
HETATM   10  C12 UNL     1      20.734   0.748  51.599  1.00  0.00     0.031 A 
HETATM   11  C13 UNL     1      23.249   2.100  50.802  1.00  0.00     0.095 C 
HETATM   12  N3  UNL     1      24.277   2.847  50.101  1.00  0.00    -0.398 N 
HETATM   13  C14 UNL     1      25.472   3.358  50.766  1.00  0.00     0.121 C 
HETATM   14  C15 UNL     1      26.540   2.382  51.012  1.00  0.00     0.059 C 
HETATM   15  H13 UNL     1      24.013   2.946  49.090  1.00  0.00     0.158 HD
ENDROOT
BRANCH   1  16
HETATM   16  N1  UNL     1      26.632   0.111  51.658  1.00  0.00     0.095 NA
HETATM   17  H4  UNL     1      25.892  -0.052  50.921  1.00  0.00     0.317 HD
BRANCH  16  18
HETATM   18  C3  UNL     1      26.677  -0.943  52.591  1.00  0.00     0.300 C 
BRANCH  18  19
HETATM   19  C2  UNL     1      28.024  -1.450  52.916  1.00  0.00     0.046 C 
HETATM   20  C1  UNL     1      28.979  -0.894  53.699  1.00  0.00     0.155 C 
HETATM   21  F1  UNL     1      30.218  -1.449  53.946  1.00  0.00    -0.205 F 
BRANCH  20  22
HETATM   22  C16 UNL     1      29.100   0.352  54.503  1.00  0.00     0.414 C 
HETATM   23  F2  UNL     1      27.925   0.593  55.194  1.00  0.00    -0.207 F 
HETATM   24  F3  UNL     1      29.308   1.464  53.693  1.00  0.00    -0.207 F 
ENDBRANCH  20  22
ENDBRANCH  18  19
ENDBRANCH  16  18
ENDBRANCH   1  16
TORSDOF 4
ENDMDL
MODEL 3
REMARK VINA RESULT:      -7.4      4.475      6.666
REMARK  4 active torsions:
REMARK  status: ('A' for Active; 'I' for Inactive)
REMARK    1  A    between atoms: C1_2  and  C16_20 
REMARK    2  A    between atoms: C2_3  and  C3_4 
REMARK    3  A    between atoms: C3_4  and  N1_5 
REMARK    4  A    between atoms: N1_5  and  C4_6 
ROOT
HETATM    1  C4  UNL     1      25.769   1.956  51.801  1.00  0.00     0.245 C 
HETATM    2  C5  UNL     1      26.495   2.128  50.524  1.00  0.00     0.009 C 
HETATM    3  C6  UNL     1      26.563   3.086  49.566  1.00  0.00     0.012 C 
HETATM    4  C7  UNL     1      25.914   4.395  49.404  1.00  0.00    -0.011 C 
HETATM    5  C8  UNL     1      26.723   5.427  48.812  1.00  0.00    -0.022 A 
HETATM    6  C9  UNL     1      28.042   5.145  48.546  1.00  0.00     0.031 A 
HETATM    7  C10 UNL     1      28.870   6.078  47.966  1.00  0.00     0.117 A 
HETATM    8  N2  UNL     1      28.444   7.311  47.628  1.00  0.00    -0.273 NA
HETATM    9  C11 UNL     1      27.159   7.638  47.868  1.00  0.00     0.117 A 
HETATM   10  C12 UNL     1      26.361   6.682  48.448  1.00  0.00     0.031 A 
HETATM   11  C13 UNL     1      24.640   4.651  49.753  1.00  0.00     0.095 C 
HETATM   12  N3  UNL     1      23.529   3.921  50.334  1.00  0.00    -0.398 N 
HETATM   13  C14 UNL     1      23.575   2.484  50.585  1.00  0.00     0.121 C 
HETATM   14  C15 UNL     1      24.303   2.063  51.788  1.00  0.00     0.059 C 
HETATM   15  H13 UNL     1      22.735   4.581  50.525  1.00  0.00     0.158 HD
ENDROOT
BRANCH   1  16
HETATM   16  N1  UNL     1      26.277   2.751  52.890  1.00  0.00     0.095 NA
HETATM   17  H4  UNL     1      26.893   3.510  52.488  1.00  0.00     0.317 HD
BRANCH  16  18
HETATM   18  C3  UNL     1      26.900   2.092  53.966  1.00  0.00     0.300 C 
BRANCH  18  19
HETATM   19  C2  UNL     1      28.318   1.737  53.762  1.00  0.00     0.046 C 
HETATM   20  C1  UNL     1      28.868   0.523  53.522  1.00  0.00     0.155 C 
HETATM   21  F1  UNL     1      30.217   0.290  53.342  1.00  0.00    -0.205 F 
BRANCH  20  22
HETATM   22  C16 UNL     1      28.354  -0.865  53.372  1.00  0.00     0.414 C 
HETATM   23  F2  UNL     1      29.376  -1.717  52.990  1.00  0.00    -0.207 F 
HETATM   24  F3  UNL     1      27.389  -0.946  52.372  1.00  0.00    -0.207 F 
ENDBRANCH  20  22
ENDBRANCH  18  19
ENDBRANCH  16  18
ENDBRANCH   1  16
TORSDOF 4
ENDMDL
MODEL 4
REMARK VINA RESULT:      -7.1      3.420      5.399
REMARK  4 active torsions:
REMARK  status: ('A' for Active; 'I' for Inactive)
REMARK    1  A    between atoms: C1_2  and  C16_20 
REMARK    2  A    between atoms: C2_3  and  C3_4 
REMARK    3  A    between atoms: C3_4  and  N1_5 
REMARK    4  A    between atoms: N1_5  and  C4_6 
ROOT
HETATM    1  C4  UNL     1      23.510   5.271  51.868  1.00  0.00     0.245 C 
HETATM    2  C5  UNL     1      23.719   4.409  53.053  1.00  0.00     0.009 C 
HETATM    3  C6  UNL     1      24.079   3.118  53.265  1.00  0.00     0.012 C 
HETATM    4  C7  UNL     1      24.421   2.008  52.365  1.00  0.00    -0.011 C 
HETATM    5  C8  UNL     1      25.460   1.125  52.824  1.00  0.00    -0.022 A 
HETATM    6  C9  UNL     1      26.109   1.441  53.994  1.00  0.00     0.031 A 
HETATM    7  C10 UNL     1      27.101   0.635  54.501  1.00  0.00     0.117 A 
HETATM    8  N2  UNL     1      27.493  -0.501  53.890  1.00  0.00    -0.273 NA
HETATM    9  C11 UNL     1      26.888  -0.855  52.739  1.00  0.00     0.117 A 
HETATM   10  C12 UNL     1      25.901  -0.026  52.262  1.00  0.00     0.031 A 
HETATM   11  C13 UNL     1      23.812   1.781  51.186  1.00  0.00     0.095 C 
HETATM   12  N3  UNL     1      22.755   2.388  50.400  1.00  0.00    -0.398 N 
HETATM   13  C14 UNL     1      21.940   3.494  50.896  1.00  0.00     0.121 C 
HETATM   14  C15 UNL     1      22.557   4.824  50.843  1.00  0.00     0.059 C 
HETATM   15  H13 UNL     1      22.690   1.911  49.468  1.00  0.00     0.158 HD
ENDROOT
BRANCH   1  16
HETATM   16  N1  UNL     1      24.723   5.693  51.215  1.00  0.00     0.095 NA
HETATM   17  H4  UNL     1      25.155   6.471  51.786  1.00  0.00     0.317 HD
BRANCH  16  18
HETATM   18  C3  UNL     1      24.667   6.021  49.848  1.00  0.00     0.300 C 
BRANCH  18  19
HETATM   19  C2  UNL     1      25.951   5.965  49.124  1.00  0.00     0.046 C 
HETATM   20  C1  UNL     1      26.796   4.918  48.964  1.00  0.00     0.155 C 
HETATM   21  F1  UNL     1      27.984   4.964  48.262  1.00  0.00    -0.205 F 
BRANCH  20  22
HETATM   22  C16 UNL     1      26.817   3.495  49.398  1.00  0.00     0.414 C 
HETATM   23  F2  UNL     1      25.617   2.881  49.088  1.00  0.00    -0.207 F 
HETATM   24  F3  UNL     1      26.963   3.386  50.778  1.00  0.00    -0.207 F 
ENDBRANCH  20  22
ENDBRANCH  18  19
ENDBRANCH  16  18
ENDBRANCH   1  16
TORSDOF 4
ENDMDL
MODEL 5
REMARK VINA RESULT:      -7.1      3.497      5.046
REMARK  4 active torsions:
REMARK  status: ('A' for Active; 'I' for Inactive)
REMARK    1  A    between atoms: C1_2  and  C16_20 
REMARK    2  A    between atoms: C2_3  and  C3_4 
REMARK    3  A    between atoms: C3_4  and  N1_5 
REMARK    4  A    between atoms: N1_5  and  C4_6 
ROOT
HETATM    1  C4  UNL     1      22.893   2.641  51.593  1.00  0.00     0.245 C 
HETATM    2  C5  UNL     1      23.888   3.096  52.590  1.00  0.00     0.009 C 
HETATM    3  C6  UNL     1      24.861   2.508  53.330  1.00  0.00     0.012 C 
HETATM    4  C7  UNL     1      25.338   1.122  53.447  1.00  0.00    -0.011 C 
HETATM    5  C8  UNL     1      26.755   0.962  53.632  1.00  0.00    -0.022 A 
HETATM    6  C9  UNL     1      27.548   2.084  53.583  1.00  0.00     0.031 A 
HETATM    7  C10 UNL     1      28.909   2.007  53.767  1.00  0.00     0.117 A 
HETATM    8  N2  UNL     1      29.542   0.841  54.004  1.00  0.00    -0.273 NA
HETATM    9  C11 UNL     1      28.810  -0.289  54.062  1.00  0.00     0.117 A 
HETATM   10  C12 UNL     1      27.453  -0.175  53.873  1.00  0.00     0.031 A 
HETATM   11  C13 UNL     1      24.534   0.044  53.410  1.00  0.00     0.095 C 
HETATM   12  N3  UNL     1      23.114  -0.220  53.266  1.00  0.00    -0.398 N 
HETATM   13  C14 UNL     1      22.113   0.842  53.244  1.00  0.00     0.121 C 
HETATM   14  C15 UNL     1      21.968   1.565  51.975  1.00  0.00     0.059 C 
HETATM   15  H13 UNL     1      22.954  -1.254  53.188  1.00  0.00     0.158 HD
ENDROOT
BRANCH   1  16
HETATM   16  N1  UNL     1      23.442   2.336  50.297  1.00  0.00     0.095 NA
HETATM   17  H4  UNL     1      24.474   2.140  50.411  1.00  0.00     0.317 HD
BRANCH  16  18
HETATM   18  C3  UNL     1      23.197   3.231  49.239  1.00  0.00     0.300 C 
BRANCH  18  19
HETATM   19  C2  UNL     1      24.001   4.468  49.250  1.00  0.00     0.046 C 
HETATM   20  C1  UNL     1      25.347   4.610  49.312  1.00  0.00     0.155 C 
HETATM   21  F1  UNL     1      26.012   5.820  49.316  1.00  0.00    -0.205 F 
BRANCH  20  22
HETATM   22  C16 UNL     1      26.510   3.686  49.391  1.00  0.00     0.414 C 
HETATM   23  F2  UNL     1      26.831   3.431  50.713  1.00  0.00    -0.207 F 
HETATM   24  F3  UNL     1      27.647   4.248  48.818  1.00  0.00    -0.207 F 
ENDBRANCH  20  22
ENDBRANCH  18  19
ENDBRANCH  16  18
ENDBRANCH   1  16
TORSDOF 4
ENDMDL
MODEL 6
REMARK VINA RESULT:      -6.9      4.546      6.572
REMARK  4 active torsions:
REMARK  status: ('A' for Active; 'I' for Inactive)
REMARK    1  A    between atoms: C1_2  and  C16_20 
REMARK    2  A    between atoms: C2_3  and  C3_4 
REMARK    3  A    between atoms: C3_4  and  N1_5 
REMARK    4  A    between atoms: N1_5  and  C4_6 
ROOT
HETATM    1  C4  UNL     1      26.208   2.724  50.894  1.00  0.00     0.245 C 
HETATM    2  C5  UNL     1      26.528   3.196  49.528  1.00  0.00     0.009 C 
HETATM    3  C6  UNL     1      26.615   4.400  48.911  1.00  0.00     0.012 C 
HETATM    4  C7  UNL     1      26.419   5.783  49.370  1.00  0.00    -0.011 C 
HETATM    5  C8  UNL     1      27.304   6.764  48.802  1.00  0.00    -0.022 A 
HETATM    6  C9  UNL     1      28.309   6.327  47.971  1.00  0.00     0.031 A 
HETATM    7  C10 UNL     1      29.182   7.210  47.380  1.00  0.00     0.117 A 
HETATM    8  N2  UNL     1      29.108   8.542  47.576  1.00  0.00    -0.273 NA
HETATM    9  C11 UNL     1      28.140   9.021  48.382  1.00  0.00     0.117 A 
HETATM   10  C12 UNL     1      27.285   8.111  48.955  1.00  0.00     0.031 A 
HETATM   11  C13 UNL     1      25.471   6.156  50.249  1.00  0.00     0.095 C 
HETATM   12  N3  UNL     1      24.412   5.516  51.007  1.00  0.00    -0.398 N 
HETATM   13  C14 UNL     1      24.054   4.112  50.831  1.00  0.00     0.121 C 
HETATM   14  C15 UNL     1      24.929   3.136  51.490  1.00  0.00     0.059 C 
HETATM   15  H13 UNL     1      23.978   6.212  51.663  1.00  0.00     0.158 HD
ENDROOT
BRANCH   1  16
HETATM   16  N1  UNL     1      27.255   2.939  51.861  1.00  0.00     0.095 NA
HETATM   17  H4  UNL     1      28.166   3.069  51.340  1.00  0.00     0.317 HD
BRANCH  16  18
HETATM   18  C3  UNL     1      27.387   2.019  52.917  1.00  0.00     0.300 C 
BRANCH  18  19
HETATM   19  C2  UNL     1      27.362   0.595  52.531  1.00  0.00     0.046 C 
HETATM   20  C1  UNL     1      26.590  -0.407  53.017  1.00  0.00     0.155 C 
HETATM   21  F1  UNL     1      26.638  -1.718  52.587  1.00  0.00    -0.205 F 
BRANCH  20  22
HETATM   22  C16 UNL     1      25.529  -0.524  54.053  1.00  0.00     0.414 C 
HETATM   23  F2  UNL     1      24.498   0.360  53.785  1.00  0.00    -0.207 F 
HETATM   24  F3  UNL     1      26.009  -0.186  55.315  1.00  0.00    -0.207 F 
ENDBRANCH  20  22
ENDBRANCH  18  19
ENDBRANCH  16  18
ENDBRANCH   1  16
TORSDOF 4
ENDMDL
MODEL 7
REMARK VINA RESULT:      -6.8      4.418      6.674
REMARK  4 active torsions:
REMARK  status: ('A' for Active; 'I' for Inactive)
REMARK    1  A    between atoms: C1_2  and  C16_20 
REMARK    2  A    between atoms: C2_3  and  C3_4 
REMARK    3  A    between atoms: C3_4  and  N1_5 
REMARK    4  A    between atoms: N1_5  and  C4_6 
ROOT
HETATM    1  C4  UNL     1      24.504   2.777  51.711  1.00  0.00     0.245 C 
HETATM    2  C5  UNL     1      24.901   3.111  50.325  1.00  0.00     0.009 C 
HETATM    3  C6  UNL     1      25.222   4.244  49.652  1.00  0.00     0.012 C 
HETATM    4  C7  UNL     1      25.309   5.658  50.045  1.00  0.00    -0.011 C 
HETATM    5  C8  UNL     1      26.367   6.415  49.432  1.00  0.00    -0.022 A 
HETATM    6  C9  UNL     1      27.259   5.748  48.625  1.00  0.00     0.031 A 
HETATM    7  C10 UNL     1      28.286   6.411  47.995  1.00  0.00     0.117 A 
HETATM    8  N2  UNL     1      28.479   7.738  48.127  1.00  0.00    -0.273 NA
HETATM    9  C11 UNL     1      27.633   8.438  48.908  1.00  0.00     0.117 A 
HETATM   10  C12 UNL     1      26.618   7.744  49.522  1.00  0.00     0.031 A 
HETATM   11  C13 UNL     1      24.460   6.253  50.903  1.00  0.00     0.095 C 
HETATM   12  N3  UNL     1      23.301   5.873  51.689  1.00  0.00    -0.398 N 
HETATM   13  C14 UNL     1      22.669   4.562  51.579  1.00  0.00     0.121 C 
HETATM   14  C15 UNL     1      23.338   3.463  52.284  1.00  0.00     0.059 C 
HETATM   15  H13 UNL     1      23.020   6.671  52.310  1.00  0.00     0.158 HD
ENDROOT
BRANCH   1  16
HETATM   16  N1  UNL     1      25.580   2.823  52.668  1.00  0.00     0.095 NA
HETATM   17  H4  UNL     1      25.793   3.837  52.880  1.00  0.00     0.317 HD
BRANCH  16  18
HETATM   18  C3  UNL     1      26.752   2.093  52.393  1.00  0.00     0.300 C 
BRANCH  18  19
HETATM   19  C2  UNL     1      27.919   2.418  53.236  1.00  0.00     0.046 C 
HETATM   20  C1  UNL     1      28.782   1.579  53.857  1.00  0.00     0.155 C 
HETATM   21  F1  UNL     1      29.853   1.981  54.630  1.00  0.00    -0.205 F 
BRANCH  20  22
HETATM   22  C16 UNL     1      28.936   0.104  53.967  1.00  0.00     0.414 C 
HETATM   23  F2  UNL     1      28.704  -0.307  55.268  1.00  0.00    -0.207 F 
HETATM   24  F3  UNL     1      30.233  -0.298  53.660  1.00  0.00    -0.207 F 
ENDBRANCH  20  22
ENDBRANCH  18  19
ENDBRANCH  16  18
ENDBRANCH   1  16
TORSDOF 4
ENDMDL
MODEL 8
REMARK VINA RESULT:      -6.6      4.035      5.529
REMARK  4 active torsions:
REMARK  status: ('A' for Active; 'I' for Inactive)
REMARK    1  A    between atoms: C1_2  and  C16_20 
REMARK    2  A    between atoms: C2_3  and  C3_4 
REMARK    3  A    between atoms: C3_4  and  N1_5 
REMARK    4  A    between atoms: N1_5  and  C4_6 
ROOT
HETATM    1  C4  UNL     1      23.674   3.310  51.341  1.00  0.00     0.245 C 
HETATM    2  C5  UNL     1      24.557   3.096  50.173  1.00  0.00     0.009 C 
HETATM    3  C6  UNL     1      25.237   3.891  49.309  1.00  0.00     0.012 C 
HETATM    4  C7  UNL     1      25.374   5.349  49.178  1.00  0.00    -0.011 C 
HETATM    5  C8  UNL     1      26.669   5.822  48.768  1.00  0.00    -0.022 A 
HETATM    6  C9  UNL     1      27.683   4.903  48.633  1.00  0.00     0.031 A 
HETATM    7  C10 UNL     1      28.942   5.282  48.228  1.00  0.00     0.117 A 
HETATM    8  N2  UNL     1      29.256   6.561  47.943  1.00  0.00    -0.273 NA
HETATM    9  C11 UNL     1      28.297   7.501  48.060  1.00  0.00     0.117 A 
HETATM   10  C12 UNL     1      27.051   7.087  48.466  1.00  0.00     0.031 A 
HETATM   11  C13 UNL     1      24.374   6.221  49.398  1.00  0.00     0.095 C 
HETATM   12  N3  UNL     1      22.977   6.163  49.788  1.00  0.00    -0.398 N 
HETATM   13  C14 UNL     1      22.250   4.905  49.927  1.00  0.00     0.121 C 
HETATM   14  C15 UNL     1      22.486   4.157  51.168  1.00  0.00     0.059 C 
HETATM   15  H13 UNL     1      22.612   7.135  49.938  1.00  0.00     0.158 HD
ENDROOT
BRANCH   1  16
HETATM   16  N1  UNL     1      24.359   3.720  52.541  1.00  0.00     0.095 NA
HETATM   17  H4  UNL     1      24.990   4.534  52.302  1.00  0.00     0.317 HD
BRANCH  16  18
HETATM   18  C3  UNL     1      25.036   2.741  53.292  1.00  0.00     0.300 C 
BRANCH  18  19
HETATM   19  C2  UNL     1      24.435   1.394  53.274  1.00  0.00     0.046 C 
HETATM   20  C1  UNL     1      25.030   0.197  53.057  1.00  0.00     0.155 C 
HETATM   21  F1  UNL     1      24.378  -1.020  53.061  1.00  0.00    -0.205 F 
BRANCH  20  22
HETATM   22  C16 UNL     1      26.414  -0.264  52.765  1.00  0.00     0.414 C 
HETATM   23  F2  UNL     1      26.733  -0.016  51.441  1.00  0.00    -0.207 F 
HETATM   24  F3  UNL     1      26.542  -1.638  52.943  1.00  0.00    -0.207 F 
ENDBRANCH  20  22
ENDBRANCH  18  19
ENDBRANCH  16  18
ENDBRANCH   1  16
TORSDOF 4
ENDMDL
MODEL 9
REMARK VINA RESULT:      -6.6      2.867      4.345
REMARK  4 active torsions:
REMARK  status: ('A' for Active; 'I' for Inactive)
REMARK    1  A    between atoms: C1_2  and  C16_20 
REMARK    2  A    between atoms: C2_3  and  C3_4 
REMARK    3  A    between atoms: C3_4  and  N1_5 
REMARK    4  A    between atoms: N1_5  and  C4_6 
ROOT
HETATM    1  C4  UNL     1      20.519   1.106  52.077  1.00  0.00     0.245 C 
HETATM    2  C5  UNL     1      21.711   1.815  52.592  1.00  0.00     0.009 C 
HETATM    3  C6  UNL     1      22.925   1.452  53.077  1.00  0.00     0.012 C 
HETATM    4  C7  UNL     1      23.573   0.151  53.296  1.00  0.00    -0.011 C 
HETATM    5  C8  UNL     1      24.988   0.105  53.040  1.00  0.00    -0.022 A 
HETATM    6  C9  UNL     1      25.591   1.227  52.524  1.00  0.00     0.031 A 
HETATM    7  C10 UNL     1      26.942   1.260  52.270  1.00  0.00     0.117 A 
HETATM    8  N2  UNL     1      27.749   0.207  52.509  1.00  0.00    -0.273 NA
HETATM    9  C11 UNL     1      27.206  -0.919  53.014  1.00  0.00     0.117 A 
HETATM   10  C12 UNL     1      25.854  -0.916  53.256  1.00  0.00     0.031 A 
HETATM   11  C13 UNL     1      22.927  -0.948  53.727  1.00  0.00     0.095 C 
HETATM   12  N3  UNL     1      21.573  -1.307  54.103  1.00  0.00    -0.398 N 
HETATM   13  C14 UNL     1      20.496  -0.327  54.203  1.00  0.00     0.121 C 
HETATM   14  C15 UNL     1      19.887   0.094  52.935  1.00  0.00     0.059 C 
HETATM   15  H13 UNL     1      21.518  -2.340  54.280  1.00  0.00     0.158 HD
ENDROOT
BRANCH   1  16
HETATM   16  N1  UNL     1      20.678   0.552  50.756  1.00  0.00     0.095 NA
HETATM   17  H4  UNL     1      21.680   0.234  50.648  1.00  0.00     0.317 HD
BRANCH  16  18
HETATM   18  C3  UNL     1      20.254   1.319  49.655  1.00  0.00     0.300 C 
BRANCH  18  19
HETATM   19  C2  UNL     1      21.157   1.312  48.487  1.00  0.00     0.046 C 
HETATM   20  C1  UNL     1      22.297   2.015  48.287  1.00  0.00     0.155 C 
HETATM   21  F1  UNL     1      23.081   1.940  47.153  1.00  0.00    -0.205 F 
BRANCH  20  22
HETATM   22  C16 UNL     1      23.081   3.013  49.064  1.00  0.00     0.414 C 
HETATM   23  F2  UNL     1      23.847   2.377  50.026  1.00  0.00    -0.207 F 
HETATM   24  F3  UNL     1      22.248   3.892  49.751  1.00  0.00    -0.207 F 
ENDBRANCH  20  22
ENDBRANCH  18  19
ENDBRANCH  16  18
ENDBRANCH   1  16
TORSDOF 4
ENDMDL
