MODEL 1
REMARK VINA RESULT:      -8.0      0.000      0.000
REMARK  8 active torsions:
REMARK  status: ('A' for Active; 'I' for Inactive)
REMARK    1  A    between atoms: O1_2  and  C2_3 
REMARK    2  A    between atoms: C6_9  and  C7_10 
REMARK    3  A    between atoms: C7_10  and  C8_11 
REMARK    4  A    between atoms: C7_10  and  C9_13 
REMARK    5  A    between atoms: C8_11  and  N3_12 
REMARK    6  A    between atoms: C9_13  and  C10_14 
REMARK    7  A    between atoms: C10_14  and  C11_15 
REMARK    8  A    between atoms: C16_22  and  O3_23 
ROOT
HETATM    1  C2  UNL     1      22.379  -0.315  52.715  1.00  0.00     0.104 A 
HETATM    2  C3  UNL     1      21.549   0.214  51.782  1.00  0.00     0.072 A 
HETATM    3  C4  UNL     1      21.747   1.309  51.005  1.00  0.00     0.074 A 
HETATM    4  N1  UNL     1      20.989   1.870  50.074  1.00  0.00    -0.241 NA
HETATM    5  C5  UNL     1      21.412   2.985  49.406  1.00  0.00     0.234 A 
HETATM    6  N2  UNL     1      22.602   3.554  49.663  1.00  0.00    -0.245 NA
HETATM    7  C6  UNL     1      23.513   3.135  50.571  1.00  0.00     0.055 A 
HETATM    8  C12 UNL     1      22.874   2.062  51.069  1.00  0.00     0.035 A 
HETATM    9  C13 UNL     1      23.432   1.306  52.021  1.00  0.00     0.056 A 
HETATM   10  C14 UNL     1      23.572   0.204  53.007  1.00  0.00     0.117 A 
HETATM   11  O2  UNL     1      24.809   0.404  53.586  1.00  0.00    -0.345 OA
HETATM   12  C15 UNL     1      25.954  -0.291  53.633  1.00  0.00     0.209 C 
HETATM   13  C16 UNL     1      27.198   0.321  54.227  1.00  0.00     0.164 C 
HETATM   14  C17 UNL     1      28.091   1.117  53.340  1.00  0.00     0.189 A 
HETATM   15  N4  UNL     1      28.005   2.541  53.200  1.00  0.00    -0.383 N 
HETATM   16  C18 UNL     1      26.908   2.267  52.896  1.00  0.00     0.065 A 
HETATM   17  P1  UNL     1      25.784   1.970  52.602  1.00  0.00     0.161 P 
HETATM   18  F1  UNL     1      25.252   1.839  52.458  1.00  0.00    -0.214 F 
HETATM   19  H21 UNL     1      27.926   3.548  53.095  1.00  0.00     0.160 HD
ENDROOT
BRANCH   7  20
HETATM   20  C7  UNL     1      24.795   3.771  50.875  1.00  0.00     0.067 C 
BRANCH  20  21
HETATM   21  C8  UNL     1      24.695   5.253  51.083  1.00  0.00     0.277 C 
BRANCH  21  22
HETATM   22  N3  UNL     1      23.759   5.691  52.078  1.00  0.00     0.079 N 
HETATM   23  H9  UNL     1      24.172   6.538  52.582  1.00  0.00     0.312 HD
HETATM   24  H10 UNL     1      22.887   6.099  51.657  1.00  0.00     0.312 HD
ENDBRANCH  21  22
ENDBRANCH  20  21
BRANCH  20  25
HETATM   25  C9  UNL     1      25.353   3.800  49.373  1.00  0.00     0.019 C 
BRANCH  25  26
HETATM   26  C10 UNL     1      26.797   3.983  49.416  1.00  0.00     0.012 C 
BRANCH  26  27
HETATM   27  C11 UNL     1      27.498   4.804  48.655  1.00  0.00     0.237 C 
HETATM   28 CL1  UNL     1      27.131   6.500  48.586  1.00  0.00    -0.255 Cl
ENDBRANCH  26  27
ENDBRANCH  25  26
ENDBRANCH  20  25
ENDBRANCH   7  20
BRANCH   1  29
HETATM   29  O1  UNL     1      22.400  -1.356  53.579  1.00  0.00    -0.353 OA
HETATM   30  C1  UNL     1      22.024  -1.258  54.922  1.00  0.00     0.210 C 
ENDBRANCH   1  29
BRANCH  13  31
HETATM   31  O3  UNL     1      28.029  -0.987  54.251  1.00  0.00    -0.391 OA
HETATM   32  H18 UNL     1      27.279  -1.614  54.180  1.00  0.00     0.210 HD
ENDBRANCH  13  31
TORSDOF 8
ENDMDL
MODEL 2
REMARK VINA RESULT:      -8.0      2.990      5.270
REMARK  8 active torsions:
REMARK  status: ('A' for Active; 'I' for Inactive)
REMARK    1  A    between atoms: O1_2  and  C2_3 
REMARK    2  A    between atoms: C6_9  and  C7_10 
REMARK    3  A    between atoms: C7_10  and  C8_11 
REMARK    4  A    between atoms: C7_10  and  C9_13 
REMARK    5  A    between atoms: C8_11  and  N3_12 
REMARK    6  A    between atoms: C9_13  and  C10_14 
REMARK    7  A    between atoms: C10_14  and  C11_15 
REMARK    8  A    between atoms: C16_22  and  O3_23 
ROOT
HETATM    1  C2  UNL     1      21.679   3.156  50.842  1.00  0.00     0.104 A 
HETATM    2  C3  UNL     1      22.760   3.589  50.148  1.00  0.00     0.072 A 
HETATM    3  C4  UNL     1      24.059   3.224  50.303  1.00  0.00     0.074 A 
HETATM    4  N1  UNL     1      25.155   3.596  49.658  1.00  0.00    -0.241 NA
HETATM    5  C5  UNL     1      26.374   3.075  49.992  1.00  0.00     0.234 A 
HETATM    6  N2  UNL     1      26.511   2.172  50.978  1.00  0.00    -0.245 NA
HETATM    7  C6  UNL     1      25.519   1.669  51.749  1.00  0.00     0.055 A 
HETATM    8  C12 UNL     1      24.463   2.322  51.232  1.00  0.00     0.035 A 
HETATM    9  C13 UNL     1      23.227   2.115  51.700  1.00  0.00     0.056 A 
HETATM   10  C14 UNL     1      21.754   2.259  51.826  1.00  0.00     0.117 A 
HETATM   11  O2  UNL     1      21.403   1.401  52.848  1.00  0.00    -0.345 OA
HETATM   12  C15 UNL     1      20.642   0.300  52.939  1.00  0.00     0.209 C 
HETATM   13  C16 UNL     1      20.614  -0.507  54.212  1.00  0.00     0.164 C 
HETATM   14  C17 UNL     1      21.629  -1.582  54.395  1.00  0.00     0.189 A 
HETATM   15  N4  UNL     1      22.873  -1.390  55.079  1.00  0.00    -0.383 N 
HETATM   16  C18 UNL     1      22.989  -0.555  54.266  1.00  0.00     0.065 A 
HETATM   17  P1  UNL     1      23.083   0.306  53.437  1.00  0.00     0.161 P 
HETATM   18  F1  UNL     1      23.139   0.712  53.046  1.00  0.00    -0.214 F 
HETATM   19  H21 UNL     1      23.760  -1.240  55.551  1.00  0.00     0.160 HD
ENDROOT
BRANCH   7  20
HETATM   20  C7  UNL     1      25.670   0.711  52.844  1.00  0.00     0.067 C 
BRANCH  20  21
HETATM   21  C8  UNL     1      26.521   1.216  53.971  1.00  0.00     0.277 C 
BRANCH  21  22
HETATM   22  N3  UNL     1      26.909   2.596  53.902  1.00  0.00     0.079 N 
HETATM   23  H9  UNL     1      26.248   3.101  53.231  1.00  0.00     0.312 HD
HETATM   24  H10 UNL     1      26.731   3.108  54.802  1.00  0.00     0.312 HD
ENDBRANCH  21  22
ENDBRANCH  20  21
BRANCH  20  25
HETATM   25  C9  UNL     1      26.772  -0.213  52.138  1.00  0.00     0.019 C 
BRANCH  25  26
HETATM   26  C10 UNL     1      27.372  -1.077  53.145  1.00  0.00     0.012 C 
BRANCH  26  27
HETATM   27  C11 UNL     1      28.608  -1.541  53.132  1.00  0.00     0.237 C 
HETATM   28 CL1  UNL     1      29.957  -0.514  53.509  1.00  0.00    -0.255 Cl
ENDBRANCH  26  27
ENDBRANCH  25  26
ENDBRANCH  20  25
ENDBRANCH   7  20
BRANCH   1  29
HETATM   29  O1  UNL     1      20.342   3.365  50.868  1.00  0.00    -0.353 OA
HETATM   30  C1  UNL     1      19.438   2.726  50.013  1.00  0.00     0.210 C 
ENDBRANCH   1  29
BRANCH  13  31
HETATM   31  O3  UNL     1      19.418  -1.407  53.809  1.00  0.00    -0.391 OA
HETATM   32  H18 UNL     1      19.847  -1.855  53.050  1.00  0.00     0.210 HD
ENDBRANCH  13  31
TORSDOF 8
ENDMDL
MODEL 3
REMARK VINA RESULT:      -7.9      3.198      5.418
REMARK  8 active torsions:
REMARK  status: ('A' for Active; 'I' for Inactive)
REMARK    1  A    between atoms: O1_2  and  C2_3 
REMARK    2  A    between atoms: C6_9  and  C7_10 
REMARK    3  A    between atoms: C7_10  and  C8_11 
REMARK    4  A    between atoms: C7_10  and  C9_13 
REMARK    5  A    between atoms: C8_11  and  N3_12 
REMARK    6  A    between atoms: C9_13  and  C10_14 
REMARK    7  A    between atoms: C10_14  and  C11_15 
REMARK    8  A    between atoms: C16_22  and  O3_23 
ROOT
HETATM    1  C2  UNL     1      20.984   0.960  52.862  1.00  0.00     0.104 A 
HETATM    2  C3  UNL     1      21.157   0.089  53.886  1.00  0.00     0.072 A 
HETATM    3  C4  UNL     1      22.320  -0.424  54.365  1.00  0.00     0.074 A 
HETATM    4  N1  UNL     1      22.561  -1.263  55.361  1.00  0.00    -0.241 NA
HETATM    5  C5  UNL     1      23.840  -1.635  55.669  1.00  0.00     0.234 A 
HETATM    6  N2  UNL     1      24.896  -1.171  54.980  1.00  0.00    -0.245 NA
HETATM    7  C6  UNL     1      24.858  -0.311  53.935  1.00  0.00     0.055 A 
HETATM    8  C12 UNL     1      23.532  -0.109  53.843  1.00  0.00     0.035 A 
HETATM    9  C13 UNL     1      23.021   0.713  52.919  1.00  0.00     0.056 A 
HETATM   10  C14 UNL     1      21.994   1.457  52.147  1.00  0.00     0.117 A 
HETATM   11  O2  UNL     1      22.709   2.172  51.208  1.00  0.00    -0.345 OA
HETATM   12  C15 UNL     1      22.897   3.475  50.954  1.00  0.00     0.209 C 
HETATM   13  C16 UNL     1      23.907   3.916  49.925  1.00  0.00     0.164 C 
HETATM   14  C17 UNL     1      25.317   4.125  50.357  1.00  0.00     0.189 A 
HETATM   15  N4  UNL     1      26.333   3.120  50.261  1.00  0.00    -0.383 N 
HETATM   16  C18 UNL     1      25.562   2.529  50.915  1.00  0.00     0.065 A 
HETATM   17  P1  UNL     1      24.754   1.933  51.571  1.00  0.00     0.161 P 
HETATM   18  F1  UNL     1      24.380   1.646  51.885  1.00  0.00    -0.214 F 
HETATM   19  H21 UNL     1      27.043   2.395  50.205  1.00  0.00     0.160 HD
ENDROOT
BRANCH   7  20
HETATM   20  C7  UNL     1      26.004   0.171  53.163  1.00  0.00     0.067 C 
BRANCH  20  21
HETATM   21  C8  UNL     1      26.704  -0.907  52.392  1.00  0.00     0.277 C 
BRANCH  21  22
HETATM   22  N3  UNL     1      27.044  -2.093  53.125  1.00  0.00     0.079 N 
HETATM   23  H9  UNL     1      27.501  -2.788  52.454  1.00  0.00     0.312 HD
HETATM   24  H10 UNL     1      27.816  -1.928  53.818  1.00  0.00     0.312 HD
ENDBRANCH  21  22
ENDBRANCH  20  21
BRANCH  20  25
HETATM   25  C9  UNL     1      27.032   0.263  54.388  1.00  0.00     0.019 C 
BRANCH  25  26
HETATM   26  C10 UNL     1      28.059   1.243  54.063  1.00  0.00     0.012 C 
BRANCH  26  27
HETATM   27  C11 UNL     1      29.364   1.051  54.130  1.00  0.00     0.237 C 
HETATM   28 CL1  UNL     1      30.089  -0.414  53.543  1.00  0.00    -0.255 Cl
ENDBRANCH  26  27
ENDBRANCH  25  26
ENDBRANCH  20  25
ENDBRANCH   7  20
BRANCH   1  29
HETATM   29  O1  UNL     1      19.967   1.588  52.228  1.00  0.00    -0.353 OA
HETATM   30  C1  UNL     1      19.259   1.035  51.155  1.00  0.00     0.210 C 
ENDBRANCH   1  29
BRANCH  13  31
HETATM   31  O3  UNL     1      23.469   5.403  49.892  1.00  0.00    -0.391 OA
HETATM   32  H18 UNL     1      23.257   5.493  50.845  1.00  0.00     0.210 HD
ENDBRANCH  13  31
TORSDOF 8
ENDMDL
MODEL 4
REMARK VINA RESULT:      -7.7      2.594      4.950
REMARK  8 active torsions:
REMARK  status: ('A' for Active; 'I' for Inactive)
REMARK    1  A    between atoms: O1_2  and  C2_3 
REMARK    2  A    between atoms: C6_9  and  C7_10 
REMARK    3  A    between atoms: C7_10  and  C8_11 
REMARK    4  A    between atoms: C7_10  and  C9_13 
REMARK    5  A    between atoms: C8_11  and  N3_12 
REMARK    6  A    between atoms: C9_13  and  C10_14 
REMARK    7  A    between atoms: C10_14  and  C11_15 
REMARK    8  A    between atoms: C16_22  and  O3_23 
ROOT
HETATM    1  C2  UNL     1      25.704  -0.028  54.178  1.00  0.00     0.104 A 
HETATM    2  C3  UNL     1      24.755  -0.858  54.675  1.00  0.00     0.072 A 
HETATM    3  C4  UNL     1      23.421  -0.860  54.417  1.00  0.00     0.074 A 
HETATM    4  N1  UNL     1      22.446  -1.642  54.855  1.00  0.00    -0.241 NA
HETATM    5  C5  UNL     1      21.157  -1.453  54.441  1.00  0.00     0.234 A 
HETATM    6  N2  UNL     1      20.828  -0.475  53.580  1.00  0.00    -0.245 NA
HETATM    7  C6  UNL     1      21.674   0.422  53.023  1.00  0.00     0.055 A 
HETATM    8  C12 UNL     1      22.835   0.029  53.576  1.00  0.00     0.035 A 
HETATM    9  C13 UNL     1      23.983   0.650  53.287  1.00  0.00     0.056 A 
HETATM   10  C14 UNL     1      25.437   0.956  53.318  1.00  0.00     0.117 A 
HETATM   11  O2  UNL     1      25.589   2.029  52.465  1.00  0.00    -0.345 OA
HETATM   12  C15 UNL     1      26.241   2.235  51.311  1.00  0.00     0.209 C 
HETATM   13  C16 UNL     1      26.047   3.516  50.540  1.00  0.00     0.164 C 
HETATM   14  C17 UNL     1      24.933   3.591  49.554  1.00  0.00     0.189 A 
HETATM   15  N4  UNL     1      23.635   4.111  49.862  1.00  0.00    -0.383 N 
HETATM   16  C18 UNL     1      23.688   3.275  50.680  1.00  0.00     0.065 A 
HETATM   17  P1  UNL     1      23.766   2.425  51.521  1.00  0.00     0.161 P 
HETATM   18  F1  UNL     1      23.792   2.022  51.919  1.00  0.00    -0.214 F 
HETATM   19  H21 UNL     1      22.712   4.467  50.094  1.00  0.00     0.160 HD
ENDROOT
BRANCH   7  20
HETATM   20  C7  UNL     1      21.313   1.508  52.111  1.00  0.00     0.067 C 
BRANCH  20  21
HETATM   21  C8  UNL     1      20.208   2.382  52.626  1.00  0.00     0.277 C 
BRANCH  21  22
HETATM   22  N3  UNL     1      19.926   3.563  51.861  1.00  0.00     0.079 N 
HETATM   23  H9  UNL     1      18.889   3.558  51.601  1.00  0.00     0.312 HD
HETATM   24  H10 UNL     1      19.997   4.439  52.436  1.00  0.00     0.312 HD
ENDBRANCH  21  22
ENDBRANCH  20  21
BRANCH  20  25
HETATM   25  C9  UNL     1      20.437   0.624  51.101  1.00  0.00     0.019 C 
BRANCH  25  26
HETATM   26  C10 UNL     1      21.108   0.591  49.809  1.00  0.00     0.012 C 
BRANCH  26  27
HETATM   27  C11 UNL     1      20.991   1.492  48.851  1.00  0.00     0.237 C 
HETATM   28 CL1  UNL     1      22.262   1.747  47.695  1.00  0.00    -0.255 Cl
ENDBRANCH  26  27
ENDBRANCH  25  26
ENDBRANCH  20  25
ENDBRANCH   7  20
BRANCH   1  29
HETATM   29  O1  UNL     1      27.040   0.160  54.283  1.00  0.00    -0.353 OA
HETATM   30  C1  UNL     1      27.981  -0.475  53.466  1.00  0.00     0.210 C 
ENDBRANCH   1  29
BRANCH  13  31
HETATM   31  O3  UNL     1      27.207   3.282  49.538  1.00  0.00    -0.391 OA
HETATM   32  H18 UNL     1      26.720   2.701  48.916  1.00  0.00     0.210 HD
ENDBRANCH  13  31
TORSDOF 8
ENDMDL
MODEL 5
REMARK VINA RESULT:      -7.6      2.157      4.820
REMARK  8 active torsions:
REMARK  status: ('A' for Active; 'I' for Inactive)
REMARK    1  A    between atoms: O1_2  and  C2_3 
REMARK    2  A    between atoms: C6_9  and  C7_10 
REMARK    3  A    between atoms: C7_10  and  C8_11 
REMARK    4  A    between atoms: C7_10  and  C9_13 
REMARK    5  A    between atoms: C8_11  and  N3_12 
REMARK    6  A    between atoms: C9_13  and  C10_14 
REMARK    7  A    between atoms: C10_14  and  C11_15 
REMARK    8  A    between atoms: C16_22  and  O3_23 
ROOT
HETATM    1  C2  UNL     1      26.424   0.775  52.828  1.00  0.00     0.104 A 
HETATM    2  C3  UNL     1      27.005   1.753  52.089  1.00  0.00     0.072 A 
HETATM    3  C4  UNL     1      26.434   2.543  51.143  1.00  0.00     0.074 A 
HETATM    4  N1  UNL     1      26.936   3.517  50.398  1.00  0.00    -0.241 NA
HETATM    5  C5  UNL     1      26.150   4.188  49.503  1.00  0.00     0.234 A 
HETATM    6  N2  UNL     1      24.849   3.892  49.343  1.00  0.00    -0.245 NA
HETATM    7  C6  UNL     1      24.156   2.938  50.006  1.00  0.00     0.055 A 
HETATM    8  C12 UNL     1      25.127   2.445  50.796  1.00  0.00     0.035 A 
HETATM    9  C13 UNL     1      24.877   1.455  51.660  1.00  0.00     0.056 A 
HETATM   10  C14 UNL     1      25.138   0.442  52.715  1.00  0.00     0.117 A 
HETATM   11  O2  UNL     1      23.923  -0.184  52.908  1.00  0.00    -0.345 OA
HETATM   12  C15 UNL     1      23.069  -0.294  53.936  1.00  0.00     0.209 C 
HETATM   13  C16 UNL     1      21.715  -0.928  53.742  1.00  0.00     0.164 C 
HETATM   14  C17 UNL     1      20.581  -0.065  53.308  1.00  0.00     0.189 A 
HETATM   15  N4  UNL     1      20.194   0.107  51.939  1.00  0.00    -0.383 N 
HETATM   16  C18 UNL     1      21.310   0.452  51.851  1.00  0.00     0.065 A 
HETATM   17  P1  UNL     1      22.458   0.788  51.777  1.00  0.00     0.161 P 
HETATM   18  F1  UNL     1      22.998   0.952  51.733  1.00  0.00    -0.214 F 
HETATM   19  H21 UNL     1      19.937   0.236  50.965  1.00  0.00     0.160 HD
ENDROOT
BRANCH   7  20
HETATM   20  C7  UNL     1      22.747   2.592  49.810  1.00  0.00     0.067 C 
BRANCH  20  21
HETATM   21  C8  UNL     1      22.410   2.229  48.395  1.00  0.00     0.277 C 
BRANCH  21  22
HETATM   22  N3  UNL     1      22.350   3.315  47.460  1.00  0.00     0.079 N 
HETATM   23  H9  UNL     1      21.886   4.150  47.939  1.00  0.00     0.312 HD
HETATM   24  H10 UNL     1      23.301   3.702  47.233  1.00  0.00     0.312 HD
ENDBRANCH  21  22
ENDBRANCH  20  21
BRANCH  20  25
HETATM   25  C9  UNL     1      22.185   4.092  49.790  1.00  0.00     0.019 C 
BRANCH  25  26
HETATM   26  C10 UNL     1      21.637   4.402  51.103  1.00  0.00     0.012 C 
BRANCH  26  27
HETATM   27  C11 UNL     1      22.164   5.228  51.988  1.00  0.00     0.237 C 
HETATM   28 CL1  UNL     1      23.470   4.730  53.018  1.00  0.00    -0.255 Cl
ENDBRANCH  26  27
ENDBRANCH  25  26
ENDBRANCH  20  25
ENDBRANCH   7  20
BRANCH   1  29
HETATM   29  O1  UNL     1      26.773  -0.109  53.790  1.00  0.00    -0.353 OA
HETATM   30  C1  UNL     1      27.888   0.044  54.620  1.00  0.00     0.210 C 
ENDBRANCH   1  29
BRANCH  13  31
HETATM   31  O3  UNL     1      21.356  -1.015  55.247  1.00  0.00    -0.391 OA
HETATM   32  H18 UNL     1      22.024  -0.375  55.572  1.00  0.00     0.210 HD
ENDBRANCH  13  31
TORSDOF 8
ENDMDL
MODEL 6
REMARK VINA RESULT:      -7.2      2.877      5.336
REMARK  8 active torsions:
REMARK  status: ('A' for Active; 'I' for Inactive)
REMARK    1  A    between atoms: O1_2  and  C2_3 
REMARK    2  A    between atoms: C6_9  and  C7_10 
REMARK    3  A    between atoms: C7_10  and  C8_11 
REMARK    4  A    between atoms: C7_10  and  C9_13 
REMARK    5  A    between atoms: C8_11  and  N3_12 
REMARK    6  A    between atoms: C9_13  and  C10_14 
REMARK    7  A    between atoms: C10_14  and  C11_15 
REMARK    8  A    between atoms: C16_22  and  O3_23 
ROOT
HETATM    1  C2  UNL     1      26.107   4.104  49.632  1.00  0.00     0.104 A 
HETATM    2  C3  UNL     1      24.967   4.701  49.207  1.00  0.00     0.072 A 
HETATM    3  C4  UNL     1      23.684   4.364  49.497  1.00  0.00     0.074 A 
HETATM    4  N1  UNL     1      22.532   4.907  49.129  1.00  0.00    -0.241 NA
HETATM    5  C5  UNL     1      21.344   4.388  49.564  1.00  0.00     0.234 A 
HETATM    6  N2  UNL     1      21.294   3.317  50.373  1.00  0.00    -0.245 NA
HETATM    7  C6  UNL     1      22.353   2.626  50.856  1.00  0.00     0.055 A 
HETATM    8  C12 UNL     1      23.362   3.318  50.299  1.00  0.00     0.035 A 
HETATM    9  C13 UNL     1      24.637   2.982  50.523  1.00  0.00     0.056 A 
HETATM   10  C14 UNL     1      26.119   3.042  50.439  1.00  0.00     0.117 A 
HETATM   11  O2  UNL     1      26.559   1.996  51.224  1.00  0.00    -0.345 OA
HETATM   12  C15 UNL     1      27.284   1.898  52.348  1.00  0.00     0.209 C 
HETATM   13  C16 UNL     1      27.436   0.571  53.047  1.00  0.00     0.164 C 
HETATM   14  C17 UNL     1      26.412   0.177  54.054  1.00  0.00     0.189 A 
HETATM   15  N4  UNL     1      25.267  -0.628  53.748  1.00  0.00    -0.383 N 
HETATM   16  C18 UNL     1      25.085   0.236  52.979  1.00  0.00     0.065 A 
HETATM   17  P1  UNL     1      24.923   1.121  52.187  1.00  0.00     0.161 P 
HETATM   18  F1  UNL     1      24.836   1.537  51.813  1.00  0.00    -0.214 F 
HETATM   19  H21 UNL     1      24.450  -1.186  53.518  1.00  0.00     0.160 HD
ENDROOT
BRANCH   7  20
HETATM   20  C7  UNL     1      22.300   1.440  51.712  1.00  0.00     0.067 C 
BRANCH  20  21
HETATM   21  C8  UNL     1      21.565   0.288  51.096  1.00  0.00     0.277 C 
BRANCH  21  22
HETATM   22  N3  UNL     1      21.215   0.427  49.711  1.00  0.00     0.079 N 
HETATM   23  H9  UNL     1      20.474  -0.305  49.473  1.00  0.00     0.312 HD
HETATM   24  H10 UNL     1      20.701   1.322  49.516  1.00  0.00     0.312 HD
ENDBRANCH  21  22
ENDBRANCH  20  21
BRANCH  20  25
HETATM   25  C9  UNL     1      21.129   1.954  52.676  1.00  0.00     0.019 C 
BRANCH  25  26
HETATM   26  C10 UNL     1      20.560   0.808  53.372  1.00  0.00     0.012 C 
BRANCH  26  27
HETATM   27  C11 UNL     1      20.868   0.409  54.592  1.00  0.00     0.237 C 
HETATM   28 CL1  UNL     1      21.912  -0.953  54.856  1.00  0.00    -0.255 Cl
ENDBRANCH  26  27
ENDBRANCH  25  26
ENDBRANCH  20  25
ENDBRANCH   7  20
BRANCH   1  29
HETATM   29  O1  UNL     1      27.444   4.252  49.483  1.00  0.00    -0.353 OA
HETATM   30  C1  UNL     1      28.032   5.062  48.507  1.00  0.00     0.210 C 
ENDBRANCH   1  29
BRANCH  13  31
HETATM   31  O3  UNL     1      28.542   1.030  54.032  1.00  0.00    -0.391 OA
HETATM   32  H18 UNL     1      28.856   0.139  54.292  1.00  0.00     0.210 HD
ENDBRANCH  13  31
TORSDOF 8
ENDMDL
MODEL 7
REMARK VINA RESULT:      -7.2      2.699      5.185
REMARK  8 active torsions:
REMARK  status: ('A' for Active; 'I' for Inactive)
REMARK    1  A    between atoms: O1_2  and  C2_3 
REMARK    2  A    between atoms: C6_9  and  C7_10 
REMARK    3  A    between atoms: C7_10  and  C8_11 
REMARK    4  A    between atoms: C7_10  and  C9_13 
REMARK    5  A    between atoms: C8_11  and  N3_12 
REMARK    6  A    between atoms: C9_13  and  C10_14 
REMARK    7  A    between atoms: C10_14  and  C11_15 
REMARK    8  A    between atoms: C16_22  and  O3_23 
ROOT
HETATM    1  C2  UNL     1      26.485   1.040  52.315  1.00  0.00     0.104 A 
HETATM    2  C3  UNL     1      26.790   2.130  51.570  1.00  0.00     0.072 A 
HETATM    3  C4  UNL     1      25.950   2.918  50.849  1.00  0.00     0.074 A 
HETATM    4  N1  UNL     1      26.177   3.996  50.113  1.00  0.00    -0.241 NA
HETATM    5  C5  UNL     1      25.151   4.637  49.477  1.00  0.00     0.234 A 
HETATM    6  N2  UNL     1      23.882   4.205  49.569  1.00  0.00    -0.245 NA
HETATM    7  C6  UNL     1      23.449   3.130  50.268  1.00  0.00     0.055 A 
HETATM    8  C12 UNL     1      24.614   2.696  50.781  1.00  0.00     0.035 A 
HETATM    9  C13 UNL     1      24.659   1.622  51.577  1.00  0.00     0.056 A 
HETATM   10  C14 UNL     1      25.244   0.570  52.448  1.00  0.00     0.117 A 
HETATM   11  O2  UNL     1      24.170  -0.205  52.832  1.00  0.00    -0.345 OA
HETATM   12  C15 UNL     1      23.580  -0.490  54.003  1.00  0.00     0.209 C 
HETATM   13  C16 UNL     1      22.285  -1.260  54.041  1.00  0.00     0.164 C 
HETATM   14  C17 UNL     1      21.005  -0.504  53.945  1.00  0.00     0.189 A 
HETATM   15  N4  UNL     1      20.309  -0.276  52.714  1.00  0.00    -0.383 N 
HETATM   16  C18 UNL     1      21.338   0.202  52.425  1.00  0.00     0.065 A 
HETATM   17  P1  UNL     1      22.403   0.672  52.140  1.00  0.00     0.161 P 
HETATM   18  F1  UNL     1      22.901   0.901  51.999  1.00  0.00    -0.214 F 
HETATM   19  H21 UNL     1      19.830  -0.105  51.835  1.00  0.00     0.160 HD
ENDROOT
BRANCH   7  20
HETATM   20  C7  UNL     1      22.072   2.639  50.344  1.00  0.00     0.067 C 
BRANCH  20  21
HETATM   21  C8  UNL     1      21.435   2.430  49.003  1.00  0.00     0.277 C 
BRANCH  21  22
HETATM   22  N3  UNL     1      20.449   1.390  48.926  1.00  0.00     0.079 N 
HETATM   23  H9  UNL     1      20.818   0.620  48.283  1.00  0.00     0.312 HD
HETATM   24  H10 UNL     1      20.337   0.875  49.834  1.00  0.00     0.312 HD
ENDBRANCH  21  22
ENDBRANCH  20  21
BRANCH  20  25
HETATM   25  C9  UNL     1      21.389   4.046  50.692  1.00  0.00     0.019 C 
BRANCH  25  26
HETATM   26  C10 UNL     1      20.343   3.825  51.681  1.00  0.00     0.012 C 
BRANCH  26  27
HETATM   27  C11 UNL     1      19.045   3.776  51.440  1.00  0.00     0.237 C 
HETATM   28 CL1  UNL     1      18.170   2.279  51.528  1.00  0.00    -0.255 Cl
ENDBRANCH  26  27
ENDBRANCH  25  26
ENDBRANCH  20  25
ENDBRANCH   7  20
BRANCH   1  29
HETATM   29  O1  UNL     1      27.123   0.132  53.089  1.00  0.00    -0.353 OA
HETATM   30  C1  UNL     1      27.354   0.303  54.458  1.00  0.00     0.210 C 
ENDBRANCH   1  29
BRANCH  13  31
HETATM   31  O3  UNL     1      22.280  -1.499  55.572  1.00  0.00    -0.391 OA
HETATM   32  H18 UNL     1      21.531  -0.906  55.789  1.00  0.00     0.210 HD
ENDBRANCH  13  31
TORSDOF 8
ENDMDL
MODEL 8
REMARK VINA RESULT:      -6.6      4.070      7.148
REMARK  8 active torsions:
REMARK  status: ('A' for Active; 'I' for Inactive)
REMARK    1  A    between atoms: O1_2  and  C2_3 
REMARK    2  A    between atoms: C6_9  and  C7_10 
REMARK    3  A    between atoms: C7_10  and  C8_11 
REMARK    4  A    between atoms: C7_10  and  C9_13 
REMARK    5  A    between atoms: C8_11  and  N3_12 
REMARK    6  A    between atoms: C9_13  and  C10_14 
REMARK    7  A    between atoms: C10_14  and  C11_15 
REMARK    8  A    between atoms: C16_22  and  O3_23 
ROOT
HETATM    1  C2  UNL     1      25.412   3.247  51.121  1.00  0.00     0.104 A 
HETATM    2  C3  UNL     1      25.876   2.077  51.625  1.00  0.00     0.072 A 
HETATM    3  C4  UNL     1      25.181   1.106  52.270  1.00  0.00     0.074 A 
HETATM    4  N1  UNL     1      25.565  -0.058  52.774  1.00  0.00    -0.241 NA
HETATM    5  C5  UNL     1      24.666  -0.889  53.381  1.00  0.00     0.234 A 
HETATM    6  N2  UNL     1      23.366  -0.564  53.492  1.00  0.00    -0.245 NA
HETATM    7  C6  UNL     1      22.782   0.571  53.045  1.00  0.00     0.055 A 
HETATM    8  C12 UNL     1      23.848   1.191  52.507  1.00  0.00     0.035 A 
HETATM    9  C13 UNL     1      23.727   2.385  51.917  1.00  0.00     0.056 A 
HETATM   10  C14 UNL     1      24.134   3.619  51.198  1.00  0.00     0.117 A 
HETATM   11  O2  UNL     1      22.970   4.349  51.066  1.00  0.00    -0.345 OA
HETATM   12  C15 UNL     1      22.234   4.776  50.029  1.00  0.00     0.209 C 
HETATM   13  C16 UNL     1      20.891   5.421  50.258  1.00  0.00     0.164 C 
HETATM   14  C17 UNL     1      19.688   4.547  50.340  1.00  0.00     0.189 A 
HETATM   15  N4  UNL     1      19.152   4.049  51.571  1.00  0.00    -0.383 N 
HETATM   16  C18 UNL     1      20.238   3.624  51.668  1.00  0.00     0.065 A 
HETATM   17  P1  UNL     1      21.360   3.209  51.757  1.00  0.00     0.161 P 
HETATM   18  F1  UNL     1      21.886   3.006  51.806  1.00  0.00    -0.214 F 
HETATM   19  H21 UNL     1      18.788   3.688  52.448  1.00  0.00     0.160 HD
ENDROOT
BRANCH   7  20
HETATM   20  C7  UNL     1      21.374   0.942  53.193  1.00  0.00     0.067 C 
BRANCH  20  21
HETATM   21  C8  UNL     1      20.801   0.598  54.536  1.00  0.00     0.277 C 
BRANCH  21  22
HETATM   22  N3  UNL     1      20.950  -0.765  54.958  1.00  0.00     0.079 N 
HETATM   23  H9  UNL     1      21.974  -0.930  55.218  1.00  0.00     0.312 HD
HETATM   24  H10 UNL     1      20.465  -0.958  55.870  1.00  0.00     0.312 HD
ENDBRANCH  21  22
ENDBRANCH  20  21
BRANCH  20  25
HETATM   25  C9  UNL     1      20.766  -0.295  52.375  1.00  0.00     0.019 C 
BRANCH  25  26
HETATM   26  C10 UNL     1      19.486   0.106  51.807  1.00  0.00     0.012 C 
BRANCH  26  27
HETATM   27  C11 UNL     1      18.335  -0.521  51.969  1.00  0.00     0.237 C 
HETATM   28 CL1  UNL     1      18.037  -1.508  53.366  1.00  0.00    -0.255 Cl
ENDBRANCH  26  27
ENDBRANCH  25  26
ENDBRANCH  20  25
ENDBRANCH   7  20
BRANCH   1  29
HETATM   29  O1  UNL     1      25.893   4.329  50.465  1.00  0.00    -0.353 OA
HETATM   30  C1  UNL     1      26.710   4.251  49.333  1.00  0.00     0.210 C 
ENDBRANCH   1  29
BRANCH  13  31
HETATM   31  O3  UNL     1      20.698   5.918  48.802  1.00  0.00    -0.391 OA
HETATM   32  H18 UNL     1      19.768   6.215  48.894  1.00  0.00     0.210 HD
ENDBRANCH  13  31
TORSDOF 8
ENDMDL
MODEL 9
REMARK VINA RESULT:      -6.5      2.144      2.568
REMARK  8 active torsions:
REMARK  status: ('A' for Active; 'I' for Inactive)
REMARK    1  A    between atoms: O1_2  and  C2_3 
REMARK    2  A    between atoms: C6_9  and  C7_10 
REMARK    3  A    between atoms: C7_10  and  C8_11 
REMARK    4  A    between atoms: C7_10  and  C9_13 
REMARK    5  A    between atoms: C8_11  and  N3_12 
REMARK    6  A    between atoms: C9_13  and  C10_14 
REMARK    7  A    between atoms: C10_14  and  C11_15 
REMARK    8  A    between atoms: C16_22  and  O3_23 
ROOT
HETATM    1  C2  UNL     1      19.900   0.879  52.616  1.00  0.00     0.104 A 
HETATM    2  C3  UNL     1      19.102   1.697  51.887  1.00  0.00     0.072 A 
HETATM    3  C4  UNL     1      19.430   2.866  51.279  1.00  0.00     0.074 A 
HETATM    4  N1  UNL     1      18.709   3.704  50.547  1.00  0.00    -0.241 NA
HETATM    5  C5  UNL     1      19.269   4.835  50.023  1.00  0.00     0.234 A 
HETATM    6  N2  UNL     1      20.562   5.142  50.224  1.00  0.00    -0.245 NA
HETATM    7  C6  UNL     1      21.457   4.420  50.937  1.00  0.00     0.055 A 
HETATM    8  C12 UNL     1      20.677   3.396  51.329  1.00  0.00     0.035 A 
HETATM    9  C13 UNL     1      21.169   2.400  52.073  1.00  0.00     0.056 A 
HETATM   10  C14 UNL     1      21.190   1.130  52.844  1.00  0.00     0.117 A 
HETATM   11  O2  UNL     1      22.489   1.014  53.295  1.00  0.00    -0.345 OA
HETATM   12  C15 UNL     1      23.486   0.141  53.092  1.00  0.00     0.209 C 
HETATM   13  C16 UNL     1      24.868   0.420  53.625  1.00  0.00     0.164 C 
HETATM   14  C17 UNL     1      25.811   1.203  52.779  1.00  0.00     0.189 A 
HETATM   15  N4  UNL     1      25.977   2.622  52.881  1.00  0.00    -0.383 N 
HETATM   16  C18 UNL     1      24.826   2.595  52.670  1.00  0.00     0.065 A 
HETATM   17  P1  UNL     1      23.645   2.547  52.469  1.00  0.00     0.161 P 
HETATM   18  F1  UNL     1      23.088   2.534  52.369  1.00  0.00    -0.214 F 
HETATM   19  H21 UNL     1      26.077   3.631  52.950  1.00  0.00     0.160 HD
ENDROOT
BRANCH   7  20
HETATM   20  C7  UNL     1      22.857   4.769  51.185  1.00  0.00     0.067 C 
BRANCH  20  21
HETATM   21  C8  UNL     1      23.041   6.148  51.744  1.00  0.00     0.277 C 
BRANCH  21  22
HETATM   22  N3  UNL     1      24.350   6.459  52.243  1.00  0.00     0.079 N 
HETATM   23  H9  UNL     1      24.297   6.534  53.308  1.00  0.00     0.312 HD
HETATM   24  H10 UNL     1      25.026   5.664  52.120  1.00  0.00     0.312 HD
ENDBRANCH  21  22
ENDBRANCH  20  21
BRANCH  20  25
HETATM   25  C9  UNL     1      23.242   5.097  49.665  1.00  0.00     0.019 C 
BRANCH  25  26
HETATM   26  C10 UNL     1      23.794   3.896  49.054  1.00  0.00     0.012 C 
BRANCH  26  27
HETATM   27  C11 UNL     1      25.026   3.446  49.202  1.00  0.00     0.237 C 
HETATM   28 CL1  UNL     1      26.322   4.508  49.657  1.00  0.00    -0.255 Cl
ENDBRANCH  26  27
ENDBRANCH  25  26
ENDBRANCH  20  25
ENDBRANCH   7  20
BRANCH   1  29
HETATM   29  O1  UNL     1      19.805  -0.289  53.292  1.00  0.00    -0.353 OA
HETATM   30  C1  UNL     1      18.680  -1.119  53.255  1.00  0.00     0.210 C 
ENDBRANCH   1  29
BRANCH  13  31
HETATM   31  O3  UNL     1      25.443  -0.991  53.338  1.00  0.00    -0.391 OA
HETATM   32  H18 UNL     1      26.392  -0.760  53.422  1.00  0.00     0.210 HD
ENDBRANCH  13  31
TORSDOF 8
ENDMDL
