MODEL 1
REMARK VINA RESULT:      -7.8      0.000      0.000
REMARK  5 active torsions:
REMARK  status: ('A' for Active; 'I' for Inactive)
REMARK    1  A    between atoms: C2_2  and  C3_3 
REMARK    2  A    between atoms: C6_6  and  N1_7 
REMARK    3  A    between atoms: C9_10  and  O1_11 
REMARK    4  A    between atoms: C13_15  and  O2_16 
REMARK    5  A    between atoms: C18_23  and  O3_24 
ROOT
HETATM    1  C3  UNL     1      25.260   0.340  53.394  1.00  0.00    -0.024 A 
HETATM    2  C4  UNL     1      24.573   1.125  52.501  1.00  0.00     0.027 A 
HETATM    3  C5  UNL     1      25.221   2.008  51.693  1.00  0.00     0.040 A 
HETATM    4  C6  UNL     1      24.384   2.726  50.872  1.00  0.00     0.147 A 
HETATM    5  N2  UNL     1      25.040   3.620  50.085  1.00  0.00    -0.223 NA
HETATM    6  C15 UNL     1      26.370   3.786  50.105  1.00  0.00     0.236 A 
HETATM    7  N3  UNL     1      27.145   3.036  50.944  1.00  0.00    -0.241 NA
HETATM    8  C16 UNL     1      26.587   2.138  51.750  1.00  0.00     0.074 A 
HETATM    9  C17 UNL     1      27.264   1.345  52.648  1.00  0.00     0.070 A 
HETATM   10  C18 UNL     1      26.654   0.428  53.495  1.00  0.00     0.076 A 
ENDROOT
BRANCH   4  11
HETATM   11  N1  UNL     1      22.995   2.679  50.627  1.00  0.00    -0.314 N 
HETATM   12  C7  UNL     1      22.268   3.589  51.509  1.00  0.00     0.101 C 
HETATM   13  C8  UNL     1      21.011   3.797  51.947  1.00  0.00     0.054 C 
HETATM   14  C9  UNL     1      19.761   3.090  51.656  1.00  0.00     0.066 C 
HETATM   15  C11 UNL     1      19.496   1.972  51.001  1.00  0.00     0.016 C 
HETATM   16  C12 UNL     1      20.071   0.843  50.245  1.00  0.00     0.095 C 
HETATM   17  C13 UNL     1      21.274   1.185  49.455  1.00  0.00     0.062 C 
HETATM   18  C14 UNL     1      22.381   1.888  49.617  1.00  0.00     0.130 C 
BRANCH  14  19
HETATM   19  O1  UNL     1      18.643   3.729  52.174  1.00  0.00    -0.356 OA
HETATM   20  C10 UNL     1      17.366   3.738  51.625  1.00  0.00     0.210 C 
ENDBRANCH  14  19
BRANCH  17  21
HETATM   21  O2  UNL     1      21.283   0.629  48.168  1.00  0.00    -0.363 OA
HETATM   22  H15 UNL     1      20.567  -0.051  47.952  1.00  0.00     0.217 HD
ENDBRANCH  17  21
ENDBRANCH   4  11
BRANCH   1  23
HETATM   23  C2  UNL     1      24.622  -0.657  54.318  1.00  0.00     0.037 C 
HETATM   24  C1  UNL     1      23.144  -0.710  53.997  1.00  0.00     0.010 C 
ENDBRANCH   1  23
BRANCH  10  25
HETATM   25  O3  UNL     1      27.362  -0.347  54.380  1.00  0.00    -0.355 OA
HETATM   26  C19 UNL     1      28.713  -0.111  54.742  1.00  0.00     0.210 C 
ENDBRANCH  10  25
TORSDOF 5
ENDMDL
MODEL 2
REMARK VINA RESULT:      -7.7      2.363      6.967
REMARK  5 active torsions:
REMARK  status: ('A' for Active; 'I' for Inactive)
REMARK    1  A    between atoms: C2_2  and  C3_3 
REMARK    2  A    between atoms: C6_6  and  N1_7 
REMARK    3  A    between atoms: C9_10  and  O1_11 
REMARK    4  A    between atoms: C13_15  and  O2_16 
REMARK    5  A    between atoms: C18_23  and  O3_24 
ROOT
HETATM    1  C3  UNL     1      22.297  -0.082  53.521  1.00  0.00    -0.024 A 
HETATM    2  C4  UNL     1      23.489   0.383  53.022  1.00  0.00     0.027 A 
HETATM    3  C5  UNL     1      23.532   1.450  52.178  1.00  0.00     0.040 A 
HETATM    4  C6  UNL     1      24.801   1.775  51.759  1.00  0.00     0.147 A 
HETATM    5  N2  UNL     1      24.830   2.827  50.899  1.00  0.00    -0.223 NA
HETATM    6  C15 UNL     1      23.733   3.485  50.498  1.00  0.00     0.236 A 
HETATM    7  N3  UNL     1      22.501   3.112  50.955  1.00  0.00    -0.241 NA
HETATM    8  C16 UNL     1      22.379   2.092  51.799  1.00  0.00     0.074 A 
HETATM    9  C17 UNL     1      21.191   1.616  52.306  1.00  0.00     0.070 A 
HETATM   10  C18 UNL     1      21.089   0.534  53.171  1.00  0.00     0.076 A 
ENDROOT
BRANCH   4  11
HETATM   11  N1  UNL     1      26.083   1.288  52.091  1.00  0.00    -0.314 N 
HETATM   12  C7  UNL     1      26.116  -0.173  52.083  1.00  0.00     0.101 C 
HETATM   13  C8  UNL     1      26.885  -1.177  52.547  1.00  0.00     0.054 C 
HETATM   14  C9  UNL     1      28.127  -1.159  53.326  1.00  0.00     0.066 C 
HETATM   15  C11 UNL     1      28.794  -0.187  53.925  1.00  0.00     0.016 C 
HETATM   16  C12 UNL     1      28.829   1.259  54.218  1.00  0.00     0.095 C 
HETATM   17  C13 UNL     1      28.265   2.114  53.150  1.00  0.00     0.062 C 
HETATM   18  C14 UNL     1      27.216   2.109  52.348  1.00  0.00     0.130 C 
BRANCH  14  19
HETATM   19  O1  UNL     1      28.706  -2.414  53.453  1.00  0.00    -0.356 OA
HETATM   20  C10 UNL     1      30.020  -2.686  53.813  1.00  0.00     0.210 C 
ENDBRANCH  14  19
BRANCH  17  21
HETATM   21  O2  UNL     1      29.026   3.260  52.882  1.00  0.00    -0.363 OA
HETATM   22  H15 UNL     1      28.524   4.113  52.674  1.00  0.00     0.217 HD
ENDBRANCH  17  21
ENDBRANCH   4  11
BRANCH   1  23
HETATM   23  C2  UNL     1      22.163  -1.249  54.455  1.00  0.00     0.037 C 
HETATM   24  C1  UNL     1      23.365  -1.250  55.374  1.00  0.00     0.010 C 
ENDBRANCH   1  23
BRANCH  10  25
HETATM   25  O3  UNL     1      19.885   0.086  53.657  1.00  0.00    -0.355 OA
HETATM   26  C19 UNL     1      18.889  -0.540  52.864  1.00  0.00     0.210 C 
ENDBRANCH  10  25
TORSDOF 5
ENDMDL
MODEL 3
REMARK VINA RESULT:      -7.5      2.418      7.590
REMARK  5 active torsions:
REMARK  status: ('A' for Active; 'I' for Inactive)
REMARK    1  A    between atoms: C2_2  and  C3_3 
REMARK    2  A    between atoms: C6_6  and  N1_7 
REMARK    3  A    between atoms: C9_10  and  O1_11 
REMARK    4  A    between atoms: C13_15  and  O2_16 
REMARK    5  A    between atoms: C18_23  and  O3_24 
ROOT
HETATM    1  C3  UNL     1      20.979   0.964  50.143  1.00  0.00    -0.024 A 
HETATM    2  C4  UNL     1      22.024   0.785  51.015  1.00  0.00     0.027 A 
HETATM    3  C5  UNL     1      21.816   0.343  52.285  1.00  0.00     0.040 A 
HETATM    4  C6  UNL     1      22.966   0.234  53.030  1.00  0.00     0.147 A 
HETATM    5  N2  UNL     1      22.743  -0.187  54.304  1.00  0.00    -0.223 NA
HETATM    6  C15 UNL     1      21.525  -0.471  54.786  1.00  0.00     0.236 A 
HETATM    7  N3  UNL     1      20.422  -0.344  53.990  1.00  0.00    -0.241 NA
HETATM    8  C16 UNL     1      20.547   0.064  52.731  1.00  0.00     0.074 A 
HETATM    9  C17 UNL     1      19.508   0.248  51.846  1.00  0.00     0.070 A 
HETATM   10  C18 UNL     1      19.664   0.695  50.541  1.00  0.00     0.076 A 
ENDROOT
BRANCH   4  11
HETATM   11  N1  UNL     1      24.334   0.402  52.728  1.00  0.00    -0.314 N 
HETATM   12  C7  UNL     1      25.103  -0.795  53.058  1.00  0.00     0.101 C 
HETATM   13  C8  UNL     1      26.383  -1.160  53.263  1.00  0.00     0.054 C 
HETATM   14  C9  UNL     1      27.624  -0.381  53.222  1.00  0.00     0.066 C 
HETATM   15  C11 UNL     1      27.866   0.915  53.113  1.00  0.00     0.016 C 
HETATM   16  C12 UNL     1      27.261   2.254  52.980  1.00  0.00     0.095 C 
HETATM   17  C13 UNL     1      25.997   2.282  52.212  1.00  0.00     0.062 C 
HETATM   18  C14 UNL     1      24.890   1.567  52.129  1.00  0.00     0.130 C 
BRANCH  14  19
HETATM   19  O1  UNL     1      28.763  -1.169  53.319  1.00  0.00    -0.356 OA
HETATM   20  C10 UNL     1      30.059  -0.725  53.550  1.00  0.00     0.210 C 
ENDBRANCH  14  19
BRANCH  17  21
HETATM   21  O2  UNL     1      25.906   3.351  51.310  1.00  0.00    -0.363 OA
HETATM   22  H15 UNL     1      25.624   3.136  50.363  1.00  0.00     0.217 HD
ENDBRANCH  17  21
ENDBRANCH   4  11
BRANCH   1  23
HETATM   23  C2  UNL     1      21.123   1.448  48.728  1.00  0.00     0.037 C 
HETATM   24  C1  UNL     1      22.063   2.634  48.735  1.00  0.00     0.010 C 
ENDBRANCH   1  23
BRANCH  10  25
HETATM   25  O3  UNL     1      18.603   0.868  49.686  1.00  0.00    -0.355 OA
HETATM   26  C19 UNL     1      17.303   0.349  49.915  1.00  0.00     0.210 C 
ENDBRANCH  10  25
TORSDOF 5
ENDMDL
MODEL 4
REMARK VINA RESULT:      -7.5      2.626      4.460
REMARK  5 active torsions:
REMARK  status: ('A' for Active; 'I' for Inactive)
REMARK    1  A    between atoms: C2_2  and  C3_3 
REMARK    2  A    between atoms: C6_6  and  N1_7 
REMARK    3  A    between atoms: C9_10  and  O1_11 
REMARK    4  A    between atoms: C13_15  and  O2_16 
REMARK    5  A    between atoms: C18_23  and  O3_24 
ROOT
HETATM    1  C3  UNL     1      26.876   0.879  52.912  1.00  0.00    -0.024 A 
HETATM    2  C4  UNL     1      25.681   1.370  52.444  1.00  0.00     0.027 A 
HETATM    3  C5  UNL     1      24.502   0.762  52.747  1.00  0.00     0.040 A 
HETATM    4  C6  UNL     1      23.405   1.371  52.186  1.00  0.00     0.147 A 
HETATM    5  N2  UNL     1      22.234   0.743  52.477  1.00  0.00    -0.223 NA
HETATM    6  C15 UNL     1      22.155  -0.360  53.236  1.00  0.00     0.236 A 
HETATM    7  N3  UNL     1      23.286  -0.913  53.766  1.00  0.00    -0.241 NA
HETATM    8  C16 UNL     1      24.474  -0.364  53.532  1.00  0.00     0.074 A 
HETATM    9  C17 UNL     1      25.679  -0.845  53.994  1.00  0.00     0.070 A 
HETATM   10  C18 UNL     1      26.910  -0.265  53.717  1.00  0.00     0.076 A 
ENDROOT
BRANCH   4  11
HETATM   11  N1  UNL     1      23.233   2.550  51.429  1.00  0.00    -0.314 N 
HETATM   12  C7  UNL     1      22.699   2.257  50.102  1.00  0.00     0.101 C 
HETATM   13  C8  UNL     1      22.583   2.849  48.897  1.00  0.00     0.054 C 
HETATM   14  C9  UNL     1      23.006   4.172  48.429  1.00  0.00     0.066 C 
HETATM   15  C11 UNL     1      23.739   5.125  48.980  1.00  0.00     0.016 C 
HETATM   16  C12 UNL     1      24.510   5.526  50.173  1.00  0.00     0.095 C 
HETATM   17  C13 UNL     1      23.978   5.002  51.451  1.00  0.00     0.062 C 
HETATM   18  C14 UNL     1      23.495   3.863  51.912  1.00  0.00     0.130 C 
BRANCH  14  19
HETATM   19  O1  UNL     1      22.541   4.472  47.156  1.00  0.00    -0.356 OA
HETATM   20  C10 UNL     1      21.807   3.634  46.324  1.00  0.00     0.210 C 
ENDBRANCH  14  19
BRANCH  17  21
HETATM   21  O2  UNL     1      23.966   5.944  52.488  1.00  0.00    -0.363 OA
HETATM   22  H15 UNL     1      23.071   6.329  52.755  1.00  0.00     0.217 HD
ENDBRANCH  17  21
ENDBRANCH   4  11
BRANCH   1  23
HETATM   23  C2  UNL     1      28.217   1.489  52.625  1.00  0.00     0.037 C 
HETATM   24  C1  UNL     1      28.500   2.518  53.698  1.00  0.00     0.010 C 
ENDBRANCH   1  23
BRANCH  10  25
HETATM   25  O3  UNL     1      28.093  -0.773  54.196  1.00  0.00    -0.355 OA
HETATM   26  C19 UNL     1      28.956  -1.618  53.452  1.00  0.00     0.210 C 
ENDBRANCH  10  25
TORSDOF 5
ENDMDL
MODEL 5
REMARK VINA RESULT:      -7.4      2.171      4.300
REMARK  5 active torsions:
REMARK  status: ('A' for Active; 'I' for Inactive)
REMARK    1  A    between atoms: C2_2  and  C3_3 
REMARK    2  A    between atoms: C6_6  and  N1_7 
REMARK    3  A    between atoms: C9_10  and  O1_11 
REMARK    4  A    between atoms: C13_15  and  O2_16 
REMARK    5  A    between atoms: C18_23  and  O3_24 
ROOT
HETATM    1  C3  UNL     1      25.885   0.610  52.688  1.00  0.00    -0.024 A 
HETATM    2  C4  UNL     1      24.606   1.003  52.374  1.00  0.00     0.027 A 
HETATM    3  C5  UNL     1      23.531   0.506  53.043  1.00  0.00     0.040 A 
HETATM    4  C6  UNL     1      22.326   0.990  52.593  1.00  0.00     0.147 A 
HETATM    5  N2  UNL     1      21.257   0.470  53.254  1.00  0.00    -0.223 NA
HETATM    6  C15 UNL     1      21.366  -0.424  54.247  1.00  0.00     0.236 A 
HETATM    7  N3  UNL     1      22.596  -0.861  54.648  1.00  0.00    -0.241 NA
HETATM    8  C16 UNL     1      23.696  -0.407  54.056  1.00  0.00     0.074 A 
HETATM    9  C17 UNL     1      24.982  -0.791  54.361  1.00  0.00     0.070 A 
HETATM   10  C18 UNL     1      26.114  -0.316  53.712  1.00  0.00     0.076 A 
ENDROOT
BRANCH   4  11
HETATM   11  N1  UNL     1      21.971   1.964  51.636  1.00  0.00    -0.314 N 
HETATM   12  C7  UNL     1      21.573   1.348  50.373  1.00  0.00     0.101 C 
HETATM   13  C8  UNL     1      21.408   1.690  49.080  1.00  0.00     0.054 C 
HETATM   14  C9  UNL     1      21.593   2.970  48.391  1.00  0.00     0.066 C 
HETATM   15  C11 UNL     1      22.100   4.130  48.776  1.00  0.00     0.016 C 
HETATM   16  C12 UNL     1      22.716   4.874  49.892  1.00  0.00     0.095 C 
HETATM   17  C13 UNL     1      22.229   4.482  51.233  1.00  0.00     0.062 C 
HETATM   18  C14 UNL     1      21.950   3.366  51.881  1.00  0.00     0.130 C 
BRANCH  14  19
HETATM   19  O1  UNL     1      21.146   2.949  47.077  1.00  0.00    -0.356 OA
HETATM   20  C10 UNL     1      21.646   3.702  46.021  1.00  0.00     0.210 C 
ENDBRANCH  14  19
BRANCH  17  21
HETATM   21  O2  UNL     1      21.982   5.566  52.085  1.00  0.00    -0.363 OA
HETATM   22  H15 UNL     1      21.063   5.631  52.500  1.00  0.00     0.217 HD
ENDBRANCH  17  21
ENDBRANCH   4  11
BRANCH   1  23
HETATM   23  C2  UNL     1      27.122   1.110  52.000  1.00  0.00     0.037 C 
HETATM   24  C1  UNL     1      26.756   2.364  51.236  1.00  0.00     0.010 C 
ENDBRANCH   1  23
BRANCH  10  25
HETATM   25  O3  UNL     1      27.383  -0.723  54.044  1.00  0.00    -0.355 OA
HETATM   26  C19 UNL     1      28.250  -0.004  54.906  1.00  0.00     0.210 C 
ENDBRANCH  10  25
TORSDOF 5
ENDMDL
MODEL 6
REMARK VINA RESULT:      -7.3      3.044      5.872
REMARK  5 active torsions:
REMARK  status: ('A' for Active; 'I' for Inactive)
REMARK    1  A    between atoms: C2_2  and  C3_3 
REMARK    2  A    between atoms: C6_6  and  N1_7 
REMARK    3  A    between atoms: C9_10  and  O1_11 
REMARK    4  A    between atoms: C13_15  and  O2_16 
REMARK    5  A    between atoms: C18_23  and  O3_24 
ROOT
HETATM    1  C3  UNL     1      22.017   1.422  52.524  1.00  0.00    -0.024 A 
HETATM    2  C4  UNL     1      23.078   2.130  52.014  1.00  0.00     0.027 A 
HETATM    3  C5  UNL     1      24.351   1.661  52.112  1.00  0.00     0.040 A 
HETATM    4  C6  UNL     1      25.294   2.498  51.565  1.00  0.00     0.147 A 
HETATM    5  N2  UNL     1      26.565   2.031  51.689  1.00  0.00    -0.223 NA
HETATM    6  C15 UNL     1      26.870   0.868  52.283  1.00  0.00     0.236 A 
HETATM    7  N3  UNL     1      25.883   0.081  52.804  1.00  0.00    -0.241 NA
HETATM    8  C16 UNL     1      24.612   0.462  52.729  1.00  0.00     0.074 A 
HETATM    9  C17 UNL     1      23.539  -0.238  53.235  1.00  0.00     0.070 A 
HETATM   10  C18 UNL     1      22.221   0.193  53.162  1.00  0.00     0.076 A 
ENDROOT
BRANCH   4  11
HETATM   11  N1  UNL     1      25.212   3.708  50.842  1.00  0.00    -0.314 N 
HETATM   12  C7  UNL     1      26.228   3.772  49.795  1.00  0.00     0.101 C 
HETATM   13  C8  UNL     1      26.822   4.689  49.007  1.00  0.00     0.054 C 
HETATM   14  C9  UNL     1      26.636   6.139  48.907  1.00  0.00     0.066 C 
HETATM   15  C11 UNL     1      25.948   7.005  49.631  1.00  0.00     0.016 C 
HETATM   16  C12 UNL     1      25.060   7.177  50.797  1.00  0.00     0.095 C 
HETATM   17  C13 UNL     1      24.157   6.033  51.053  1.00  0.00     0.062 C 
HETATM   18  C14 UNL     1      24.232   4.715  51.066  1.00  0.00     0.130 C 
BRANCH  14  19
HETATM   19  O1  UNL     1      27.322   6.702  47.839  1.00  0.00    -0.356 OA
HETATM   20  C10 UNL     1      28.701   6.812  47.706  1.00  0.00     0.210 C 
ENDBRANCH  14  19
BRANCH  17  21
HETATM   21  O2  UNL     1      22.846   6.409  51.376  1.00  0.00    -0.363 OA
HETATM   22  H15 UNL     1      22.718   6.989  52.194  1.00  0.00     0.217 HD
ENDBRANCH  17  21
ENDBRANCH   4  11
BRANCH   1  23
HETATM   23  C2  UNL     1      20.585   1.869  52.457  1.00  0.00     0.037 C 
HETATM   24  C1  UNL     1      20.574   3.368  52.250  1.00  0.00     0.010 C 
ENDBRANCH   1  23
BRANCH  10  25
HETATM   25  O3  UNL     1      21.176  -0.532  53.680  1.00  0.00    -0.355 OA
HETATM   26  C19 UNL     1      21.331  -1.673  54.508  1.00  0.00     0.210 C 
ENDBRANCH  10  25
TORSDOF 5
ENDMDL
MODEL 7
REMARK VINA RESULT:      -7.2      2.713      4.011
REMARK  5 active torsions:
REMARK  status: ('A' for Active; 'I' for Inactive)
REMARK    1  A    between atoms: C2_2  and  C3_3 
REMARK    2  A    between atoms: C6_6  and  N1_7 
REMARK    3  A    between atoms: C9_10  and  O1_11 
REMARK    4  A    between atoms: C13_15  and  O2_16 
REMARK    5  A    between atoms: C18_23  and  O3_24 
ROOT
HETATM    1  C3  UNL     1      25.933   1.170  52.410  1.00  0.00    -0.024 A 
HETATM    2  C4  UNL     1      24.614   0.857  52.632  1.00  0.00     0.027 A 
HETATM    3  C5  UNL     1      24.245   0.047  53.661  1.00  0.00     0.040 A 
HETATM    4  C6  UNL     1      22.890  -0.177  53.731  1.00  0.00     0.147 A 
HETATM    5  N2  UNL     1      22.535  -1.005  54.750  1.00  0.00    -0.223 NA
HETATM    6  C15 UNL     1      23.415  -1.548  55.602  1.00  0.00     0.236 A 
HETATM    7  N3  UNL     1      24.749  -1.282  55.478  1.00  0.00    -0.241 NA
HETATM    8  C16 UNL     1      25.186  -0.483  54.509  1.00  0.00     0.074 A 
HETATM    9  C17 UNL     1      26.504  -0.161  54.276  1.00  0.00     0.070 A 
HETATM   10  C18 UNL     1      26.936   0.660  53.243  1.00  0.00     0.076 A 
ENDROOT
BRANCH   4  11
HETATM   11  N1  UNL     1      21.787   0.328  53.010  1.00  0.00    -0.314 N 
HETATM   12  C7  UNL     1      20.545  -0.327  53.411  1.00  0.00     0.101 C 
HETATM   13  C8  UNL     1      19.289  -0.498  52.953  1.00  0.00     0.054 C 
HETATM   14  C9  UNL     1      18.637  -0.024  51.730  1.00  0.00     0.066 C 
HETATM   15  C11 UNL     1      19.096   0.586  50.649  1.00  0.00     0.016 C 
HETATM   16  C12 UNL     1      20.293   1.132  49.980  1.00  0.00     0.095 C 
HETATM   17  C13 UNL     1      21.304   1.698  50.899  1.00  0.00     0.062 C 
HETATM   18  C14 UNL     1      21.862   1.377  52.052  1.00  0.00     0.130 C 
BRANCH  14  19
HETATM   19  O1  UNL     1      17.271  -0.268  51.712  1.00  0.00    -0.356 OA
HETATM   20  C10 UNL     1      16.565  -1.084  52.589  1.00  0.00     0.210 C 
ENDBRANCH  14  19
BRANCH  17  21
HETATM   21  O2  UNL     1      21.848   2.914  50.463  1.00  0.00    -0.363 OA
HETATM   22  H15 UNL     1      21.513   3.758  50.907  1.00  0.00     0.217 HD
ENDBRANCH  17  21
ENDBRANCH   4  11
BRANCH   1  23
HETATM   23  C2  UNL     1      26.423   2.054  51.300  1.00  0.00     0.037 C 
HETATM   24  C1  UNL     1      25.246   2.856  50.789  1.00  0.00     0.010 C 
ENDBRANCH   1  23
BRANCH  10  25
HETATM   25  O3  UNL     1      28.261   0.959  53.039  1.00  0.00    -0.355 OA
HETATM   26  C19 UNL     1      29.037   1.770  53.907  1.00  0.00     0.210 C 
ENDBRANCH  10  25
TORSDOF 5
ENDMDL
MODEL 8
REMARK VINA RESULT:      -7.2      2.144      3.703
REMARK  5 active torsions:
REMARK  status: ('A' for Active; 'I' for Inactive)
REMARK    1  A    between atoms: C2_2  and  C3_3 
REMARK    2  A    between atoms: C6_6  and  N1_7 
REMARK    3  A    between atoms: C9_10  and  O1_11 
REMARK    4  A    between atoms: C13_15  and  O2_16 
REMARK    5  A    between atoms: C18_23  and  O3_24 
ROOT
HETATM    1  C3  UNL     1      25.719   0.481  52.626  1.00  0.00    -0.024 A 
HETATM    2  C4  UNL     1      24.419   0.880  52.432  1.00  0.00     0.027 A 
HETATM    3  C5  UNL     1      23.413   0.415  53.221  1.00  0.00     0.040 A 
HETATM    4  C6  UNL     1      22.173   0.901  52.883  1.00  0.00     0.147 A 
HETATM    5  N2  UNL     1      21.172   0.412  53.663  1.00  0.00    -0.223 NA
HETATM    6  C15 UNL     1      21.373  -0.456  54.665  1.00  0.00     0.236 A 
HETATM    7  N3  UNL     1      22.633  -0.898  54.950  1.00  0.00    -0.241 NA
HETATM    8  C16 UNL     1      23.671  -0.473  54.237  1.00  0.00     0.074 A 
HETATM    9  C17 UNL     1      24.979  -0.865  54.420  1.00  0.00     0.070 A 
HETATM   10  C18 UNL     1      26.043  -0.421  53.646  1.00  0.00     0.076 A 
ENDROOT
BRANCH   4  11
HETATM   11  N1  UNL     1      21.731   1.854  51.940  1.00  0.00    -0.314 N 
HETATM   12  C7  UNL     1      22.256   3.183  52.240  1.00  0.00     0.101 C 
HETATM   13  C8  UNL     1      22.010   4.470  51.929  1.00  0.00     0.054 C 
HETATM   14  C9  UNL     1      20.995   5.074  51.062  1.00  0.00     0.066 C 
HETATM   15  C11 UNL     1      19.939   4.577  50.438  1.00  0.00     0.016 C 
HETATM   16  C12 UNL     1      19.146   3.361  50.176  1.00  0.00     0.095 C 
HETATM   17  C13 UNL     1      19.938   2.112  50.127  1.00  0.00     0.062 C 
HETATM   18  C14 UNL     1      20.921   1.553  50.809  1.00  0.00     0.130 C 
BRANCH  14  19
HETATM   19  O1  UNL     1      21.188   6.435  50.865  1.00  0.00    -0.356 OA
HETATM   20  C10 UNL     1      22.103   7.023  50.000  1.00  0.00     0.210 C 
ENDBRANCH  14  19
BRANCH  17  21
HETATM   21  O2  UNL     1      19.576   1.253  49.081  1.00  0.00    -0.363 OA
HETATM   22  H15 UNL     1      20.314   0.722  48.640  1.00  0.00     0.217 HD
ENDBRANCH  17  21
ENDBRANCH   4  11
BRANCH   1  23
HETATM   23  C2  UNL     1      26.884   0.947  51.802  1.00  0.00     0.037 C 
HETATM   24  C1  UNL     1      26.643   2.394  51.431  1.00  0.00     0.010 C 
ENDBRANCH   1  23
BRANCH  10  25
HETATM   25  O3  UNL     1      27.335  -0.834  53.858  1.00  0.00    -0.355 OA
HETATM   26  C19 UNL     1      28.252  -0.174  54.716  1.00  0.00     0.210 C 
ENDBRANCH  10  25
TORSDOF 5
ENDMDL
MODEL 9
REMARK VINA RESULT:      -7.1      3.223      5.636
REMARK  5 active torsions:
REMARK  status: ('A' for Active; 'I' for Inactive)
REMARK    1  A    between atoms: C2_2  and  C3_3 
REMARK    2  A    between atoms: C6_6  and  N1_7 
REMARK    3  A    between atoms: C9_10  and  O1_11 
REMARK    4  A    between atoms: C13_15  and  O2_16 
REMARK    5  A    between atoms: C18_23  and  O3_24 
ROOT
HETATM    1  C3  UNL     1      23.839   0.574  52.967  1.00  0.00    -0.024 A 
HETATM    2  C4  UNL     1      23.841   1.829  52.409  1.00  0.00     0.027 A 
HETATM    3  C5  UNL     1      22.693   2.548  52.286  1.00  0.00     0.040 A 
HETATM    4  C6  UNL     1      22.868   3.776  51.692  1.00  0.00     0.147 A 
HETATM    5  N2  UNL     1      21.710   4.476  51.554  1.00  0.00    -0.223 NA
HETATM    6  C15 UNL     1      20.517   4.018  51.958  1.00  0.00     0.236 A 
HETATM    7  N3  UNL     1      20.413   2.789  52.544  1.00  0.00    -0.241 NA
HETATM    8  C16 UNL     1      21.494   2.035  52.718  1.00  0.00     0.074 A 
HETATM    9  C17 UNL     1      21.507   0.776  53.276  1.00  0.00     0.070 A 
HETATM   10  C18 UNL     1      22.648   0.000  53.426  1.00  0.00     0.076 A 
ENDROOT
BRANCH   4  11
HETATM   11  N1  UNL     1      24.007   4.487  51.259  1.00  0.00    -0.314 N 
HETATM   12  C7  UNL     1      23.854   5.923  51.483  1.00  0.00     0.101 C 
HETATM   13  C8  UNL     1      24.404   7.082  51.072  1.00  0.00     0.054 C 
HETATM   14  C9  UNL     1      25.494   7.351  50.131  1.00  0.00     0.066 C 
HETATM   15  C11 UNL     1      26.174   6.575  49.303  1.00  0.00     0.016 C 
HETATM   16  C12 UNL     1      26.346   5.201  48.793  1.00  0.00     0.095 C 
HETATM   17  C13 UNL     1      26.076   4.140  49.788  1.00  0.00     0.062 C 
HETATM   18  C14 UNL     1      25.178   3.884  50.722  1.00  0.00     0.130 C 
BRANCH  14  19
HETATM   19  O1  UNL     1      25.880   8.684  50.113  1.00  0.00    -0.356 OA
HETATM   20  C10 UNL     1      27.179   9.171  50.206  1.00  0.00     0.210 C 
ENDBRANCH  14  19
BRANCH  17  21
HETATM   21  O2  UNL     1      27.010   3.095  49.769  1.00  0.00    -0.363 OA
HETATM   22  H15 UNL     1      27.931   3.303  49.407  1.00  0.00     0.217 HD
ENDBRANCH  17  21
ENDBRANCH   4  11
BRANCH   1  23
HETATM   23  C2  UNL     1      25.060  -0.282  53.139  1.00  0.00     0.037 C 
HETATM   24  C1  UNL     1      25.774   0.170  54.394  1.00  0.00     0.010 C 
ENDBRANCH   1  23
BRANCH  10  25
HETATM   25  O3  UNL     1      22.623  -1.253  53.988  1.00  0.00    -0.355 OA
HETATM   26  C19 UNL     1      21.435  -1.943  54.341  1.00  0.00     0.210 C 
ENDBRANCH  10  25
TORSDOF 5
ENDMDL
