MODEL 1
REMARK VINA RESULT:      -6.9      0.000      0.000
REMARK  7 active torsions:
REMARK  status: ('A' for Active; 'I' for Inactive)
REMARK    1  A    between atoms: O1_2  and  C2_3 
REMARK    2  A    between atoms: C2_3  and  O4_23 
REMARK    3  A    between atoms: C3_4  and  C4_5 
REMARK    4  A    between atoms: C5_6  and  N1_8 
REMARK    5  A    between atoms: N1_8  and  C7_9 
REMARK    6  A    between atoms: C11_15  and  O2_16 
REMARK    7  A    between atoms: C13_18  and  O3_19 
ROOT
HETATM    1  C7  UNL     1      24.398   2.520  52.070  1.00  0.00     0.141 A 
HETATM    2  N2  UNL     1      24.755   3.378  51.100  1.00  0.00    -0.224 NA
HETATM    3  C8  UNL     1      26.005   3.332  50.553  1.00  0.00     0.236 A 
HETATM    4  N3  UNL     1      26.890   2.397  51.009  1.00  0.00    -0.241 NA
HETATM    5  C9  UNL     1      26.515   1.545  51.983  1.00  0.00     0.075 A 
HETATM    6  C10 UNL     1      27.474   0.626  52.388  1.00  0.00     0.072 A 
HETATM    7  C11 UNL     1      27.101  -0.254  53.387  1.00  0.00     0.103 A 
HETATM    8  C13 UNL     1      25.845  -0.231  53.958  1.00  0.00     0.102 A 
HETATM    9  C15 UNL     1      24.895   0.685  53.551  1.00  0.00     0.057 A 
HETATM   10  C16 UNL     1      25.262   1.562  52.557  1.00  0.00     0.042 A 
ENDROOT
BRANCH   1  11
HETATM   11  N1  UNL     1      23.085   2.646  52.574  1.00  0.00    -0.344 N 
HETATM   12  H9  UNL     1      22.689   3.196  53.337  1.00  0.00     0.167 HD
BRANCH  11  13
HETATM   13  C5  UNL     1      22.032   1.903  51.972  1.00  0.00     0.007 C 
HETATM   14  C4  UNL     1      20.914   1.660  52.677  1.00  0.00     0.029 C 
HETATM   15  C6  UNL     1      22.075   1.355  50.573  1.00  0.00     0.068 C 
BRANCH  14  16
HETATM   16  C3  UNL     1      19.833   0.899  52.066  1.00  0.00     0.065 C 
HETATM   17  C2  UNL     1      19.362  -0.157  52.686  1.00  0.00     0.179 C 
BRANCH  17  18
HETATM   18  O1  UNL     1      20.114  -0.233  53.850  1.00  0.00    -0.336 OA
HETATM   19  C1  UNL     1      20.828  -1.391  54.220  1.00  0.00     0.212 C 
ENDBRANCH  17  18
BRANCH  17  20
HETATM   20  O4  UNL     1      18.353  -0.969  52.242  1.00  0.00    -0.336 OA
HETATM   21  C17 UNL     1      17.246  -1.261  53.070  1.00  0.00     0.212 C 
ENDBRANCH  17  20
ENDBRANCH  14  16
ENDBRANCH  11  13
ENDBRANCH   1  11
BRANCH   8  22
HETATM   22  O3  UNL     1      25.544  -1.133  54.943  1.00  0.00    -0.353 OA
HETATM   23  C14 UNL     1      24.281  -1.296  55.517  1.00  0.00     0.210 C 
ENDBRANCH   8  22
BRANCH   7  24
HETATM   24  O2  UNL     1      28.031  -1.195  53.827  1.00  0.00    -0.353 OA
HETATM   25  C12 UNL     1      29.398  -0.816  53.774  1.00  0.00     0.210 C 
ENDBRANCH   7  24
TORSDOF 7
ENDMDL
MODEL 2
REMARK VINA RESULT:      -6.8      3.879      7.111
REMARK  7 active torsions:
REMARK  status: ('A' for Active; 'I' for Inactive)
REMARK    1  A    between atoms: O1_2  and  C2_3 
REMARK    2  A    between atoms: C2_3  and  O4_23 
REMARK    3  A    between atoms: C3_4  and  C4_5 
REMARK    4  A    between atoms: C5_6  and  N1_8 
REMARK    5  A    between atoms: N1_8  and  C7_9 
REMARK    6  A    between atoms: C11_15  and  O2_16 
REMARK    7  A    between atoms: C13_18  and  O3_19 
ROOT
HETATM    1  C7  UNL     1      24.231   3.117  51.427  1.00  0.00     0.141 A 
HETATM    2  N2  UNL     1      23.145   3.050  50.640  1.00  0.00    -0.224 NA
HETATM    3  C8  UNL     1      22.337   1.950  50.659  1.00  0.00     0.236 A 
HETATM    4  N3  UNL     1      22.652   0.915  51.494  1.00  0.00    -0.241 NA
HETATM    5  C9  UNL     1      23.745   1.000  52.275  1.00  0.00     0.075 A 
HETATM    6  C10 UNL     1      23.993  -0.095  53.093  1.00  0.00     0.072 A 
HETATM    7  C11 UNL     1      25.113  -0.019  53.901  1.00  0.00     0.103 A 
HETATM    8  C13 UNL     1      25.947   1.079  53.903  1.00  0.00     0.102 A 
HETATM    9  C15 UNL     1      25.696   2.165  53.087  1.00  0.00     0.057 A 
HETATM   10  C16 UNL     1      24.583   2.094  52.283  1.00  0.00     0.042 A 
ENDROOT
BRANCH   1  11
HETATM   11  N1  UNL     1      25.006   4.295  51.337  1.00  0.00    -0.344 N 
HETATM   12  H9  UNL     1      25.141   5.082  51.973  1.00  0.00     0.167 HD
BRANCH  11  13
HETATM   13  C5  UNL     1      25.788   4.528  50.172  1.00  0.00     0.007 C 
HETATM   14  C4  UNL     1      25.816   5.760  49.636  1.00  0.00     0.029 C 
HETATM   15  C6  UNL     1      26.606   3.476  49.478  1.00  0.00     0.068 C 
BRANCH  14  16
HETATM   16  C3  UNL     1      26.615   6.005  48.444  1.00  0.00     0.065 C 
HETATM   17  C2  UNL     1      27.321   7.107  48.361  1.00  0.00     0.179 C 
BRANCH  17  18
HETATM   18  O1  UNL     1      27.065   7.767  49.554  1.00  0.00    -0.336 OA
HETATM   19  C1  UNL     1      27.371   9.129  49.751  1.00  0.00     0.212 C 
ENDBRANCH  17  18
BRANCH  17  20
HETATM   20  O4  UNL     1      28.118   7.477  47.310  1.00  0.00    -0.336 OA
HETATM   21  C17 UNL     1      29.503   7.196  47.322  1.00  0.00     0.212 C 
ENDBRANCH  17  20
ENDBRANCH  14  16
ENDBRANCH  11  13
ENDBRANCH   1  11
BRANCH   8  22
HETATM   22  O3  UNL     1      27.039   1.086  54.729  1.00  0.00    -0.353 OA
HETATM   23  C14 UNL     1      28.325   0.689  54.354  1.00  0.00     0.210 C 
ENDBRANCH   8  22
BRANCH   7  24
HETATM   24  O2  UNL     1      25.402  -1.095  54.739  1.00  0.00    -0.353 OA
HETATM   25  C12 UNL     1      24.586  -1.247  55.891  1.00  0.00     0.210 C 
ENDBRANCH   7  24
TORSDOF 7
ENDMDL
MODEL 3
REMARK VINA RESULT:      -6.8      1.516      6.304
REMARK  7 active torsions:
REMARK  status: ('A' for Active; 'I' for Inactive)
REMARK    1  A    between atoms: O1_2  and  C2_3 
REMARK    2  A    between atoms: C2_3  and  O4_23 
REMARK    3  A    between atoms: C3_4  and  C4_5 
REMARK    4  A    between atoms: C5_6  and  N1_8 
REMARK    5  A    between atoms: N1_8  and  C7_9 
REMARK    6  A    between atoms: C11_15  and  O2_16 
REMARK    7  A    between atoms: C13_18  and  O3_19 
ROOT
HETATM    1  C7  UNL     1      24.131   2.776  51.210  1.00  0.00     0.141 A 
HETATM    2  N2  UNL     1      24.234   3.284  49.970  1.00  0.00    -0.224 NA
HETATM    3  C8  UNL     1      23.304   2.985  49.016  1.00  0.00     0.236 A 
HETATM    4  N3  UNL     1      22.265   2.160  49.342  1.00  0.00    -0.241 NA
HETATM    5  C9  UNL     1      22.180   1.660  50.590  1.00  0.00     0.075 A 
HETATM    6  C10 UNL     1      21.094   0.831  50.838  1.00  0.00     0.072 A 
HETATM    7  C11 UNL     1      20.995   0.312  52.116  1.00  0.00     0.103 A 
HETATM    8  C13 UNL     1      21.919   0.596  53.100  1.00  0.00     0.102 A 
HETATM    9  C15 UNL     1      22.996   1.421  52.847  1.00  0.00     0.057 A 
HETATM   10  C16 UNL     1      23.099   1.940  51.578  1.00  0.00     0.042 A 
ENDROOT
BRANCH   1  11
HETATM   11  N1  UNL     1      25.141   3.141  52.127  1.00  0.00    -0.344 N 
HETATM   12  H9  UNL     1      25.260   3.951  52.736  1.00  0.00     0.167 HD
BRANCH  11  13
HETATM   13  C5  UNL     1      26.257   2.279  52.315  1.00  0.00     0.007 C 
HETATM   14  C4  UNL     1      26.904   2.291  53.493  1.00  0.00     0.029 C 
HETATM   15  C6  UNL     1      26.781   1.334  51.272  1.00  0.00     0.068 C 
BRANCH  14  16
HETATM   16  C3  UNL     1      28.047   1.412  53.692  1.00  0.00     0.065 C 
HETATM   17  C2  UNL     1      27.953   0.422  54.547  1.00  0.00     0.179 C 
BRANCH  17  18
HETATM   18  O1  UNL     1      26.664   0.526  55.050  1.00  0.00    -0.336 OA
HETATM   19  C1  UNL     1      25.723  -0.519  54.955  1.00  0.00     0.212 C 
ENDBRANCH  17  18
BRANCH  17  20
HETATM   20  O4  UNL     1      28.936  -0.486  54.842  1.00  0.00    -0.336 OA
HETATM   21  C17 UNL     1      29.802  -0.964  53.834  1.00  0.00     0.212 C 
ENDBRANCH  17  20
ENDBRANCH  14  16
ENDBRANCH  11  13
ENDBRANCH   1  11
BRANCH   8  22
HETATM   22  O3  UNL     1      21.758   0.046  54.344  1.00  0.00    -0.353 OA
HETATM   23  C14 UNL     1      22.121  -1.257  54.693  1.00  0.00     0.210 C 
ENDBRANCH   8  22
BRANCH   7  24
HETATM   24  O2  UNL     1      19.921  -0.527  52.412  1.00  0.00    -0.353 OA
HETATM   25  C12 UNL     1      18.640  -0.110  51.962  1.00  0.00     0.210 C 
ENDBRANCH   7  24
TORSDOF 7
ENDMDL
MODEL 4
REMARK VINA RESULT:      -6.8      4.039      8.213
REMARK  7 active torsions:
REMARK  status: ('A' for Active; 'I' for Inactive)
REMARK    1  A    between atoms: O1_2  and  C2_3 
REMARK    2  A    between atoms: C2_3  and  O4_23 
REMARK    3  A    between atoms: C3_4  and  C4_5 
REMARK    4  A    between atoms: C5_6  and  N1_8 
REMARK    5  A    between atoms: N1_8  and  C7_9 
REMARK    6  A    between atoms: C11_15  and  O2_16 
REMARK    7  A    between atoms: C13_18  and  O3_19 
ROOT
HETATM    1  C7  UNL     1      26.172   2.615  50.802  1.00  0.00     0.141 A 
HETATM    2  N2  UNL     1      27.271   2.574  51.572  1.00  0.00    -0.224 NA
HETATM    3  C8  UNL     1      27.199   2.152  52.868  1.00  0.00     0.236 A 
HETATM    4  N3  UNL     1      25.987   1.770  53.371  1.00  0.00    -0.241 NA
HETATM    5  C9  UNL     1      24.896   1.818  52.583  1.00  0.00     0.075 A 
HETATM    6  C10 UNL     1      23.705   1.413  53.172  1.00  0.00     0.072 A 
HETATM    7  C11 UNL     1      22.577   1.458  52.374  1.00  0.00     0.103 A 
HETATM    8  C13 UNL     1      22.619   1.880  51.061  1.00  0.00     0.102 A 
HETATM    9  C15 UNL     1      23.806   2.282  50.481  1.00  0.00     0.057 A 
HETATM   10  C16 UNL     1      24.931   2.239  51.272  1.00  0.00     0.042 A 
ENDROOT
BRANCH   1  11
HETATM   11  N1  UNL     1      26.346   3.067  49.475  1.00  0.00    -0.344 N 
HETATM   12  H9  UNL     1      26.305   2.591  48.573  1.00  0.00     0.167 HD
BRANCH  11  13
HETATM   13  C5  UNL     1      26.640   4.439  49.238  1.00  0.00     0.007 C 
HETATM   14  C4  UNL     1      27.781   4.765  48.608  1.00  0.00     0.029 C 
HETATM   15  C6  UNL     1      25.751   5.578  49.649  1.00  0.00     0.068 C 
BRANCH  14  16
HETATM   16  C3  UNL     1      28.088   6.167  48.363  1.00  0.00     0.065 C 
HETATM   17  C2  UNL     1      29.339   6.532  48.210  1.00  0.00     0.179 C 
BRANCH  17  18
HETATM   18  O1  UNL     1      30.058   5.353  48.341  1.00  0.00    -0.336 OA
HETATM   19  C1  UNL     1      31.411   5.239  47.962  1.00  0.00     0.212 C 
ENDBRANCH  17  18
BRANCH  17  20
HETATM   20  O4  UNL     1      29.785   7.806  47.974  1.00  0.00    -0.336 OA
HETATM   21  C17 UNL     1      29.709   8.794  48.981  1.00  0.00     0.212 C 
ENDBRANCH  17  20
ENDBRANCH  14  16
ENDBRANCH  11  13
ENDBRANCH   1  11
BRANCH   8  22
HETATM   22  O3  UNL     1      21.462   1.899  50.329  1.00  0.00    -0.353 OA
HETATM   23  C14 UNL     1      21.224   1.123  49.193  1.00  0.00     0.210 C 
ENDBRANCH   8  22
BRANCH   7  24
HETATM   24  O2  UNL     1      21.357   1.061  52.921  1.00  0.00    -0.353 OA
HETATM   25  C12 UNL     1      21.188  -0.327  53.168  1.00  0.00     0.210 C 
ENDBRANCH   7  24
TORSDOF 7
ENDMDL
MODEL 5
REMARK VINA RESULT:      -6.7      1.940      2.823
REMARK  7 active torsions:
REMARK  status: ('A' for Active; 'I' for Inactive)
REMARK    1  A    between atoms: O1_2  and  C2_3 
REMARK    2  A    between atoms: C2_3  and  O4_23 
REMARK    3  A    between atoms: C3_4  and  C4_5 
REMARK    4  A    between atoms: C5_6  and  N1_8 
REMARK    5  A    between atoms: N1_8  and  C7_9 
REMARK    6  A    between atoms: C11_15  and  O2_16 
REMARK    7  A    between atoms: C13_18  and  O3_19 
ROOT
HETATM    1  C7  UNL     1      22.790   1.481  52.277  1.00  0.00     0.141 A 
HETATM    2  N2  UNL     1      22.266   2.709  52.123  1.00  0.00    -0.224 NA
HETATM    3  C8  UNL     1      22.957   3.816  52.522  1.00  0.00     0.236 A 
HETATM    4  N3  UNL     1      24.193   3.657  53.081  1.00  0.00    -0.241 NA
HETATM    5  C9  UNL     1      24.702   2.419  53.227  1.00  0.00     0.075 A 
HETATM    6  C10 UNL     1      25.964   2.346  53.803  1.00  0.00     0.072 A 
HETATM    7  C11 UNL     1      26.498   1.080  53.959  1.00  0.00     0.103 A 
HETATM    8  C13 UNL     1      25.823  -0.057  53.565  1.00  0.00     0.102 A 
HETATM    9  C15 UNL     1      24.569   0.021  52.993  1.00  0.00     0.057 A 
HETATM   10  C16 UNL     1      24.035   1.279  52.836  1.00  0.00     0.042 A 
ENDROOT
BRANCH   1  11
HETATM   11  N1  UNL     1      22.001   0.397  51.836  1.00  0.00    -0.344 N 
HETATM   12  H9  UNL     1      22.092  -0.248  51.050  1.00  0.00     0.167 HD
BRANCH  11  13
HETATM   13  C5  UNL     1      20.824   0.051  52.557  1.00  0.00     0.007 C 
HETATM   14  C4  UNL     1      19.672  -0.120  51.889  1.00  0.00     0.029 C 
HETATM   15  C6  UNL     1      20.772  -0.142  54.046  1.00  0.00     0.068 C 
BRANCH  14  16
HETATM   16  C3  UNL     1      18.464  -0.474  52.622  1.00  0.00     0.065 C 
HETATM   17  C2  UNL     1      17.331  -0.590  51.972  1.00  0.00     0.179 C 
BRANCH  17  18
HETATM   18  O1  UNL     1      17.662  -0.312  50.654  1.00  0.00    -0.336 OA
HETATM   19  C1  UNL     1      16.697  -0.004  49.674  1.00  0.00     0.212 C 
ENDBRANCH  17  18
BRANCH  17  20
HETATM   20  O4  UNL     1      16.117  -0.915  52.518  1.00  0.00    -0.336 OA
HETATM   21  C17 UNL     1      15.552  -2.193  52.309  1.00  0.00     0.212 C 
ENDBRANCH  17  20
ENDBRANCH  14  16
ENDBRANCH  11  13
ENDBRANCH   1  11
BRANCH   8  22
HETATM   22  O3  UNL     1      26.412  -1.280  53.750  1.00  0.00    -0.353 OA
HETATM   23  C14 UNL     1      27.015  -2.035  52.742  1.00  0.00     0.210 C 
ENDBRANCH   8  22
BRANCH   7  24
HETATM   24  O2  UNL     1      27.762   0.956  54.533  1.00  0.00    -0.353 OA
HETATM   25  C12 UNL     1      28.873   1.278  53.711  1.00  0.00     0.210 C 
ENDBRANCH   7  24
TORSDOF 7
ENDMDL
MODEL 6
REMARK VINA RESULT:      -6.6      3.720      6.165
REMARK  7 active torsions:
REMARK  status: ('A' for Active; 'I' for Inactive)
REMARK    1  A    between atoms: O1_2  and  C2_3 
REMARK    2  A    between atoms: C2_3  and  O4_23 
REMARK    3  A    between atoms: C3_4  and  C4_5 
REMARK    4  A    between atoms: C5_6  and  N1_8 
REMARK    5  A    between atoms: N1_8  and  C7_9 
REMARK    6  A    between atoms: C11_15  and  O2_16 
REMARK    7  A    between atoms: C13_18  and  O3_19 
ROOT
HETATM    1  C7  UNL     1      23.459   3.137  52.645  1.00  0.00     0.141 A 
HETATM    2  N2  UNL     1      22.247   2.807  52.167  1.00  0.00    -0.224 NA
HETATM    3  C8  UNL     1      21.881   1.499  52.039  1.00  0.00     0.236 A 
HETATM    4  N3  UNL     1      22.769   0.526  52.405  1.00  0.00    -0.241 NA
HETATM    5  C9  UNL     1      23.979   0.877  52.882  1.00  0.00     0.075 A 
HETATM    6  C10 UNL     1      24.820  -0.172  53.230  1.00  0.00     0.072 A 
HETATM    7  C11 UNL     1      26.066   0.174  53.721  1.00  0.00     0.103 A 
HETATM    8  C13 UNL     1      26.463   1.488  53.861  1.00  0.00     0.102 A 
HETATM    9  C15 UNL     1      25.623   2.526  53.512  1.00  0.00     0.057 A 
HETATM   10  C16 UNL     1      24.382   2.186  53.025  1.00  0.00     0.042 A 
ENDROOT
BRANCH   1  11
HETATM   11  N1  UNL     1      23.746   4.516  52.740  1.00  0.00    -0.344 N 
HETATM   12  H9  UNL     1      24.078   5.101  53.508  1.00  0.00     0.167 HD
BRANCH  11  13
HETATM   13  C5  UNL     1      23.573   5.346  51.597  1.00  0.00     0.007 C 
HETATM   14  C4  UNL     1      24.540   5.389  50.665  1.00  0.00     0.029 C 
HETATM   15  C6  UNL     1      22.362   6.198  51.347  1.00  0.00     0.068 C 
BRANCH  14  16
HETATM   16  C3  UNL     1      24.368   6.236  49.493  1.00  0.00     0.065 C 
HETATM   17  C2  UNL     1      25.376   6.403  48.670  1.00  0.00     0.179 C 
BRANCH  17  18
HETATM   18  O1  UNL     1      26.398   5.646  49.223  1.00  0.00    -0.336 OA
HETATM   19  C1  UNL     1      27.606   5.384  48.544  1.00  0.00     0.212 C 
ENDBRANCH  17  18
BRANCH  17  20
HETATM   20  O4  UNL     1      25.370   7.165  47.532  1.00  0.00    -0.336 OA
HETATM   21  C17 UNL     1      25.506   8.569  47.604  1.00  0.00     0.212 C 
ENDBRANCH  17  20
ENDBRANCH  14  16
ENDBRANCH  11  13
ENDBRANCH   1  11
BRANCH   8  22
HETATM   22  O3  UNL     1      27.712   1.758  54.353  1.00  0.00    -0.353 OA
HETATM   23  C14 UNL     1      28.720   2.423  53.652  1.00  0.00     0.210 C 
ENDBRANCH   8  22
BRANCH   7  24
HETATM   24  O2  UNL     1      26.945  -0.845  54.084  1.00  0.00    -0.353 OA
HETATM   25  C12 UNL     1      27.725  -1.418  53.045  1.00  0.00     0.210 C 
ENDBRANCH   7  24
TORSDOF 7
ENDMDL
MODEL 7
REMARK VINA RESULT:      -6.6      1.911      7.691
REMARK  7 active torsions:
REMARK  status: ('A' for Active; 'I' for Inactive)
REMARK    1  A    between atoms: O1_2  and  C2_3 
REMARK    2  A    between atoms: C2_3  and  O4_23 
REMARK    3  A    between atoms: C3_4  and  C4_5 
REMARK    4  A    between atoms: C5_6  and  N1_8 
REMARK    5  A    between atoms: N1_8  and  C7_9 
REMARK    6  A    between atoms: C11_15  and  O2_16 
REMARK    7  A    between atoms: C13_18  and  O3_19 
ROOT
HETATM    1  C7  UNL     1      22.604   0.060  53.053  1.00  0.00     0.141 A 
HETATM    2  N2  UNL     1      23.215  -0.568  54.071  1.00  0.00    -0.224 NA
HETATM    3  C8  UNL     1      22.506  -1.358  54.929  1.00  0.00     0.236 A 
HETATM    4  N3  UNL     1      21.161  -1.500  54.736  1.00  0.00    -0.241 NA
HETATM    5  C9  UNL     1      20.566  -0.862  53.710  1.00  0.00     0.075 A 
HETATM    6  C10 UNL     1      19.196  -1.061  53.584  1.00  0.00     0.072 A 
HETATM    7  C11 UNL     1      18.573  -0.411  52.535  1.00  0.00     0.103 A 
HETATM    8  C13 UNL     1      19.264   0.393  51.652  1.00  0.00     0.102 A 
HETATM    9  C15 UNL     1      20.625   0.587  51.782  1.00  0.00     0.057 A 
HETATM   10  C16 UNL     1      21.249  -0.058  52.824  1.00  0.00     0.042 A 
ENDROOT
BRANCH   1  11
HETATM   11  N1  UNL     1      23.420   0.856  52.220  1.00  0.00    -0.344 N 
HETATM   12  H9  UNL     1      23.275   1.259  51.293  1.00  0.00     0.167 HD
BRANCH  11  13
HETATM   13  C5  UNL     1      24.720   1.227  52.664  1.00  0.00     0.007 C 
HETATM   14  C4  UNL     1      25.766   0.441  52.359  1.00  0.00     0.029 C 
HETATM   15  C6  UNL     1      25.019   2.459  53.469  1.00  0.00     0.068 C 
BRANCH  14  16
HETATM   16  C3  UNL     1      27.099   0.815  52.811  1.00  0.00     0.065 C 
HETATM   17  C2  UNL     1      27.833  -0.069  53.443  1.00  0.00     0.179 C 
BRANCH  17  18
HETATM   18  O1  UNL     1      27.035  -1.203  53.493  1.00  0.00    -0.336 OA
HETATM   19  C1  UNL     1      27.292  -2.351  52.716  1.00  0.00     0.212 C 
ENDBRANCH  17  18
BRANCH  17  20
HETATM   20  O4  UNL     1      29.098   0.130  53.927  1.00  0.00    -0.336 OA
HETATM   21  C17 UNL     1      30.164  -0.706  53.525  1.00  0.00     0.212 C 
ENDBRANCH  17  20
ENDBRANCH  14  16
ENDBRANCH  11  13
ENDBRANCH   1  11
BRANCH   8  22
HETATM   22  O3  UNL     1      18.582   1.006  50.635  1.00  0.00    -0.353 OA
HETATM   23  C14 UNL     1      19.177   1.713  49.588  1.00  0.00     0.210 C 
ENDBRANCH   8  22
BRANCH   7  24
HETATM   24  O2  UNL     1      17.199  -0.580  52.369  1.00  0.00    -0.353 OA
HETATM   25  C12 UNL     1      16.662  -1.846  52.724  1.00  0.00     0.210 C 
ENDBRANCH   7  24
TORSDOF 7
ENDMDL
MODEL 8
REMARK VINA RESULT:      -6.6      2.125      3.565
REMARK  7 active torsions:
REMARK  status: ('A' for Active; 'I' for Inactive)
REMARK    1  A    between atoms: O1_2  and  C2_3 
REMARK    2  A    between atoms: C2_3  and  O4_23 
REMARK    3  A    between atoms: C3_4  and  C4_5 
REMARK    4  A    between atoms: C5_6  and  N1_8 
REMARK    5  A    between atoms: N1_8  and  C7_9 
REMARK    6  A    between atoms: C11_15  and  O2_16 
REMARK    7  A    between atoms: C13_18  and  O3_19 
ROOT
HETATM    1  C7  UNL     1      22.360   0.744  53.245  1.00  0.00     0.141 A 
HETATM    2  N2  UNL     1      21.590   0.056  54.104  1.00  0.00    -0.224 NA
HETATM    3  C8  UNL     1      22.131  -0.902  54.912  1.00  0.00     0.236 A 
HETATM    4  N3  UNL     1      23.472  -1.151  54.833  1.00  0.00    -0.241 NA
HETATM    5  C9  UNL     1      24.228  -0.452  53.964  1.00  0.00     0.075 A 
HETATM    6  C10 UNL     1      25.581  -0.768  53.947  1.00  0.00     0.072 A 
HETATM    7  C11 UNL     1      26.367  -0.056  53.060  1.00  0.00     0.103 A 
HETATM    8  C13 UNL     1      25.848   0.917  52.231  1.00  0.00     0.102 A 
HETATM    9  C15 UNL     1      24.503   1.226  52.253  1.00  0.00     0.057 A 
HETATM   10  C16 UNL     1      23.716   0.522  53.134  1.00  0.00     0.042 A 
ENDROOT
BRANCH   1  11
HETATM   11  N1  UNL     1      21.710   1.713  52.450  1.00  0.00    -0.344 N 
HETATM   12  H9  UNL     1      21.689   2.733  52.485  1.00  0.00     0.167 HD
BRANCH  11  13
HETATM   13  C5  UNL     1      20.898   1.292  51.360  1.00  0.00     0.007 C 
HETATM   14  C4  UNL     1      19.561   1.345  51.479  1.00  0.00     0.029 C 
HETATM   15  C6  UNL     1      21.436   0.780  50.054  1.00  0.00     0.068 C 
BRANCH  14  16
HETATM   16  C3  UNL     1      18.725   0.916  50.366  1.00  0.00     0.065 C 
HETATM   17  C2  UNL     1      17.787   0.024  50.576  1.00  0.00     0.179 C 
BRANCH  17  18
HETATM   18  O1  UNL     1      17.887  -0.266  51.930  1.00  0.00    -0.336 OA
HETATM   19  C1  UNL     1      16.913  -1.012  52.623  1.00  0.00     0.212 C 
ENDBRANCH  17  18
BRANCH  17  20
HETATM   20  O4  UNL     1      16.925  -0.477  49.637  1.00  0.00    -0.336 OA
HETATM   21  C17 UNL     1      15.794   0.264  49.228  1.00  0.00     0.212 C 
ENDBRANCH  17  20
ENDBRANCH  14  16
ENDBRANCH  11  13
ENDBRANCH   1  11
BRANCH   8  22
HETATM   22  O3  UNL     1      26.687   1.581  51.376  1.00  0.00    -0.353 OA
HETATM   23  C14 UNL     1      26.407   2.814  50.782  1.00  0.00     0.210 C 
ENDBRANCH   8  22
BRANCH   7  24
HETATM   24  O2  UNL     1      27.732  -0.339  53.006  1.00  0.00    -0.353 OA
HETATM   25  C12 UNL     1      28.493  -0.043  54.168  1.00  0.00     0.210 C 
ENDBRANCH   7  24
TORSDOF 7
ENDMDL
MODEL 9
REMARK VINA RESULT:      -6.6      2.674      4.111
REMARK  7 active torsions:
REMARK  status: ('A' for Active; 'I' for Inactive)
REMARK    1  A    between atoms: O1_2  and  C2_3 
REMARK    2  A    between atoms: C2_3  and  O4_23 
REMARK    3  A    between atoms: C3_4  and  C4_5 
REMARK    4  A    between atoms: C5_6  and  N1_8 
REMARK    5  A    between atoms: N1_8  and  C7_9 
REMARK    6  A    between atoms: C11_15  and  O2_16 
REMARK    7  A    between atoms: C13_18  and  O3_19 
ROOT
HETATM    1  C7  UNL     1      23.466  -0.421  53.393  1.00  0.00     0.141 A 
HETATM    2  N2  UNL     1      22.968  -1.150  54.405  1.00  0.00    -0.224 NA
HETATM    3  C8  UNL     1      23.732  -1.438  55.499  1.00  0.00     0.236 A 
HETATM    4  N3  UNL     1      25.016  -0.971  55.549  1.00  0.00    -0.241 NA
HETATM    5  C9  UNL     1      25.498  -0.242  54.525  1.00  0.00     0.075 A 
HETATM    6  C10 UNL     1      26.810   0.193  54.655  1.00  0.00     0.072 A 
HETATM    7  C11 UNL     1      27.317   0.943  53.610  1.00  0.00     0.103 A 
HETATM    8  C13 UNL     1      26.569   1.249  52.492  1.00  0.00     0.102 A 
HETATM    9  C15 UNL     1      25.265   0.814  52.368  1.00  0.00     0.057 A 
HETATM   10  C16 UNL     1      24.756   0.068  53.405  1.00  0.00     0.042 A 
ENDROOT
BRANCH   1  11
HETATM   11  N1  UNL     1      22.601  -0.176  52.304  1.00  0.00    -0.344 N 
HETATM   12  H9  UNL     1      22.689  -0.347  51.302  1.00  0.00     0.167 HD
BRANCH  11  13
HETATM   13  C5  UNL     1      21.332   0.422  52.541  1.00  0.00     0.007 C 
HETATM   14  C4  UNL     1      21.138   1.706  52.197  1.00  0.00     0.029 C 
HETATM   15  C6  UNL     1      20.165  -0.290  53.163  1.00  0.00     0.068 C 
BRANCH  14  16
HETATM   16  C3  UNL     1      19.842   2.324  52.437  1.00  0.00     0.065 C 
HETATM   17  C2  UNL     1      19.456   3.321  51.676  1.00  0.00     0.179 C 
BRANCH  17  18
HETATM   18  O1  UNL     1      20.506   3.498  50.786  1.00  0.00    -0.336 OA
HETATM   19  C1  UNL     1      20.559   4.572  49.874  1.00  0.00     0.212 C 
ENDBRANCH  17  18
BRANCH  17  20
HETATM   20  O4  UNL     1      18.272   4.001  51.777  1.00  0.00    -0.336 OA
HETATM   21  C17 UNL     1      17.038   3.317  51.696  1.00  0.00     0.212 C 
ENDBRANCH  17  20
ENDBRANCH  14  16
ENDBRANCH  11  13
ENDBRANCH   1  11
BRANCH   8  22
HETATM   22  O3  UNL     1      27.136   1.997  51.494  1.00  0.00    -0.353 OA
HETATM   23  C14 UNL     1      26.428   2.804  50.602  1.00  0.00     0.210 C 
ENDBRANCH   8  22
BRANCH   7  24
HETATM   24  O2  UNL     1      28.631   1.402  53.696  1.00  0.00    -0.353 OA
HETATM   25  C12 UNL     1      29.651   0.416  53.749  1.00  0.00     0.210 C 
ENDBRANCH   7  24
TORSDOF 7
ENDMDL
