MODEL 1
REMARK VINA RESULT:      -7.5      0.000      0.000
REMARK  4 active torsions:
REMARK  status: ('A' for Active; 'I' for Inactive)
REMARK    1  A    between atoms: C2_2  and  C3_3 
REMARK    2  A    between atoms: C4_4  and  C5_5 
REMARK    3  A    between atoms: C7_8  and  C8_9 
REMARK    4  A    between atoms: C14_17  and  C15_18 
ROOT
HETATM    1  C5  UNL     1      22.982   1.381  52.009  1.00  0.00     0.054 C 
HETATM    2  C6  UNL     1      23.070   2.077  50.718  1.00  0.00     0.095 C 
HETATM    3  N1  UNL     1      23.919   2.914  50.269  1.00  0.00    -0.273 NA
HETATM    4  C7  UNL     1      25.057   3.384  50.997  1.00  0.00     0.261 C 
HETATM    5  N2  UNL     1      25.889   2.233  51.244  1.00  0.00    -0.265 NA
HETATM    6  C14 UNL     1      25.500   1.203  51.913  1.00  0.00     0.024 C 
HETATM    7  C16 UNL     1      24.245   0.872  52.575  1.00  0.00     0.069 C 
ENDROOT
BRANCH   4   8
HETATM    8  C8  UNL     1      25.778   4.359  50.128  1.00  0.00    -0.013 A 
HETATM    9  C9  UNL     1      26.895   3.981  49.404  1.00  0.00     0.013 A 
HETATM   10  C10 UNL     1      27.585   4.849  48.594  1.00  0.00     0.024 A 
HETATM   11  C11 UNL     1      27.173   6.170  48.471  1.00  0.00     0.034 A 
HETATM   12 CL1  UNL     1      27.982   7.346  47.469  1.00  0.00    -0.084 Cl
HETATM   13  C12 UNL     1      26.073   6.527  49.188  1.00  0.00     0.024 A 
HETATM   14  C13 UNL     1      25.357   5.684  50.010  1.00  0.00     0.013 A 
ENDBRANCH   4   8
BRANCH   6  15
HETATM   15  C15 UNL     1      26.596   0.164  52.001  1.00  0.00     0.169 C 
HETATM   16 CL2  UNL     1      26.011  -1.101  53.118  1.00  0.00    -0.124 Cl
ENDBRANCH   6  15
BRANCH   1  17
HETATM   17  C4  UNL     1      21.952   0.320  51.867  1.00  0.00    -0.017 C 
HETATM   18  C3  UNL     1      21.193  -0.321  52.737  1.00  0.00    -0.007 C 
BRANCH  18  19
HETATM   19  C2  UNL     1      21.261  -0.045  54.159  1.00  0.00    -0.027 C 
HETATM   20  C1  UNL     1      21.917  -0.886  54.919  1.00  0.00     0.031 C 
ENDBRANCH  18  19
ENDBRANCH   1  17
TORSDOF 4
ENDMDL
MODEL 2
REMARK VINA RESULT:      -7.4      1.981      4.038
REMARK  4 active torsions:
REMARK  status: ('A' for Active; 'I' for Inactive)
REMARK    1  A    between atoms: C2_2  and  C3_3 
REMARK    2  A    between atoms: C4_4  and  C5_5 
REMARK    3  A    between atoms: C7_8  and  C8_9 
REMARK    4  A    between atoms: C14_17  and  C15_18 
ROOT
HETATM    1  C5  UNL     1      27.160   0.639  52.801  1.00  0.00     0.054 C 
HETATM    2  C6  UNL     1      27.512   2.050  52.590  1.00  0.00     0.095 C 
HETATM    3  N1  UNL     1      27.132   2.890  51.711  1.00  0.00    -0.273 NA
HETATM    4  C7  UNL     1      26.205   2.603  50.662  1.00  0.00     0.261 C 
HETATM    5  N2  UNL     1      24.956   2.267  51.299  1.00  0.00    -0.265 NA
HETATM    6  C14 UNL     1      24.815   1.279  52.115  1.00  0.00     0.024 C 
HETATM    7  C16 UNL     1      25.742   0.276  52.620  1.00  0.00     0.069 C 
ENDROOT
BRANCH   4   8
HETATM    8  C8  UNL     1      26.046   3.841  49.846  1.00  0.00    -0.013 A 
HETATM    9  C9  UNL     1      27.143   4.478  49.293  1.00  0.00     0.013 A 
HETATM   10  C10 UNL     1      27.038   5.619  48.536  1.00  0.00     0.024 A 
HETATM   11  C11 UNL     1      25.792   6.187  48.294  1.00  0.00     0.034 A 
HETATM   12 CL1  UNL     1      25.556   7.632  47.347  1.00  0.00    -0.084 Cl
HETATM   13  C12 UNL     1      24.723   5.549  48.844  1.00  0.00     0.024 A 
HETATM   14  C13 UNL     1      24.792   4.404  49.607  1.00  0.00     0.013 A 
ENDBRANCH   4   8
BRANCH   6  15
HETATM   15  C15 UNL     1      23.390   1.185  52.615  1.00  0.00     0.169 C 
HETATM   16 CL2  UNL     1      23.157  -0.493  53.177  1.00  0.00    -0.124 Cl
ENDBRANCH   6  15
BRANCH   1  17
HETATM   17  C4  UNL     1      27.682   0.250  54.136  1.00  0.00    -0.017 C 
HETATM   18  C3  UNL     1      28.726  -0.461  54.523  1.00  0.00    -0.007 C 
BRANCH  18  19
HETATM   19  C2  UNL     1      29.645  -1.050  53.568  1.00  0.00    -0.027 C 
HETATM   20  C1  UNL     1      29.427  -2.283  53.183  1.00  0.00     0.031 C 
ENDBRANCH  18  19
ENDBRANCH   1  17
TORSDOF 4
ENDMDL
MODEL 3
REMARK VINA RESULT:      -7.3      2.385      7.347
REMARK  4 active torsions:
REMARK  status: ('A' for Active; 'I' for Inactive)
REMARK    1  A    between atoms: C2_2  and  C3_3 
REMARK    2  A    between atoms: C4_4  and  C5_5 
REMARK    3  A    between atoms: C7_8  and  C8_9 
REMARK    4  A    between atoms: C14_17  and  C15_18 
ROOT
HETATM    1  C5  UNL     1      26.109   4.202  49.827  1.00  0.00     0.054 C 
HETATM    2  C6  UNL     1      26.332   2.905  50.481  1.00  0.00     0.095 C 
HETATM    3  N1  UNL     1      25.565   2.178  51.193  1.00  0.00    -0.273 NA
HETATM    4  C7  UNL     1      24.216   2.510  51.528  1.00  0.00     0.261 C 
HETATM    5  N2  UNL     1      23.487   2.565  50.286  1.00  0.00    -0.265 NA
HETATM    6  C14 UNL     1      23.775   3.377  49.326  1.00  0.00     0.024 C 
HETATM    7  C16 UNL     1      24.803   4.397  49.171  1.00  0.00     0.069 C 
ENDROOT
BRANCH   4   8
HETATM    8  C8  UNL     1      23.680   1.414  52.386  1.00  0.00    -0.013 A 
HETATM    9  C9  UNL     1      24.529   0.538  53.040  1.00  0.00     0.013 A 
HETATM   10  C10 UNL     1      24.074  -0.483  53.838  1.00  0.00     0.024 A 
HETATM   11  C11 UNL     1      22.710  -0.675  54.021  1.00  0.00     0.034 A 
HETATM   12 CL1  UNL     1      22.036  -1.940  55.014  1.00  0.00    -0.084 Cl
HETATM   13  C12 UNL     1      21.887   0.194  53.373  1.00  0.00     0.024 A 
HETATM   14  C13 UNL     1      22.309   1.229  52.565  1.00  0.00     0.013 A 
ENDBRANCH   4   8
BRANCH   6  15
HETATM   15  C15 UNL     1      22.831   3.195  48.157  1.00  0.00     0.169 C 
HETATM   16 CL2  UNL     1      22.059   1.599  48.369  1.00  0.00    -0.124 Cl
ENDBRANCH   6  15
BRANCH   1  17
HETATM   17  C4  UNL     1      27.250   4.430  48.904  1.00  0.00    -0.017 C 
HETATM   18  C3  UNL     1      27.787   5.520  48.387  1.00  0.00    -0.007 C 
BRANCH  18  19
HETATM   19  C2  UNL     1      27.269   6.842  48.686  1.00  0.00    -0.027 C 
HETATM   20  C1  UNL     1      26.587   7.461  47.755  1.00  0.00     0.031 C 
ENDBRANCH  18  19
ENDBRANCH   1  17
TORSDOF 4
ENDMDL
MODEL 4
REMARK VINA RESULT:      -7.2      2.294      3.046
REMARK  4 active torsions:
REMARK  status: ('A' for Active; 'I' for Inactive)
REMARK    1  A    between atoms: C2_2  and  C3_3 
REMARK    2  A    between atoms: C4_4  and  C5_5 
REMARK    3  A    between atoms: C7_8  and  C8_9 
REMARK    4  A    between atoms: C14_17  and  C15_18 
ROOT
HETATM    1  C5  UNL     1      22.327   1.003  52.485  1.00  0.00     0.054 C 
HETATM    2  C6  UNL     1      22.916   2.347  52.562  1.00  0.00     0.095 C 
HETATM    3  N1  UNL     1      23.687   2.975  51.765  1.00  0.00    -0.273 NA
HETATM    4  C7  UNL     1      24.177   2.450  50.529  1.00  0.00     0.261 C 
HETATM    5  N2  UNL     1      23.024   2.224  49.694  1.00  0.00    -0.265 NA
HETATM    6  C14 UNL     1      22.062   1.425  50.009  1.00  0.00     0.024 C 
HETATM    7  C16 UNL     1      21.825   0.574  51.167  1.00  0.00     0.069 C 
ENDROOT
BRANCH   4   8
HETATM    8  C8  UNL     1      25.057   3.486  49.914  1.00  0.00    -0.013 A 
HETATM    9  C9  UNL     1      24.562   4.731  49.568  1.00  0.00     0.013 A 
HETATM   10  C10 UNL     1      25.339   5.710  49.001  1.00  0.00     0.024 A 
HETATM   11  C11 UNL     1      26.686   5.477  48.750  1.00  0.00     0.034 A 
HETATM   12 CL1  UNL     1      27.754   6.656  48.035  1.00  0.00    -0.084 Cl
HETATM   13  C12 UNL     1      27.160   4.249  49.096  1.00  0.00     0.024 A 
HETATM   14  C13 UNL     1      26.409   3.244  49.666  1.00  0.00     0.013 A 
ENDBRANCH   4   8
BRANCH   6  15
HETATM   15  C15 UNL     1      20.999   1.401  48.932  1.00  0.00     0.169 C 
HETATM   16 CL2  UNL     1      21.553   2.508  47.646  1.00  0.00    -0.124 Cl
ENDBRANCH   6  15
BRANCH   1  17
HETATM   17  C4  UNL     1      21.292   0.916  53.546  1.00  0.00    -0.017 C 
HETATM   18  C3  UNL     1      20.979  -0.018  54.426  1.00  0.00    -0.007 C 
BRANCH  18  19
HETATM   19  C2  UNL     1      21.702  -1.273  54.496  1.00  0.00    -0.027 C 
HETATM   20  C1  UNL     1      22.781  -1.322  55.237  1.00  0.00     0.031 C 
ENDBRANCH  18  19
ENDBRANCH   1  17
TORSDOF 4
ENDMDL
MODEL 5
REMARK VINA RESULT:      -7.2      3.020      7.428
REMARK  4 active torsions:
REMARK  status: ('A' for Active; 'I' for Inactive)
REMARK    1  A    between atoms: C2_2  and  C3_3 
REMARK    2  A    between atoms: C4_4  and  C5_5 
REMARK    3  A    between atoms: C7_8  and  C8_9 
REMARK    4  A    between atoms: C14_17  and  C15_18 
ROOT
HETATM    1  C5  UNL     1      26.402   0.279  53.429  1.00  0.00     0.054 C 
HETATM    2  C6  UNL     1      25.426  -0.805  53.256  1.00  0.00     0.095 C 
HETATM    3  N1  UNL     1      24.152  -0.799  53.258  1.00  0.00    -0.273 NA
HETATM    4  C7  UNL     1      23.347   0.368  53.446  1.00  0.00     0.261 C 
HETATM    5  N2  UNL     1      23.638   1.248  52.343  1.00  0.00    -0.265 NA
HETATM    6  C14 UNL     1      24.812   1.720  52.097  1.00  0.00     0.024 C 
HETATM    7  C16 UNL     1      26.099   1.557  52.759  1.00  0.00     0.069 C 
ENDROOT
BRANCH   4   8
HETATM    8  C8  UNL     1      21.918  -0.056  53.400  1.00  0.00    -0.013 A 
HETATM    9  C9  UNL     1      21.008   0.589  52.580  1.00  0.00     0.013 A 
HETATM   10  C10 UNL     1      19.685   0.228  52.509  1.00  0.00     0.024 A 
HETATM   11  C11 UNL     1      19.203  -0.825  53.278  1.00  0.00     0.034 A 
HETATM   12 CL1  UNL     1      17.543  -1.357  53.257  1.00  0.00    -0.084 Cl
HETATM   13  C12 UNL     1      20.109  -1.449  54.078  1.00  0.00     0.024 A 
HETATM   14  C13 UNL     1      21.443  -1.114  54.174  1.00  0.00     0.013 A 
ENDBRANCH   4   8
BRANCH   6  15
HETATM   15  C15 UNL     1      24.797   2.612  50.875  1.00  0.00     0.169 C 
HETATM   16 CL2  UNL     1      26.474   2.670  50.266  1.00  0.00    -0.124 Cl
ENDBRANCH   6  15
BRANCH   1  17
HETATM   17  C4  UNL     1      27.732  -0.263  53.050  1.00  0.00    -0.017 C 
HETATM   18  C3  UNL     1      28.958  -0.024  53.478  1.00  0.00    -0.007 C 
BRANCH  18  19
HETATM   19  C2  UNL     1      29.226   0.938  54.529  1.00  0.00    -0.027 C 
HETATM   20  C1  UNL     1      29.383   2.193  54.191  1.00  0.00     0.031 C 
ENDBRANCH  18  19
ENDBRANCH   1  17
TORSDOF 4
ENDMDL
MODEL 6
REMARK VINA RESULT:      -7.1      3.667      5.442
REMARK  4 active torsions:
REMARK  status: ('A' for Active; 'I' for Inactive)
REMARK    1  A    between atoms: C2_2  and  C3_3 
REMARK    2  A    between atoms: C4_4  and  C5_5 
REMARK    3  A    between atoms: C7_8  and  C8_9 
REMARK    4  A    between atoms: C14_17  and  C15_18 
ROOT
HETATM    1  C5  UNL     1      26.290   0.244  53.669  1.00  0.00     0.054 C 
HETATM    2  C6  UNL     1      25.856   1.627  53.432  1.00  0.00     0.095 C 
HETATM    3  N1  UNL     1      24.893   2.101  52.746  1.00  0.00    -0.273 NA
HETATM    4  C7  UNL     1      23.960   1.311  52.004  1.00  0.00     0.261 C 
HETATM    5  N2  UNL     1      23.257   0.498  52.965  1.00  0.00    -0.265 NA
HETATM    6  C14 UNL     1      23.837  -0.355  53.738  1.00  0.00     0.024 C 
HETATM    7  C16 UNL     1      25.229  -0.754  53.898  1.00  0.00     0.069 C 
ENDROOT
BRANCH   4   8
HETATM    8  C8  UNL     1      23.010   2.244  51.332  1.00  0.00    -0.013 A 
HETATM    9  C9  UNL     1      22.080   2.966  52.061  1.00  0.00     0.013 A 
HETATM   10  C10 UNL     1      21.190   3.834  51.479  1.00  0.00     0.024 A 
HETATM   11  C11 UNL     1      21.194   4.023  50.102  1.00  0.00     0.034 A 
HETATM   12 CL1  UNL     1      20.105   5.102  49.271  1.00  0.00    -0.084 Cl
HETATM   13  C12 UNL     1      22.114   3.307  49.399  1.00  0.00     0.024 A 
HETATM   14  C13 UNL     1      23.021   2.428  49.949  1.00  0.00     0.013 A 
ENDBRANCH   4   8
BRANCH   6  15
HETATM   15  C15 UNL     1      22.835  -1.051  54.632  1.00  0.00     0.169 C 
HETATM   16 CL2  UNL     1      21.397   0.005  54.703  1.00  0.00    -0.124 Cl
ENDBRANCH   6  15
BRANCH   1  17
HETATM   17  C4  UNL     1      27.287   0.279  54.770  1.00  0.00    -0.017 C 
HETATM   18  C3  UNL     1      28.587   0.050  54.817  1.00  0.00    -0.007 C 
BRANCH  18  19
HETATM   19  C2  UNL     1      29.339  -0.321  53.634  1.00  0.00    -0.027 C 
HETATM   20  C1  UNL     1      29.565  -1.594  53.421  1.00  0.00     0.031 C 
ENDBRANCH  18  19
ENDBRANCH   1  17
TORSDOF 4
ENDMDL
MODEL 7
REMARK VINA RESULT:      -7.0      2.024      2.979
REMARK  4 active torsions:
REMARK  status: ('A' for Active; 'I' for Inactive)
REMARK    1  A    between atoms: C2_2  and  C3_3 
REMARK    2  A    between atoms: C4_4  and  C5_5 
REMARK    3  A    between atoms: C7_8  and  C8_9 
REMARK    4  A    between atoms: C14_17  and  C15_18 
ROOT
HETATM    1  C5  UNL     1      24.050   0.962  52.371  1.00  0.00     0.054 C 
HETATM    2  C6  UNL     1      25.314   1.702  52.255  1.00  0.00     0.095 C 
HETATM    3  N1  UNL     1      25.683   2.616  51.449  1.00  0.00    -0.273 NA
HETATM    4  C7  UNL     1      24.869   3.151  50.402  1.00  0.00     0.261 C 
HETATM    5  N2  UNL     1      23.736   3.772  51.041  1.00  0.00    -0.265 NA
HETATM    6  C14 UNL     1      22.899   3.133  51.786  1.00  0.00     0.024 C 
HETATM    7  C16 UNL     1      22.809   1.739  52.196  1.00  0.00     0.069 C 
ENDROOT
BRANCH   4   8
HETATM    8  C8  UNL     1      25.675   4.179  49.682  1.00  0.00    -0.013 A 
HETATM    9  C9  UNL     1      25.146   5.423  49.384  1.00  0.00     0.013 A 
HETATM   10  C10 UNL     1      25.857   6.395  48.724  1.00  0.00     0.024 A 
HETATM   11  C11 UNL     1      27.165   6.155  48.322  1.00  0.00     0.034 A 
HETATM   12 CL1  UNL     1      28.147   7.324  47.479  1.00  0.00    -0.084 Cl
HETATM   13  C12 UNL     1      27.672   4.928  48.622  1.00  0.00     0.024 A 
HETATM   14  C13 UNL     1      26.989   3.930  49.283  1.00  0.00     0.013 A 
ENDBRANCH   4   8
BRANCH   6  15
HETATM   15  C15 UNL     1      21.821   4.056  52.311  1.00  0.00     0.169 C 
HETATM   16 CL2  UNL     1      22.123   5.657  51.581  1.00  0.00    -0.124 Cl
ENDBRANCH   6  15
BRANCH   1  17
HETATM   17  C4  UNL     1      24.087   0.228  53.662  1.00  0.00    -0.017 C 
HETATM   18  C3  UNL     1      23.335  -0.727  54.178  1.00  0.00    -0.007 C 
BRANCH  18  19
HETATM   19  C2  UNL     1      22.203  -1.279  53.460  1.00  0.00    -0.027 C 
HETATM   20  C1  UNL     1      21.035  -1.273  54.052  1.00  0.00     0.031 C 
ENDBRANCH  18  19
ENDBRANCH   1  17
TORSDOF 4
ENDMDL
MODEL 8
REMARK VINA RESULT:      -7.0      2.432      3.588
REMARK  4 active torsions:
REMARK  status: ('A' for Active; 'I' for Inactive)
REMARK    1  A    between atoms: C2_2  and  C3_3 
REMARK    2  A    between atoms: C4_4  and  C5_5 
REMARK    3  A    between atoms: C7_8  and  C8_9 
REMARK    4  A    between atoms: C14_17  and  C15_18 
ROOT
HETATM    1  C5  UNL     1      25.114   1.347  51.558  1.00  0.00     0.054 C 
HETATM    2  C6  UNL     1      26.219   2.315  51.598  1.00  0.00     0.095 C 
HETATM    3  N1  UNL     1      26.514   3.288  50.830  1.00  0.00    -0.273 NA
HETATM    4  C7  UNL     1      25.764   3.663  49.673  1.00  0.00     0.261 C 
HETATM    5  N2  UNL     1      24.457   4.053  50.141  1.00  0.00    -0.265 NA
HETATM    6  C14 UNL     1      23.664   3.263  50.780  1.00  0.00     0.024 C 
HETATM    7  C16 UNL     1      23.784   1.875  51.203  1.00  0.00     0.069 C 
ENDROOT
BRANCH   4   8
HETATM    8  C8  UNL     1      26.451   4.830  49.046  1.00  0.00    -0.013 A 
HETATM    9  C9  UNL     1      25.767   6.003  48.779  1.00  0.00     0.013 A 
HETATM   10  C10 UNL     1      26.365   7.098  48.204  1.00  0.00     0.024 A 
HETATM   11  C11 UNL     1      27.712   7.063  47.864  1.00  0.00     0.034 A 
HETATM   12 CL1  UNL     1      28.559   8.399  47.131  1.00  0.00    -0.084 Cl
HETATM   13  C12 UNL     1      28.371   5.903  48.134  1.00  0.00     0.024 A 
HETATM   14  C13 UNL     1      27.804   4.786  48.709  1.00  0.00     0.013 A 
ENDBRANCH   4   8
BRANCH   6  15
HETATM   15  C15 UNL     1      22.369   3.961  51.135  1.00  0.00     0.169 C 
HETATM   16 CL2  UNL     1      22.671   4.851  52.653  1.00  0.00    -0.124 Cl
ENDBRANCH   6  15
BRANCH   1  17
HETATM   17  C4  UNL     1      25.114   0.627  52.858  1.00  0.00    -0.017 C 
HETATM   18  C3  UNL     1      25.847  -0.358  53.342  1.00  0.00    -0.007 C 
BRANCH  18  19
HETATM   19  C2  UNL     1      26.911  -0.969  52.569  1.00  0.00    -0.027 C 
HETATM   20  C1  UNL     1      26.936  -2.276  52.480  1.00  0.00     0.031 C 
ENDBRANCH  18  19
ENDBRANCH   1  17
TORSDOF 4
ENDMDL
MODEL 9
REMARK VINA RESULT:      -6.8      2.989      6.390
REMARK  4 active torsions:
REMARK  status: ('A' for Active; 'I' for Inactive)
REMARK    1  A    between atoms: C2_2  and  C3_3 
REMARK    2  A    between atoms: C4_4  and  C5_5 
REMARK    3  A    between atoms: C7_8  and  C8_9 
REMARK    4  A    between atoms: C14_17  and  C15_18 
ROOT
HETATM    1  C5  UNL     1      24.752   4.328  50.345  1.00  0.00     0.054 C 
HETATM    2  C6  UNL     1      25.985   3.565  50.107  1.00  0.00     0.095 C 
HETATM    3  N1  UNL     1      26.608   2.724  50.834  1.00  0.00    -0.273 NA
HETATM    4  C7  UNL     1      26.193   2.319  52.141  1.00  0.00     0.261 C 
HETATM    5  N2  UNL     1      24.915   1.672  51.984  1.00  0.00    -0.265 NA
HETATM    6  C14 UNL     1      23.874   2.259  51.499  1.00  0.00     0.024 C 
HETATM    7  C16 UNL     1      23.645   3.609  51.002  1.00  0.00     0.069 C 
ENDROOT
BRANCH   4   8
HETATM    8  C8  UNL     1      27.199   1.343  52.652  1.00  0.00    -0.013 A 
HETATM    9  C9  UNL     1      28.331   1.770  53.327  1.00  0.00     0.013 A 
HETATM   10  C10 UNL     1      29.278   0.903  53.812  1.00  0.00     0.024 A 
HETATM   11  C11 UNL     1      29.128  -0.468  53.639  1.00  0.00     0.034 A 
HETATM   12 CL1  UNL     1      30.275  -1.647  54.219  1.00  0.00    -0.084 Cl
HETATM   13  C12 UNL     1      28.011  -0.872  52.975  1.00  0.00     0.024 A 
HETATM   14  C13 UNL     1      27.041  -0.032  52.475  1.00  0.00     0.013 A 
ENDBRANCH   4   8
BRANCH   6  15
HETATM   15  C15 UNL     1      22.687   1.322  51.461  1.00  0.00     0.169 C 
HETATM   16 CL2  UNL     1      22.817   0.278  52.904  1.00  0.00    -0.124 Cl
ENDBRANCH   6  15
BRANCH   1  17
HETATM   17  C4  UNL     1      24.351   4.929  49.047  1.00  0.00    -0.017 C 
HETATM   18  C3  UNL     1      24.772   5.986  48.375  1.00  0.00    -0.007 C 
BRANCH  18  19
HETATM   19  C2  UNL     1      25.837   6.833  48.874  1.00  0.00    -0.027 C 
HETATM   20  C1  UNL     1      27.045   6.646  48.402  1.00  0.00     0.031 C 
ENDBRANCH  18  19
ENDBRANCH   1  17
TORSDOF 4
ENDMDL
