MODEL 1
REMARK VINA RESULT:      -8.5      0.000      0.000
REMARK  3 active torsions:
REMARK  status: ('A' for Active; 'I' for Inactive)
REMARK    1  A    between atoms: C8_9  and  O1_10 
REMARK    2  A    between atoms: O1_10  and  C9_11 
REMARK    3  A    between atoms: C9_11  and  C10_12 
ROOT
HETATM    1  C1  UNL     1      17.028  -0.164  49.675  1.00  0.00     0.309 C 
HETATM    2  N1  UNL     1      17.599   0.954  50.417  1.00  0.00     0.084 N 
HETATM    3  C2  UNL     1      17.684   0.611  51.813  1.00  0.00     0.271 C 
HETATM    4  C3  UNL     1      18.741  -0.400  52.011  1.00  0.00     0.030 C 
HETATM    5  C4  UNL     1      19.012  -0.499  53.507  1.00  0.00     0.006 C 
HETATM    6  C5  UNL     1      20.424  -1.000  53.592  1.00  0.00     0.040 C 
HETATM    7  C6  UNL     1      21.391  -0.041  52.987  1.00  0.00    -0.042 A 
HETATM    8  C7  UNL     1      22.672  -0.508  53.160  1.00  0.00     0.044 A 
HETATM    9  C8  UNL     1      23.842   0.102  52.768  1.00  0.00     0.069 A 
HETATM   10  C16 UNL     1      23.771   1.318  52.125  1.00  0.00     0.038 A 
HETATM   11  C17 UNL     1      22.454   1.783  51.953  1.00  0.00     0.018 A 
HETATM   12  C18 UNL     1      21.238   1.190  52.337  1.00  0.00     0.016 A 
HETATM   13  C19 UNL     1      20.179   2.132  51.872  1.00  0.00     0.161 C 
HETATM   14  O2  UNL     1      20.114   2.513  53.069  1.00  0.00    -0.292 OA
HETATM   15  C20 UNL     1      19.638   2.317  50.501  1.00  0.00     0.114 C 
HETATM   16  C21 UNL     1      18.871   1.283  49.843  1.00  0.00     0.279 C 
ENDROOT
BRANCH   9  17
HETATM   17  O1  UNL     1      25.122  -0.398  52.958  1.00  0.00    -0.347 OA
BRANCH  17  18
HETATM   18  C9  UNL     1      26.182   0.359  52.417  1.00  0.00     0.214 C 
BRANCH  18  19
HETATM   19  C10 UNL     1      27.526  -0.110  52.884  1.00  0.00    -0.034 A 
HETATM   20  C11 UNL     1      27.833  -1.461  52.875  1.00  0.00     0.009 A 
HETATM   21  C12 UNL     1      29.057  -1.938  53.292  1.00  0.00     0.001 A 
HETATM   22  C13 UNL     1      29.981  -1.011  53.723  1.00  0.00     0.000 A 
HETATM   23  C14 UNL     1      29.692   0.352  53.738  1.00  0.00     0.001 A 
HETATM   24  C15 UNL     1      28.463   0.811  53.320  1.00  0.00     0.009 A 
ENDBRANCH  18  19
ENDBRANCH  17  18
ENDBRANCH   9  17
TORSDOF 3
ENDMDL
MODEL 2
REMARK VINA RESULT:      -8.5      3.598      5.404
REMARK  3 active torsions:
REMARK  status: ('A' for Active; 'I' for Inactive)
REMARK    1  A    between atoms: C8_9  and  O1_10 
REMARK    2  A    between atoms: O1_10  and  C9_11 
REMARK    3  A    between atoms: C9_11  and  C10_12 
ROOT
HETATM    1  C1  UNL     1      24.059   8.055  49.965  1.00  0.00     0.309 C 
HETATM    2  N1  UNL     1      23.504   6.863  49.334  1.00  0.00     0.084 N 
HETATM    3  C2  UNL     1      24.573   6.066  48.791  1.00  0.00     0.271 C 
HETATM    4  C3  UNL     1      25.338   5.446  49.890  1.00  0.00     0.030 C 
HETATM    5  C4  UNL     1      26.241   4.380  49.283  1.00  0.00     0.006 C 
HETATM    6  C5  UNL     1      26.477   3.415  50.408  1.00  0.00     0.040 C 
HETATM    7  C6  UNL     1      25.211   2.776  50.866  1.00  0.00    -0.042 A 
HETATM    8  C7  UNL     1      25.491   1.846  51.839  1.00  0.00     0.044 A 
HETATM    9  C8  UNL     1      24.599   1.027  52.492  1.00  0.00     0.069 A 
HETATM   10  C16 UNL     1      23.262   1.114  52.168  1.00  0.00     0.038 A 
HETATM   11  C17 UNL     1      22.990   2.070  51.172  1.00  0.00     0.018 A 
HETATM   12  C18 UNL     1      23.872   2.923  50.485  1.00  0.00     0.016 A 
HETATM   13  C19 UNL     1      23.009   3.724  49.569  1.00  0.00     0.161 C 
HETATM   14  O2  UNL     1      23.405   2.949  48.660  1.00  0.00    -0.292 OA
HETATM   15  C20 UNL     1      22.150   4.892  49.887  1.00  0.00     0.114 C 
HETATM   16  C21 UNL     1      22.716   6.158  50.301  1.00  0.00     0.279 C 
ENDROOT
BRANCH   9  17
HETATM   17  O1  UNL     1      24.914   0.099  53.473  1.00  0.00    -0.347 OA
BRANCH  17  18
HETATM   18  C9  UNL     1      25.650  -1.032  53.059  1.00  0.00     0.214 C 
BRANCH  18  19
HETATM   19  C10 UNL     1      27.109  -0.922  53.380  1.00  0.00    -0.034 A 
HETATM   20  C11 UNL     1      27.567   0.100  54.196  1.00  0.00     0.009 A 
HETATM   21  C12 UNL     1      28.899   0.237  54.522  1.00  0.00     0.001 A 
HETATM   22  C13 UNL     1      29.775  -0.692  54.001  1.00  0.00     0.000 A 
HETATM   23  C14 UNL     1      29.333  -1.727  53.180  1.00  0.00     0.001 A 
HETATM   24  C15 UNL     1      27.999  -1.849  52.864  1.00  0.00     0.009 A 
ENDBRANCH  18  19
ENDBRANCH  17  18
ENDBRANCH   9  17
TORSDOF 3
ENDMDL
MODEL 3
REMARK VINA RESULT:      -8.5      7.096      9.553
REMARK  3 active torsions:
REMARK  status: ('A' for Active; 'I' for Inactive)
REMARK    1  A    between atoms: C8_9  and  O1_10 
REMARK    2  A    between atoms: O1_10  and  C9_11 
REMARK    3  A    between atoms: C9_11  and  C10_12 
ROOT
HETATM    1  C1  UNL     1      30.511  10.109  49.735  1.00  0.00     0.309 C 
HETATM    2  N1  UNL     1      29.378   9.930  48.835  1.00  0.00     0.084 N 
HETATM    3  C2  UNL     1      29.694   8.918  47.861  1.00  0.00     0.271 C 
HETATM    4  C3  UNL     1      29.720   7.594  48.513  1.00  0.00     0.030 C 
HETATM    5  C4  UNL     1      29.741   6.537  47.415  1.00  0.00     0.006 C 
HETATM    6  C5  UNL     1      29.143   5.323  48.064  1.00  0.00     0.040 C 
HETATM    7  C6  UNL     1      27.734   5.555  48.487  1.00  0.00    -0.042 A 
HETATM    8  C7  UNL     1      27.210   4.393  49.000  1.00  0.00     0.044 A 
HETATM    9  C8  UNL     1      25.933   4.190  49.472  1.00  0.00     0.069 A 
HETATM   10  C16 UNL     1      25.044   5.242  49.446  1.00  0.00     0.038 A 
HETATM   11  C17 UNL     1      25.593   6.425  48.919  1.00  0.00     0.018 A 
HETATM   12  C18 UNL     1      26.889   6.671  48.431  1.00  0.00     0.016 A 
HETATM   13  C19 UNL     1      26.891   8.107  48.029  1.00  0.00     0.161 C 
HETATM   14  O2  UNL     1      26.768   7.687  46.850  1.00  0.00    -0.292 OA
HETATM   15  C20 UNL     1      27.004   9.312  48.890  1.00  0.00     0.114 C 
HETATM   16  C21 UNL     1      28.218   9.615  49.615  1.00  0.00     0.279 C 
ENDROOT
BRANCH   9  17
HETATM   17  O1  UNL     1      25.436   3.002  49.987  1.00  0.00    -0.347 OA
BRANCH  17  18
HETATM   18  C9  UNL     1      25.182   2.972  51.374  1.00  0.00     0.214 C 
BRANCH  18  19
HETATM   19  C10 UNL     1      25.424   1.623  51.978  1.00  0.00    -0.034 A 
HETATM   20  C11 UNL     1      24.439   1.013  52.738  1.00  0.00     0.009 A 
HETATM   21  C12 UNL     1      24.615  -0.229  53.309  1.00  0.00     0.001 A 
HETATM   22  C13 UNL     1      25.824  -0.855  53.095  1.00  0.00     0.000 A 
HETATM   23  C14 UNL     1      26.827  -0.259  52.333  1.00  0.00     0.001 A 
HETATM   24  C15 UNL     1      26.634   0.983  51.771  1.00  0.00     0.009 A 
ENDBRANCH  18  19
ENDBRANCH  17  18
ENDBRANCH   9  17
TORSDOF 3
ENDMDL
MODEL 4
REMARK VINA RESULT:      -8.4      2.412      3.402
REMARK  3 active torsions:
REMARK  status: ('A' for Active; 'I' for Inactive)
REMARK    1  A    between atoms: C8_9  and  O1_10 
REMARK    2  A    between atoms: O1_10  and  C9_11 
REMARK    3  A    between atoms: C9_11  and  C10_12 
ROOT
HETATM    1  C1  UNL     1      21.903   3.546  46.340  1.00  0.00     0.309 C 
HETATM    2  N1  UNL     1      21.627   4.166  47.630  1.00  0.00     0.084 N 
HETATM    3  C2  UNL     1      20.717   3.336  48.377  1.00  0.00     0.271 C 
HETATM    4  C3  UNL     1      21.413   2.112  48.821  1.00  0.00     0.030 C 
HETATM    5  C4  UNL     1      20.529   1.427  49.855  1.00  0.00     0.006 C 
HETATM    6  C5  UNL     1      21.490   0.627  50.686  1.00  0.00     0.040 C 
HETATM    7  C6  UNL     1      22.475   1.496  51.388  1.00  0.00    -0.042 A 
HETATM    8  C7  UNL     1      23.278   0.725  52.194  1.00  0.00     0.044 A 
HETATM    9  C8  UNL     1      24.289   1.155  53.023  1.00  0.00     0.069 A 
HETATM   10  C16 UNL     1      24.562   2.504  53.086  1.00  0.00     0.038 A 
HETATM   11  C17 UNL     1      23.734   3.282  52.256  1.00  0.00     0.018 A 
HETATM   12  C18 UNL     1      22.696   2.880  51.396  1.00  0.00     0.016 A 
HETATM   13  C19 UNL     1      22.200   4.137  50.765  1.00  0.00     0.161 C 
HETATM   14  O2  UNL     1      21.247   4.068  51.584  1.00  0.00    -0.292 OA
HETATM   15  C20 UNL     1      22.798   4.916  49.652  1.00  0.00     0.114 C 
HETATM   16  C21 UNL     1      22.870   4.385  48.308  1.00  0.00     0.279 C 
ENDROOT
BRANCH   9  17
HETATM   17  O1  UNL     1      25.083   0.348  53.824  1.00  0.00    -0.347 OA
BRANCH  17  18
HETATM   18  C9  UNL     1      25.723  -0.737  53.188  1.00  0.00     0.214 C 
BRANCH  18  19
HETATM   19  C10 UNL     1      27.214  -0.687  53.320  1.00  0.00    -0.034 A 
HETATM   20  C11 UNL     1      27.841   0.490  53.696  1.00  0.00     0.009 A 
HETATM   21  C12 UNL     1      29.209   0.582  53.834  1.00  0.00     0.001 A 
HETATM   22  C13 UNL     1      29.945  -0.556  53.582  1.00  0.00     0.000 A 
HETATM   23  C14 UNL     1      29.333  -1.750  53.205  1.00  0.00     0.001 A 
HETATM   24  C15 UNL     1      27.966  -1.823  53.070  1.00  0.00     0.009 A 
ENDBRANCH  18  19
ENDBRANCH  17  18
ENDBRANCH   9  17
TORSDOF 3
ENDMDL
MODEL 5
REMARK VINA RESULT:      -8.3      2.257      3.572
REMARK  3 active torsions:
REMARK  status: ('A' for Active; 'I' for Inactive)
REMARK    1  A    between atoms: C8_9  and  O1_10 
REMARK    2  A    between atoms: O1_10  and  C9_11 
REMARK    3  A    between atoms: C9_11  and  C10_12 
ROOT
HETATM    1  C1  UNL     1      19.156   5.493  48.862  1.00  0.00     0.309 C 
HETATM    2  N1  UNL     1      19.319   4.066  48.608  1.00  0.00     0.084 N 
HETATM    3  C2  UNL     1      20.608   3.828  48.013  1.00  0.00     0.271 C 
HETATM    4  C3  UNL     1      21.666   4.035  49.022  1.00  0.00     0.030 C 
HETATM    5  C4  UNL     1      22.964   3.476  48.453  1.00  0.00     0.006 C 
HETATM    6  C5  UNL     1      23.779   3.136  49.666  1.00  0.00     0.040 C 
HETATM    7  C6  UNL     1      23.124   2.089  50.500  1.00  0.00    -0.042 A 
HETATM    8  C7  UNL     1      23.945   1.759  51.552  1.00  0.00     0.044 A 
HETATM    9  C8  UNL     1      23.713   0.816  52.528  1.00  0.00     0.069 A 
HETATM   10  C16 UNL     1      22.537   0.099  52.487  1.00  0.00     0.038 A 
HETATM   11  C17 UNL     1      21.706   0.449  51.407  1.00  0.00     0.018 A 
HETATM   12  C18 UNL     1      21.907   1.404  50.394  1.00  0.00     0.016 A 
HETATM   13  C19 UNL     1      20.681   1.342  49.547  1.00  0.00     0.161 C 
HETATM   14  O2  UNL     1      21.376   0.670  48.743  1.00  0.00    -0.292 OA
HETATM   15  C20 UNL     1      19.342   1.926  49.810  1.00  0.00     0.114 C 
HETATM   16  C21 UNL     1      19.131   3.357  49.840  1.00  0.00     0.279 C 
ENDROOT
BRANCH   9  17
HETATM   17  O1  UNL     1      24.563   0.507  53.579  1.00  0.00    -0.347 OA
BRANCH  17  18
HETATM   18  C9  UNL     1      25.247  -0.724  53.497  1.00  0.00     0.214 C 
BRANCH  18  19
HETATM   19  C10 UNL     1      26.724  -0.581  53.696  1.00  0.00    -0.034 A 
HETATM   20  C11 UNL     1      27.602  -1.418  53.026  1.00  0.00     0.009 A 
HETATM   21  C12 UNL     1      28.969  -1.320  53.175  1.00  0.00     0.001 A 
HETATM   22  C13 UNL     1      29.441  -0.344  54.027  1.00  0.00     0.000 A 
HETATM   23  C14 UNL     1      28.574   0.508  54.709  1.00  0.00     0.001 A 
HETATM   24  C15 UNL     1      27.212   0.395  54.549  1.00  0.00     0.009 A 
ENDBRANCH  18  19
ENDBRANCH  17  18
ENDBRANCH   9  17
TORSDOF 3
ENDMDL
MODEL 6
REMARK VINA RESULT:      -8.2      4.025      5.442
REMARK  3 active torsions:
REMARK  status: ('A' for Active; 'I' for Inactive)
REMARK    1  A    between atoms: C8_9  and  O1_10 
REMARK    2  A    between atoms: O1_10  and  C9_11 
REMARK    3  A    between atoms: C9_11  and  C10_12 
ROOT
HETATM    1  C1  UNL     1      25.173   7.793  48.096  1.00  0.00     0.309 C 
HETATM    2  N1  UNL     1      24.219   7.563  49.174  1.00  0.00     0.084 N 
HETATM    3  C2  UNL     1      23.220   6.622  48.740  1.00  0.00     0.271 C 
HETATM    4  C3  UNL     1      23.818   5.278  48.631  1.00  0.00     0.030 C 
HETATM    5  C4  UNL     1      22.681   4.275  48.481  1.00  0.00     0.006 C 
HETATM    6  C5  UNL     1      23.255   2.990  49.002  1.00  0.00     0.040 C 
HETATM    7  C6  UNL     1      23.627   3.090  50.441  1.00  0.00    -0.042 A 
HETATM    8  C7  UNL     1      24.071   1.868  50.887  1.00  0.00     0.044 A 
HETATM    9  C8  UNL     1      24.480   1.543  52.161  1.00  0.00     0.069 A 
HETATM   10  C16 UNL     1      24.459   2.521  53.131  1.00  0.00     0.038 A 
HETATM   11  C17 UNL     1      24.003   3.766  52.661  1.00  0.00     0.018 A 
HETATM   12  C18 UNL     1      23.581   4.136  51.371  1.00  0.00     0.016 A 
HETATM   13  C19 UNL     1      23.237   5.584  51.471  1.00  0.00     0.161 C 
HETATM   14  O2  UNL     1      22.037   5.207  51.514  1.00  0.00    -0.292 OA
HETATM   15  C20 UNL     1      24.149   6.755  51.491  1.00  0.00     0.114 C 
HETATM   16  C21 UNL     1      24.937   7.122  50.334  1.00  0.00     0.279 C 
ENDROOT
BRANCH   9  17
HETATM   17  O1  UNL     1      24.925   0.298  52.580  1.00  0.00    -0.347 OA
BRANCH  17  18
HETATM   18  C9  UNL     1      25.572   0.247  53.832  1.00  0.00     0.214 C 
BRANCH  18  19
HETATM   19  C10 UNL     1      27.033  -0.063  53.716  1.00  0.00    -0.034 A 
HETATM   20  C11 UNL     1      27.976   0.862  54.133  1.00  0.00     0.009 A 
HETATM   21  C12 UNL     1      29.330   0.619  54.050  1.00  0.00     0.001 A 
HETATM   22  C13 UNL     1      29.721  -0.596  53.531  1.00  0.00     0.000 A 
HETATM   23  C14 UNL     1      28.788  -1.540  53.107  1.00  0.00     0.001 A 
HETATM   24  C15 UNL     1      27.440  -1.280  53.196  1.00  0.00     0.009 A 
ENDBRANCH  18  19
ENDBRANCH  17  18
ENDBRANCH   9  17
TORSDOF 3
ENDMDL
MODEL 7
REMARK VINA RESULT:      -8.1      3.834      5.397
REMARK  3 active torsions:
REMARK  status: ('A' for Active; 'I' for Inactive)
REMARK    1  A    between atoms: C8_9  and  O1_10 
REMARK    2  A    between atoms: O1_10  and  C9_11 
REMARK    3  A    between atoms: C9_11  and  C10_12 
ROOT
HETATM    1  C1  UNL     1      20.663   7.880  50.087  1.00  0.00     0.309 C 
HETATM    2  N1  UNL     1      20.735   6.550  49.494  1.00  0.00     0.084 N 
HETATM    3  C2  UNL     1      21.755   6.531  48.478  1.00  0.00     0.271 C 
HETATM    4  C3  UNL     1      23.087   6.606  49.111  1.00  0.00     0.030 C 
HETATM    5  C4  UNL     1      24.124   6.269  48.048  1.00  0.00     0.006 C 
HETATM    6  C5  UNL     1      25.296   5.751  48.830  1.00  0.00     0.040 C 
HETATM    7  C6  UNL     1      24.955   4.513  49.585  1.00  0.00    -0.042 A 
HETATM    8  C7  UNL     1      26.078   4.037  50.218  1.00  0.00     0.044 A 
HETATM    9  C8  UNL     1      26.183   2.902  50.991  1.00  0.00     0.069 A 
HETATM   10  C16 UNL     1      25.061   2.125  51.179  1.00  0.00     0.038 A 
HETATM   11  C17 UNL     1      23.919   2.624  50.527  1.00  0.00     0.018 A 
HETATM   12  C18 UNL     1      23.773   3.776  49.734  1.00  0.00     0.016 A 
HETATM   13  C19 UNL     1      22.336   3.799  49.335  1.00  0.00     0.161 C 
HETATM   14  O2  UNL     1      22.726   3.355  48.225  1.00  0.00    -0.292 OA
HETATM   15  C20 UNL     1      21.158   4.219  50.135  1.00  0.00     0.114 C 
HETATM   16  C21 UNL     1      20.967   5.596  50.538  1.00  0.00     0.279 C 
ENDROOT
BRANCH   9  17
HETATM   17  O1  UNL     1      27.334   2.449  51.619  1.00  0.00    -0.347 OA
BRANCH  17  18
HETATM   18  C9  UNL     1      27.172   1.872  52.896  1.00  0.00     0.214 C 
BRANCH  18  19
HETATM   19  C10 UNL     1      27.905   0.575  53.043  1.00  0.00    -0.034 A 
HETATM   20  C11 UNL     1      29.221   0.564  53.477  1.00  0.00     0.009 A 
HETATM   21  C12 UNL     1      29.934  -0.605  53.631  1.00  0.00     0.001 A 
HETATM   22  C13 UNL     1      29.284  -1.783  53.334  1.00  0.00     0.000 A 
HETATM   23  C14 UNL     1      27.960  -1.793  52.897  1.00  0.00     0.001 A 
HETATM   24  C15 UNL     1      27.264  -0.616  52.748  1.00  0.00     0.009 A 
ENDBRANCH  18  19
ENDBRANCH  17  18
ENDBRANCH   9  17
TORSDOF 3
ENDMDL
MODEL 8
REMARK VINA RESULT:      -7.9      5.835      7.179
REMARK  3 active torsions:
REMARK  status: ('A' for Active; 'I' for Inactive)
REMARK    1  A    between atoms: C8_9  and  O1_10 
REMARK    2  A    between atoms: O1_10  and  C9_11 
REMARK    3  A    between atoms: C9_11  and  C10_12 
ROOT
HETATM    1  C1  UNL     1      21.786   8.813  46.926  1.00  0.00     0.309 C 
HETATM    2  N1  UNL     1      23.172   9.053  47.312  1.00  0.00     0.084 N 
HETATM    3  C2  UNL     1      23.278   9.048  48.748  1.00  0.00     0.271 C 
HETATM    4  C3  UNL     1      23.102   7.672  49.253  1.00  0.00     0.030 C 
HETATM    5  C4  UNL     1      23.530   7.658  50.715  1.00  0.00     0.006 C 
HETATM    6  C5  UNL     1      23.931   6.233  50.966  1.00  0.00     0.040 C 
HETATM    7  C6  UNL     1      25.086   5.824  50.119  1.00  0.00    -0.042 A 
HETATM    8  C7  UNL     1      25.463   4.542  50.442  1.00  0.00     0.044 A 
HETATM    9  C8  UNL     1      26.502   3.817  49.905  1.00  0.00     0.069 A 
HETATM   10  C16 UNL     1      27.280   4.401  48.930  1.00  0.00     0.038 A 
HETATM   11  C17 UNL     1      26.883   5.712  48.607  1.00  0.00     0.018 A 
HETATM   12  C18 UNL     1      25.829   6.482  49.131  1.00  0.00     0.016 A 
HETATM   13  C19 UNL     1      25.885   7.776  48.391  1.00  0.00     0.161 C 
HETATM   14  O2  UNL     1      26.439   8.241  49.421  1.00  0.00    -0.292 OA
HETATM   15  C20 UNL     1      25.407   8.083  47.019  1.00  0.00     0.114 C 
HETATM   16  C21 UNL     1      24.000   8.065  46.685  1.00  0.00     0.279 C 
ENDROOT
BRANCH   9  17
HETATM   17  O1  UNL     1      26.855   2.522  50.254  1.00  0.00    -0.347 OA
BRANCH  17  18
HETATM   18  C9  UNL     1      26.198   1.967  51.372  1.00  0.00     0.214 C 
BRANCH  18  19
HETATM   19  C10 UNL     1      27.150   1.397  52.378  1.00  0.00    -0.034 A 
HETATM   20  C11 UNL     1      28.019   2.230  53.065  1.00  0.00     0.009 A 
HETATM   21  C12 UNL     1      28.909   1.751  54.002  1.00  0.00     0.001 A 
HETATM   22  C13 UNL     1      28.904   0.393  54.239  1.00  0.00     0.000 A 
HETATM   23  C14 UNL     1      28.037  -0.461  53.560  1.00  0.00     0.001 A 
HETATM   24  C15 UNL     1      27.156   0.035  52.626  1.00  0.00     0.009 A 
ENDBRANCH  18  19
ENDBRANCH  17  18
ENDBRANCH   9  17
TORSDOF 3
ENDMDL
MODEL 9
REMARK VINA RESULT:      -7.9      6.552      7.808
REMARK  3 active torsions:
REMARK  status: ('A' for Active; 'I' for Inactive)
REMARK    1  A    between atoms: C8_9  and  O1_10 
REMARK    2  A    between atoms: O1_10  and  C9_11 
REMARK    3  A    between atoms: C9_11  and  C10_12 
ROOT
HETATM    1  C1  UNL     1      21.330   3.631  47.705  1.00  0.00     0.309 C 
HETATM    2  N1  UNL     1      21.895   4.710  48.507  1.00  0.00     0.084 N 
HETATM    3  C2  UNL     1      22.630   4.152  49.612  1.00  0.00     0.271 C 
HETATM    4  C3  UNL     1      23.869   3.521  49.115  1.00  0.00     0.030 C 
HETATM    5  C4  UNL     1      24.755   3.230  50.320  1.00  0.00     0.006 C 
HETATM    6  C5  UNL     1      26.146   3.209  49.755  1.00  0.00     0.040 C 
HETATM    7  C6  UNL     1      26.530   4.527  49.177  1.00  0.00    -0.042 A 
HETATM    8  C7  UNL     1      27.835   4.478  48.747  1.00  0.00     0.044 A 
HETATM    9  C8  UNL     1      28.566   5.498  48.181  1.00  0.00     0.069 A 
HETATM   10  C16 UNL     1      27.964   6.725  48.006  1.00  0.00     0.038 A 
HETATM   11  C17 UNL     1      26.629   6.760  48.449  1.00  0.00     0.018 A 
HETATM   12  C18 UNL     1      25.850   5.743  49.028  1.00  0.00     0.016 A 
HETATM   13  C19 UNL     1      24.513   6.360  49.268  1.00  0.00     0.161 C 
HETATM   14  O2  UNL     1      24.872   6.462  50.469  1.00  0.00    -0.292 OA
HETATM   15  C20 UNL     1      23.423   6.619  48.294  1.00  0.00     0.114 C 
HETATM   16  C21 UNL     1      22.701   5.538  47.659  1.00  0.00     0.279 C 
ENDROOT
BRANCH   9  17
HETATM   17  O1  UNL     1      29.883   5.415  47.755  1.00  0.00    -0.347 OA
BRANCH  17  18
HETATM   18  C9  UNL     1      30.859   5.975  48.607  1.00  0.00     0.214 C 
BRANCH  18  19
HETATM   19  C10 UNL     1      32.215   5.371  48.410  1.00  0.00    -0.034 A 
HETATM   20  C11 UNL     1      33.344   6.026  48.877  1.00  0.00     0.009 A 
HETATM   21  C12 UNL     1      34.611   5.506  48.723  1.00  0.00     0.001 A 
HETATM   22  C13 UNL     1      34.719   4.293  48.078  1.00  0.00     0.000 A 
HETATM   23  C14 UNL     1      33.597   3.618  47.603  1.00  0.00     0.001 A 
HETATM   24  C15 UNL     1      32.339   4.153  47.764  1.00  0.00     0.009 A 
ENDBRANCH  18  19
ENDBRANCH  17  18
ENDBRANCH   9  17
TORSDOF 3
ENDMDL
