MODEL 1
REMARK VINA RESULT:      -7.6      0.000      0.000
REMARK  7 active torsions:
REMARK  status: ('A' for Active; 'I' for Inactive)
REMARK    1  A    between atoms: C7_7  and  N1_8 
REMARK    2  A    between atoms: N1_8  and  C8_9 
REMARK    3  A    between atoms: C12_15  and  C13_16 
REMARK    4  A    between atoms: C13_16  and  O2_17 
REMARK    5  A    between atoms: O2_17  and  C14_18 
REMARK    6  A    between atoms: C14_18  and  C15_19 
REMARK    7  A    between atoms: C15_19  and  O3_20 
ROOT
HETATM    1  C1  UNL     1      29.586  -1.988  53.486  1.00  0.00     0.018 C 
HETATM    2  C2  UNL     1      28.740  -1.130  53.406  1.00  0.00    -0.078 C 
HETATM    3  C3  UNL     1      27.740  -0.095  53.306  1.00  0.00     0.019 A 
HETATM    4  C4  UNL     1      28.159   1.165  53.727  1.00  0.00     0.021 A 
HETATM    5  C5  UNL     1      27.253   2.209  53.664  1.00  0.00     0.004 A 
HETATM    6  C6  UNL     1      25.968   2.000  53.193  1.00  0.00     0.029 A 
HETATM    7  C7  UNL     1      25.584   0.746  52.783  1.00  0.00     0.034 A 
HETATM    8  C20 UNL     1      26.465  -0.330  52.832  1.00  0.00     0.050 A 
ENDROOT
BRANCH   7   9
HETATM    9  N1  UNL     1      24.265   0.533  52.303  1.00  0.00    -0.354 N 
HETATM   10  H5  UNL     1      23.982   0.829  51.352  1.00  0.00     0.166 HD
BRANCH   9  11
HETATM   11  C8  UNL     1      23.361  -0.088  53.169  1.00  0.00     0.060 A 
HETATM   12  C9  UNL     1      23.624  -0.707  54.305  1.00  0.00     0.033 A 
HETATM   13  C10 UNL     1      22.783  -1.395  55.303  1.00  0.00     0.231 A 
HETATM   14  O1  UNL     1      21.440  -1.440  55.000  1.00  0.00    -0.270 OA
HETATM   15  N2  UNL     1      21.165  -0.813  53.855  1.00  0.00    -0.231 N 
HETATM   16  C11 UNL     1      19.741  -0.862  53.588  1.00  0.00     0.132 A 
HETATM   17  C19 UNL     1      21.934  -0.132  52.879  1.00  0.00     0.088 A 
HETATM   18  C12 UNL     1      19.192  -0.308  52.511  1.00  0.00    -0.001 A 
HETATM   19  C17 UNL     1      19.959   0.396  51.472  1.00  0.00     0.228 A 
HETATM   20  F1  UNL     1      19.532   1.726  51.461  1.00  0.00    -0.240 F 
HETATM   21  C18 UNL     1      21.391   0.402  51.828  1.00  0.00     0.049 A 
BRANCH  18  22
HETATM   22  C13 UNL     1      17.722  -0.390  52.282  1.00  0.00     0.206 C 
BRANCH  22  23
HETATM   23  O2  UNL     1      17.093  -1.415  52.952  1.00  0.00    -0.385 OA
BRANCH  23  24
HETATM   24  C14 UNL     1      16.070  -1.953  52.125  1.00  0.00     0.194 C 
BRANCH  24  25
HETATM   25  C15 UNL     1      15.580  -3.229  52.718  1.00  0.00     0.193 C 
BRANCH  25  26
HETATM   26  O3  UNL     1      16.429  -3.817  53.636  1.00  0.00    -0.394 OA
HETATM   27  C16 UNL     1      16.206  -5.169  53.784  1.00  0.00     0.201 C 
ENDBRANCH  25  26
ENDBRANCH  24  25
ENDBRANCH  23  24
ENDBRANCH  22  23
ENDBRANCH  18  22
ENDBRANCH   9  11
ENDBRANCH   7   9
TORSDOF 7
ENDMDL
MODEL 2
REMARK VINA RESULT:      -7.5      1.655      2.129
REMARK  7 active torsions:
REMARK  status: ('A' for Active; 'I' for Inactive)
REMARK    1  A    between atoms: C7_7  and  N1_8 
REMARK    2  A    between atoms: N1_8  and  C8_9 
REMARK    3  A    between atoms: C12_15  and  C13_16 
REMARK    4  A    between atoms: C13_16  and  O2_17 
REMARK    5  A    between atoms: O2_17  and  C14_18 
REMARK    6  A    between atoms: C14_18  and  C15_19 
REMARK    7  A    between atoms: C15_19  and  O3_20 
ROOT
HETATM    1  C1  UNL     1      29.592  -1.707  53.410  1.00  0.00     0.018 C 
HETATM    2  C2  UNL     1      28.695  -0.902  53.332  1.00  0.00    -0.078 C 
HETATM    3  C3  UNL     1      27.634   0.072  53.234  1.00  0.00     0.019 A 
HETATM    4  C4  UNL     1      27.968   1.347  53.683  1.00  0.00     0.021 A 
HETATM    5  C5  UNL     1      27.000   2.334  53.624  1.00  0.00     0.004 A 
HETATM    6  C6  UNL     1      25.738   2.055  53.130  1.00  0.00     0.029 A 
HETATM    7  C7  UNL     1      25.438   0.787  52.692  1.00  0.00     0.034 A 
HETATM    8  C20 UNL     1      26.383  -0.233  52.737  1.00  0.00     0.050 A 
ENDROOT
BRANCH   7   9
HETATM    9  N1  UNL     1      24.141   0.501  52.189  1.00  0.00    -0.354 N 
HETATM   10  H5  UNL     1      23.879   0.730  51.214  1.00  0.00     0.166 HD
BRANCH   9  11
HETATM   11  C8  UNL     1      23.232  -0.097  53.065  1.00  0.00     0.060 A 
HETATM   12  C9  UNL     1      23.489  -0.701  54.210  1.00  0.00     0.033 A 
HETATM   13  C10 UNL     1      22.642  -1.365  55.218  1.00  0.00     0.231 A 
HETATM   14  O1  UNL     1      21.297  -1.401  54.917  1.00  0.00    -0.270 OA
HETATM   15  N2  UNL     1      21.028  -0.788  53.763  1.00  0.00    -0.231 N 
HETATM   16  C11 UNL     1      19.604  -0.825  53.498  1.00  0.00     0.132 A 
HETATM   17  C19 UNL     1      21.804  -0.129  52.776  1.00  0.00     0.088 A 
HETATM   18  C12 UNL     1      19.060  -0.281  52.413  1.00  0.00    -0.001 A 
HETATM   19  C17 UNL     1      19.834   0.399  51.363  1.00  0.00     0.228 A 
HETATM   20  F1  UNL     1      19.421   1.734  51.333  1.00  0.00    -0.240 F 
HETATM   21  C18 UNL     1      21.266   0.395  51.718  1.00  0.00     0.049 A 
BRANCH  18  22
HETATM   22  C13 UNL     1      17.589  -0.350  52.187  1.00  0.00     0.206 C 
BRANCH  22  23
HETATM   23  O2  UNL     1      17.215  -0.416  50.864  1.00  0.00    -0.385 OA
BRANCH  23  24
HETATM   24  C14 UNL     1      16.038   0.357  50.674  1.00  0.00     0.194 C 
BRANCH  24  25
HETATM   25  C15 UNL     1      16.016   1.469  51.666  1.00  0.00     0.193 C 
BRANCH  25  26
HETATM   26  O3  UNL     1      14.760   1.836  52.114  1.00  0.00    -0.394 OA
HETATM   27  C16 UNL     1      13.865   0.789  52.118  1.00  0.00     0.201 C 
ENDBRANCH  25  26
ENDBRANCH  24  25
ENDBRANCH  23  24
ENDBRANCH  22  23
ENDBRANCH  18  22
ENDBRANCH   9  11
ENDBRANCH   7   9
TORSDOF 7
ENDMDL
MODEL 3
REMARK VINA RESULT:      -7.4      7.135     11.135
REMARK  7 active torsions:
REMARK  status: ('A' for Active; 'I' for Inactive)
REMARK    1  A    between atoms: C7_7  and  N1_8 
REMARK    2  A    between atoms: N1_8  and  C8_9 
REMARK    3  A    between atoms: C12_15  and  C13_16 
REMARK    4  A    between atoms: C13_16  and  O2_17 
REMARK    5  A    between atoms: O2_17  and  C14_18 
REMARK    6  A    between atoms: C14_18  and  C15_19 
REMARK    7  A    between atoms: C15_19  and  O3_20 
ROOT
HETATM    1  C1  UNL     1      22.652  -0.485  53.733  1.00  0.00     0.018 C 
HETATM    2  C2  UNL     1      23.465   0.178  53.133  1.00  0.00    -0.078 C 
HETATM    3  C3  UNL     1      24.446   0.958  52.417  1.00  0.00     0.019 A 
HETATM    4  C4  UNL     1      25.761   0.770  52.836  1.00  0.00     0.021 A 
HETATM    5  C5  UNL     1      26.758   1.487  52.198  1.00  0.00     0.004 A 
HETATM    6  C6  UNL     1      26.449   2.364  51.172  1.00  0.00     0.029 A 
HETATM    7  C7  UNL     1      25.142   2.527  50.780  1.00  0.00     0.034 A 
HETATM    8  C20 UNL     1      24.111   1.826  51.397  1.00  0.00     0.050 A 
ENDROOT
BRANCH   7   9
HETATM    9  N1  UNL     1      24.827   3.430  49.730  1.00  0.00    -0.354 N 
HETATM   10  H5  UNL     1      24.571   3.090  48.786  1.00  0.00     0.166 HD
BRANCH   9  11
HETATM   11  C8  UNL     1      24.882   4.795  50.021  1.00  0.00     0.060 A 
HETATM   12  C9  UNL     1      24.032   5.504  50.739  1.00  0.00     0.033 A 
HETATM   13  C10 UNL     1      23.967   6.927  51.122  1.00  0.00     0.231 A 
HETATM   14  O1  UNL     1      24.981   7.712  50.617  1.00  0.00    -0.270 OA
HETATM   15  N2  UNL     1      25.848   7.002  49.893  1.00  0.00    -0.231 N 
HETATM   16  C11 UNL     1      26.910   7.859  49.404  1.00  0.00     0.132 A 
HETATM   17  C19 UNL     1      25.955   5.640  49.514  1.00  0.00     0.088 A 
HETATM   18  C12 UNL     1      27.913   7.406  48.657  1.00  0.00    -0.001 A 
HETATM   19  C17 UNL     1      28.050   6.004  48.236  1.00  0.00     0.228 A 
HETATM   20  F1  UNL     1      29.227   5.506  48.802  1.00  0.00    -0.240 F 
HETATM   21  C18 UNL     1      26.934   5.207  48.782  1.00  0.00     0.049 A 
BRANCH  18  22
HETATM   22  C13 UNL     1      28.978   8.330  48.177  1.00  0.00     0.206 C 
BRANCH  22  23
HETATM   23  O2  UNL     1      29.395   9.257  49.106  1.00  0.00    -0.385 OA
BRANCH  23  24
HETATM   24  C14 UNL     1      30.801   9.429  48.992  1.00  0.00     0.194 C 
BRANCH  24  25
HETATM   25  C15 UNL     1      31.417   8.150  48.542  1.00  0.00     0.193 C 
BRANCH  25  26
HETATM   26  O3  UNL     1      31.899   7.338  49.552  1.00  0.00    -0.394 OA
HETATM   27  C16 UNL     1      32.483   6.183  49.081  1.00  0.00     0.201 C 
ENDBRANCH  25  26
ENDBRANCH  24  25
ENDBRANCH  23  24
ENDBRANCH  22  23
ENDBRANCH  18  22
ENDBRANCH   9  11
ENDBRANCH   7   9
TORSDOF 7
ENDMDL
MODEL 4
REMARK VINA RESULT:      -7.3      6.201      9.715
REMARK  7 active torsions:
REMARK  status: ('A' for Active; 'I' for Inactive)
REMARK    1  A    between atoms: C7_7  and  N1_8 
REMARK    2  A    between atoms: N1_8  and  C8_9 
REMARK    3  A    between atoms: C12_15  and  C13_16 
REMARK    4  A    between atoms: C13_16  and  O2_17 
REMARK    5  A    between atoms: O2_17  and  C14_18 
REMARK    6  A    between atoms: C14_18  and  C15_19 
REMARK    7  A    between atoms: C15_19  and  O3_20 
ROOT
HETATM    1  C1  UNL     1      29.407   0.326  53.780  1.00  0.00     0.018 C 
HETATM    2  C2  UNL     1      28.216   0.318  53.581  1.00  0.00    -0.078 C 
HETATM    3  C3  UNL     1      26.790   0.309  53.361  1.00  0.00     0.019 A 
HETATM    4  C4  UNL     1      26.064  -0.465  54.263  1.00  0.00     0.021 A 
HETATM    5  C5  UNL     1      24.689  -0.526  54.113  1.00  0.00     0.004 A 
HETATM    6  C6  UNL     1      24.061   0.166  53.092  1.00  0.00     0.029 A 
HETATM    7  C7  UNL     1      24.804   0.923  52.218  1.00  0.00     0.034 A 
HETATM    8  C20 UNL     1      26.187   1.008  52.335  1.00  0.00     0.050 A 
ENDROOT
BRANCH   7   9
HETATM    9  N1  UNL     1      24.157   1.629  51.170  1.00  0.00    -0.354 N 
HETATM   10  H5  UNL     1      23.851   1.149  50.304  1.00  0.00     0.166 HD
BRANCH   9  11
HETATM   11  C8  UNL     1      23.955   3.000  51.349  1.00  0.00     0.060 A 
HETATM   12  C9  UNL     1      23.102   3.592  52.164  1.00  0.00     0.033 A 
HETATM   13  C10 UNL     1      22.788   5.004  52.452  1.00  0.00     0.231 A 
HETATM   14  O1  UNL     1      23.501   5.922  51.712  1.00  0.00    -0.270 OA
HETATM   15  N2  UNL     1      24.369   5.332  50.889  1.00  0.00    -0.231 N 
HETATM   16  C11 UNL     1      25.115   6.331  50.149  1.00  0.00     0.132 A 
HETATM   17  C19 UNL     1      24.712   3.988  50.592  1.00  0.00     0.088 A 
HETATM   18  C12 UNL     1      26.053   6.017  49.260  1.00  0.00    -0.001 A 
HETATM   19  C17 UNL     1      26.426   4.635  48.919  1.00  0.00     0.228 A 
HETATM   20  F1  UNL     1      27.762   4.456  49.285  1.00  0.00    -0.240 F 
HETATM   21  C18 UNL     1      25.624   3.690  49.719  1.00  0.00     0.049 A 
BRANCH  18  22
HETATM   22  C13 UNL     1      26.788   7.083  48.525  1.00  0.00     0.206 C 
BRANCH  22  23
HETATM   23  O2  UNL     1      27.686   7.793  49.290  1.00  0.00    -0.385 OA
BRANCH  23  24
HETATM   24  C14 UNL     1      27.508   9.182  49.046  1.00  0.00     0.194 C 
BRANCH  24  25
HETATM   25  C15 UNL     1      28.815   9.880  49.212  1.00  0.00     0.193 C 
BRANCH  25  26
HETATM   26  O3  UNL     1      29.919   9.052  49.297  1.00  0.00    -0.394 OA
HETATM   27  C16 UNL     1      30.737   9.133  48.192  1.00  0.00     0.201 C 
ENDBRANCH  25  26
ENDBRANCH  24  25
ENDBRANCH  23  24
ENDBRANCH  22  23
ENDBRANCH  18  22
ENDBRANCH   9  11
ENDBRANCH   7   9
TORSDOF 7
ENDMDL
MODEL 5
REMARK VINA RESULT:      -7.3      4.531      7.653
REMARK  7 active torsions:
REMARK  status: ('A' for Active; 'I' for Inactive)
REMARK    1  A    between atoms: C7_7  and  N1_8 
REMARK    2  A    between atoms: N1_8  and  C8_9 
REMARK    3  A    between atoms: C12_15  and  C13_16 
REMARK    4  A    between atoms: C13_16  and  O2_17 
REMARK    5  A    between atoms: O2_17  and  C14_18 
REMARK    6  A    between atoms: C14_18  and  C15_19 
REMARK    7  A    between atoms: C15_19  and  O3_20 
ROOT
HETATM    1  C1  UNL     1      27.616   4.823  48.582  1.00  0.00     0.018 C 
HETATM    2  C2  UNL     1      26.580   5.332  48.939  1.00  0.00    -0.078 C 
HETATM    3  C3  UNL     1      25.337   5.940  49.349  1.00  0.00     0.019 A 
HETATM    4  C4  UNL     1      24.872   6.945  48.504  1.00  0.00     0.021 A 
HETATM    5  C5  UNL     1      23.687   7.579  48.835  1.00  0.00     0.004 A 
HETATM    6  C6  UNL     1      22.989   7.218  49.974  1.00  0.00     0.029 A 
HETATM    7  C7  UNL     1      23.472   6.221  50.787  1.00  0.00     0.034 A 
HETATM    8  C20 UNL     1      24.660   5.561  50.491  1.00  0.00     0.050 A 
ENDROOT
BRANCH   7   9
HETATM    9  N1  UNL     1      22.756   5.854  51.957  1.00  0.00    -0.354 N 
HETATM   10  H5  UNL     1      22.751   6.460  52.798  1.00  0.00     0.166 HD
BRANCH   9  11
HETATM   11  C8  UNL     1      22.062   4.642  51.931  1.00  0.00     0.060 A 
HETATM   12  C9  UNL     1      20.805   4.437  51.585  1.00  0.00     0.033 A 
HETATM   13  C10 UNL     1      19.958   3.232  51.511  1.00  0.00     0.231 A 
HETATM   14  O1  UNL     1      20.572   2.063  51.904  1.00  0.00    -0.270 OA
HETATM   15  N2  UNL     1      21.845   2.261  52.251  1.00  0.00    -0.231 N 
HETATM   16  C11 UNL     1      22.460   1.005  52.632  1.00  0.00     0.132 A 
HETATM   17  C19 UNL     1      22.697   3.391  52.324  1.00  0.00     0.088 A 
HETATM   18  C12 UNL     1      23.729   0.914  53.018  1.00  0.00    -0.001 A 
HETATM   19  C17 UNL     1      24.639   2.065  53.117  1.00  0.00     0.228 A 
HETATM   20  F1  UNL     1      25.677   1.862  52.204  1.00  0.00    -0.240 F 
HETATM   21  C18 UNL     1      23.933   3.294  52.707  1.00  0.00     0.049 A 
BRANCH  18  22
HETATM   22  C13 UNL     1      24.312  -0.402  53.403  1.00  0.00     0.206 C 
BRANCH  22  23
HETATM   23  O2  UNL     1      25.344  -0.329  54.310  1.00  0.00    -0.385 OA
BRANCH  23  24
HETATM   24  C14 UNL     1      26.514  -0.892  53.732  1.00  0.00     0.194 C 
BRANCH  24  25
HETATM   25  C15 UNL     1      27.671   0.011  53.987  1.00  0.00     0.193 C 
BRANCH  25  26
HETATM   26  O3  UNL     1      28.767  -0.587  54.582  1.00  0.00    -0.394 OA
HETATM   27  C16 UNL     1      29.793  -0.830  53.696  1.00  0.00     0.201 C 
ENDBRANCH  25  26
ENDBRANCH  24  25
ENDBRANCH  23  24
ENDBRANCH  22  23
ENDBRANCH  18  22
ENDBRANCH   9  11
ENDBRANCH   7   9
TORSDOF 7
ENDMDL
MODEL 6
REMARK VINA RESULT:      -7.3      7.235     11.130
REMARK  7 active torsions:
REMARK  status: ('A' for Active; 'I' for Inactive)
REMARK    1  A    between atoms: C7_7  and  N1_8 
REMARK    2  A    between atoms: N1_8  and  C8_9 
REMARK    3  A    between atoms: C12_15  and  C13_16 
REMARK    4  A    between atoms: C13_16  and  O2_17 
REMARK    5  A    between atoms: O2_17  and  C14_18 
REMARK    6  A    between atoms: C14_18  and  C15_19 
REMARK    7  A    between atoms: C15_19  and  O3_20 
ROOT
HETATM    1  C1  UNL     1      28.866   0.850  53.554  1.00  0.00     0.018 C 
HETATM    2  C2  UNL     1      27.808   1.105  53.029  1.00  0.00    -0.078 C 
HETATM    3  C3  UNL     1      26.537   1.409  52.416  1.00  0.00     0.019 A 
HETATM    4  C4  UNL     1      25.444   0.760  52.985  1.00  0.00     0.021 A 
HETATM    5  C5  UNL     1      24.191   0.999  52.448  1.00  0.00     0.004 A 
HETATM    6  C6  UNL     1      24.037   1.862  51.376  1.00  0.00     0.029 A 
HETATM    7  C7  UNL     1      25.134   2.489  50.838  1.00  0.00     0.034 A 
HETATM    8  C20 UNL     1      26.410   2.274  51.347  1.00  0.00     0.050 A 
ENDROOT
BRANCH   7   9
HETATM    9  N1  UNL     1      24.974   3.371  49.736  1.00  0.00    -0.354 N 
HETATM   10  H5  UNL     1      24.851   3.012  48.772  1.00  0.00     0.166 HD
BRANCH   9  11
HETATM   11  C8  UNL     1      24.994   4.742  50.004  1.00  0.00     0.060 A 
HETATM   12  C9  UNL     1      24.120   5.443  50.702  1.00  0.00     0.033 A 
HETATM   13  C10 UNL     1      24.019   6.870  51.059  1.00  0.00     0.231 A 
HETATM   14  O1  UNL     1      25.019   7.670  50.550  1.00  0.00    -0.270 OA
HETATM   15  N2  UNL     1      25.910   6.968  49.847  1.00  0.00    -0.231 N 
HETATM   16  C11 UNL     1      26.956   7.842  49.353  1.00  0.00     0.132 A 
HETATM   17  C19 UNL     1      26.052   5.603  49.493  1.00  0.00     0.088 A 
HETATM   18  C12 UNL     1      27.977   7.400  48.625  1.00  0.00    -0.001 A 
HETATM   19  C17 UNL     1      28.151   5.994  48.228  1.00  0.00     0.228 A 
HETATM   20  F1  UNL     1      29.333   5.534  48.814  1.00  0.00    -0.240 F 
HETATM   21  C18 UNL     1      27.049   5.181  48.777  1.00  0.00     0.049 A 
BRANCH  18  22
HETATM   22  C13 UNL     1      29.025   8.340  48.139  1.00  0.00     0.206 C 
BRANCH  22  23
HETATM   23  O2  UNL     1      29.570   9.145  49.114  1.00  0.00    -0.385 OA
BRANCH  23  24
HETATM   24  C14 UNL     1      30.921   9.433  48.778  1.00  0.00     0.194 C 
BRANCH  24  25
HETATM   25  C15 UNL     1      31.567   8.200  48.247  1.00  0.00     0.193 C 
BRANCH  25  26
HETATM   26  O3  UNL     1      32.520   7.630  49.071  1.00  0.00    -0.394 OA
HETATM   27  C16 UNL     1      32.596   6.262  48.938  1.00  0.00     0.201 C 
ENDBRANCH  25  26
ENDBRANCH  24  25
ENDBRANCH  23  24
ENDBRANCH  22  23
ENDBRANCH  18  22
ENDBRANCH   9  11
ENDBRANCH   7   9
TORSDOF 7
ENDMDL
MODEL 7
REMARK VINA RESULT:      -7.3      3.967      5.979
REMARK  7 active torsions:
REMARK  status: ('A' for Active; 'I' for Inactive)
REMARK    1  A    between atoms: C7_7  and  N1_8 
REMARK    2  A    between atoms: N1_8  and  C8_9 
REMARK    3  A    between atoms: C12_15  and  C13_16 
REMARK    4  A    between atoms: C13_16  and  O2_17 
REMARK    5  A    between atoms: O2_17  and  C14_18 
REMARK    6  A    between atoms: C14_18  and  C15_19 
REMARK    7  A    between atoms: C15_19  and  O3_20 
ROOT
HETATM    1  C1  UNL     1      24.210   8.443  50.118  1.00  0.00     0.018 C 
HETATM    2  C2  UNL     1      24.993   7.583  49.792  1.00  0.00    -0.078 C 
HETATM    3  C3  UNL     1      25.941   6.566  49.407  1.00  0.00     0.019 A 
HETATM    4  C4  UNL     1      27.060   7.038  48.725  1.00  0.00     0.021 A 
HETATM    5  C5  UNL     1      28.013   6.119  48.320  1.00  0.00     0.004 A 
HETATM    6  C6  UNL     1      27.851   4.771  48.588  1.00  0.00     0.029 A 
HETATM    7  C7  UNL     1      26.737   4.336  49.263  1.00  0.00     0.034 A 
HETATM    8  C20 UNL     1      25.756   5.226  49.687  1.00  0.00     0.050 A 
ENDROOT
BRANCH   7   9
HETATM    9  N1  UNL     1      26.571   2.951  49.534  1.00  0.00    -0.354 N 
HETATM   10  H5  UNL     1      26.649   2.242  48.783  1.00  0.00     0.166 HD
BRANCH   9  11
HETATM   11  C8  UNL     1      26.293   2.585  50.853  1.00  0.00     0.060 A 
HETATM   12  C9  UNL     1      27.145   2.458  51.854  1.00  0.00     0.033 A 
HETATM   13  C10 UNL     1      26.993   2.086  53.273  1.00  0.00     0.231 A 
HETATM   14  O1  UNL     1      25.708   1.774  53.659  1.00  0.00    -0.270 OA
HETATM   15  N2  UNL     1      24.840   1.904  52.655  1.00  0.00    -0.231 N 
HETATM   16  C11 UNL     1      23.499   1.592  53.109  1.00  0.00     0.132 A 
HETATM   17  C19 UNL     1      24.939   2.270  51.289  1.00  0.00     0.088 A 
HETATM   18  C12 UNL     1      22.438   1.647  52.310  1.00  0.00    -0.001 A 
HETATM   19  C17 UNL     1      22.505   2.011  50.886  1.00  0.00     0.228 A 
HETATM   20  F1  UNL     1      21.767   3.185  50.716  1.00  0.00    -0.240 F 
HETATM   21  C18 UNL     1      23.899   2.316  50.514  1.00  0.00     0.049 A 
BRANCH  18  22
HETATM   22  C13 UNL     1      21.082   1.314  52.826  1.00  0.00     0.206 C 
BRANCH  22  23
HETATM   23  O2  UNL     1      20.634   0.055  52.494  1.00  0.00    -0.385 OA
BRANCH  23  24
HETATM   24  C14 UNL     1      19.877  -0.471  53.576  1.00  0.00     0.194 C 
BRANCH  24  25
HETATM   25  C15 UNL     1      20.626  -1.601  54.194  1.00  0.00     0.193 C 
BRANCH  25  26
HETATM   26  O3  UNL     1      21.998  -1.559  54.034  1.00  0.00    -0.394 OA
HETATM   27  C16 UNL     1      22.671  -1.362  55.219  1.00  0.00     0.201 C 
ENDBRANCH  25  26
ENDBRANCH  24  25
ENDBRANCH  23  24
ENDBRANCH  22  23
ENDBRANCH  18  22
ENDBRANCH   9  11
ENDBRANCH   7   9
TORSDOF 7
ENDMDL
MODEL 8
REMARK VINA RESULT:      -7.3      2.319      3.522
REMARK  7 active torsions:
REMARK  status: ('A' for Active; 'I' for Inactive)
REMARK    1  A    between atoms: C7_7  and  N1_8 
REMARK    2  A    between atoms: N1_8  and  C8_9 
REMARK    3  A    between atoms: C12_15  and  C13_16 
REMARK    4  A    between atoms: C13_16  and  O2_17 
REMARK    5  A    between atoms: O2_17  and  C14_18 
REMARK    6  A    between atoms: C14_18  and  C15_19 
REMARK    7  A    between atoms: C15_19  and  O3_20 
ROOT
HETATM    1  C1  UNL     1      27.962  -2.790  52.709  1.00  0.00     0.018 C 
HETATM    2  C2  UNL     1      27.934  -1.605  52.943  1.00  0.00    -0.078 C 
HETATM    3  C3  UNL     1      27.915  -0.187  53.214  1.00  0.00     0.019 A 
HETATM    4  C4  UNL     1      29.143   0.353  53.585  1.00  0.00     0.021 A 
HETATM    5  C5  UNL     1      29.202   1.708  53.865  1.00  0.00     0.004 A 
HETATM    6  C6  UNL     1      28.068   2.496  53.776  1.00  0.00     0.029 A 
HETATM    7  C7  UNL     1      26.870   1.934  53.406  1.00  0.00     0.034 A 
HETATM    8  C20 UNL     1      26.769   0.577  53.118  1.00  0.00     0.050 A 
ENDROOT
BRANCH   7   9
HETATM    9  N1  UNL     1      25.707   2.744  53.319  1.00  0.00    -0.354 N 
HETATM   10  H5  UNL     1      25.416   3.355  54.103  1.00  0.00     0.166 HD
BRANCH   9  11
HETATM   11  C8  UNL     1      24.968   2.679  52.135  1.00  0.00     0.060 A 
HETATM   12  C9  UNL     1      25.276   3.196  50.960  1.00  0.00     0.033 A 
HETATM   13  C10 UNL     1      24.603   3.205  49.649  1.00  0.00     0.231 A 
HETATM   14  O1  UNL     1      23.380   2.570  49.617  1.00  0.00    -0.270 OA
HETATM   15  N2  UNL     1      23.063   2.040  50.800  1.00  0.00    -0.231 N 
HETATM   16  C11 UNL     1      21.785   1.362  50.717  1.00  0.00     0.132 A 
HETATM   17  C19 UNL     1      23.682   1.997  52.074  1.00  0.00     0.088 A 
HETATM   18  C12 UNL     1      21.232   0.740  51.755  1.00  0.00    -0.001 A 
HETATM   19  C17 UNL     1      21.840   0.684  53.093  1.00  0.00     0.228 A 
HETATM   20  F1  UNL     1      22.106  -0.657  53.380  1.00  0.00    -0.240 F 
HETATM   21  C18 UNL     1      23.134   1.393  53.083  1.00  0.00     0.049 A 
BRANCH  18  22
HETATM   22  C13 UNL     1      19.914   0.060  51.617  1.00  0.00     0.206 C 
BRANCH  22  23
HETATM   23  O2  UNL     1      19.106   0.145  52.728  1.00  0.00    -0.385 OA
BRANCH  23  24
HETATM   24  C14 UNL     1      18.785  -1.167  53.172  1.00  0.00     0.194 C 
BRANCH  24  25
HETATM   25  C15 UNL     1      17.306  -1.347  53.140  1.00  0.00     0.193 C 
BRANCH  25  26
HETATM   26  O3  UNL     1      16.572  -0.181  53.022  1.00  0.00    -0.394 OA
HETATM   27  C16 UNL     1      15.514  -0.300  52.148  1.00  0.00     0.201 C 
ENDBRANCH  25  26
ENDBRANCH  24  25
ENDBRANCH  23  24
ENDBRANCH  22  23
ENDBRANCH  18  22
ENDBRANCH   9  11
ENDBRANCH   7   9
TORSDOF 7
ENDMDL
MODEL 9
REMARK VINA RESULT:      -7.2      7.651     11.566
REMARK  7 active torsions:
REMARK  status: ('A' for Active; 'I' for Inactive)
REMARK    1  A    between atoms: C7_7  and  N1_8 
REMARK    2  A    between atoms: N1_8  and  C8_9 
REMARK    3  A    between atoms: C12_15  and  C13_16 
REMARK    4  A    between atoms: C13_16  and  O2_17 
REMARK    5  A    between atoms: O2_17  and  C14_18 
REMARK    6  A    between atoms: C14_18  and  C15_19 
REMARK    7  A    between atoms: C15_19  and  O3_20 
ROOT
HETATM    1  C1  UNL     1      22.602  -0.447  53.686  1.00  0.00     0.018 C 
HETATM    2  C2  UNL     1      23.430   0.213  53.104  1.00  0.00    -0.078 C 
HETATM    3  C3  UNL     1      24.430   0.987  52.409  1.00  0.00     0.019 A 
HETATM    4  C4  UNL     1      25.732   0.809  52.870  1.00  0.00     0.021 A 
HETATM    5  C5  UNL     1      26.746   1.522  52.254  1.00  0.00     0.004 A 
HETATM    6  C6  UNL     1      26.466   2.386  51.209  1.00  0.00     0.029 A 
HETATM    7  C7  UNL     1      25.171   2.540  50.775  1.00  0.00     0.034 A 
HETATM    8  C20 UNL     1      24.124   1.842  51.369  1.00  0.00     0.050 A 
ENDROOT
BRANCH   7   9
HETATM    9  N1  UNL     1      24.885   3.429  49.706  1.00  0.00    -0.354 N 
HETATM   10  H5  UNL     1      24.640   3.077  48.763  1.00  0.00     0.166 HD
BRANCH   9  11
HETATM   11  C8  UNL     1      24.954   4.798  49.976  1.00  0.00     0.060 A 
HETATM   12  C9  UNL     1      24.104   5.529  50.672  1.00  0.00     0.033 A 
HETATM   13  C10 UNL     1      24.052   6.958  51.031  1.00  0.00     0.231 A 
HETATM   14  O1  UNL     1      25.081   7.723  50.525  1.00  0.00    -0.270 OA
HETATM   15  N2  UNL     1      25.948   6.991  49.823  1.00  0.00    -0.231 N 
HETATM   16  C11 UNL     1      27.025   7.828  49.332  1.00  0.00     0.132 A 
HETATM   17  C19 UNL     1      26.043   5.622  49.468  1.00  0.00     0.088 A 
HETATM   18  C12 UNL     1      28.031   7.351  48.605  1.00  0.00    -0.001 A 
HETATM   19  C17 UNL     1      28.156   5.940  48.208  1.00  0.00     0.228 A 
HETATM   20  F1  UNL     1      29.320   5.438  48.795  1.00  0.00    -0.240 F 
HETATM   21  C18 UNL     1      27.025   5.166  48.753  1.00  0.00     0.049 A 
BRANCH  18  22
HETATM   22  C13 UNL     1      29.112   8.254  48.122  1.00  0.00     0.206 C 
BRANCH  22  23
HETATM   23  O2  UNL     1      30.244   8.265  48.907  1.00  0.00    -0.385 OA
BRANCH  23  24
HETATM   24  C14 UNL     1      30.926   9.498  48.723  1.00  0.00     0.194 C 
BRANCH  24  25
HETATM   25  C15 UNL     1      30.004  10.478  48.084  1.00  0.00     0.193 C 
BRANCH  25  26
HETATM   26  O3  UNL     1      30.500  11.763  47.961  1.00  0.00    -0.394 OA
HETATM   27  C16 UNL     1      30.064  12.605  48.960  1.00  0.00     0.201 C 
ENDBRANCH  25  26
ENDBRANCH  24  25
ENDBRANCH  23  24
ENDBRANCH  22  23
ENDBRANCH  18  22
ENDBRANCH   9  11
ENDBRANCH   7   9
TORSDOF 7
ENDMDL
