MODEL 1
REMARK VINA RESULT:      -7.9      0.000      0.000
REMARK  8 active torsions:
REMARK  status: ('A' for Active; 'I' for Inactive)
REMARK    1  A    between atoms: O1_1  and  C1_2 
REMARK    2  A    between atoms: C1_2  and  C2_3 
REMARK    3  A    between atoms: C2_3  and  C3_4 
REMARK    4  A    between atoms: C3_4  and  C4_5 
REMARK    5  A    between atoms: C4_5  and  N1_6 
REMARK    6  A    between atoms: N1_6  and  C5_7 
REMARK    7  A    between atoms: C8_11  and  C9_12 
REMARK    8  A    between atoms: C12_16  and  C13_17 
ROOT
HETATM    1  C5  UNL     1      24.892  -0.807  54.440  1.00  0.00     0.046 A 
HETATM    2  C6  UNL     1      24.357  -1.380  55.549  1.00  0.00     0.145 A 
HETATM    3  N2  UNL     1      23.050  -1.545  55.815  1.00  0.00    -0.270 NA
HETATM    4  C7  UNL     1      22.133  -1.107  54.905  1.00  0.00     0.130 A 
HETATM    5  C8  UNL     1      22.611  -0.515  53.755  1.00  0.00     0.014 A 
HETATM    6  C18 UNL     1      23.960  -0.367  53.524  1.00  0.00     0.046 A 
ENDROOT
BRANCH   5   7
HETATM    7  C9  UNL     1      21.606  -0.060  52.804  1.00  0.00     0.086 A 
HETATM    8  C10 UNL     1      20.245  -0.234  52.933  1.00  0.00     0.148 A 
HETATM    9  N3  UNL     1      19.351   0.204  52.029  1.00  0.00    -0.268 NA
HETATM   10  C11 UNL     1      19.763   0.850  50.927  1.00  0.00     0.148 A 
HETATM   11  C12 UNL     1      21.117   1.045  50.760  1.00  0.00     0.083 A 
HETATM   12  N4  UNL     1      22.003   0.590  51.694  1.00  0.00    -0.245 NA
BRANCH  11  13
HETATM   13  C13 UNL     1      21.711   1.737  49.598  1.00  0.00    -0.006 A 
HETATM   14  C14 UNL     1      21.727   1.355  48.315  1.00  0.00     0.011 A 
HETATM   15  C15 UNL     1      22.421   2.351  47.538  1.00  0.00    -0.002 A 
HETATM   16  C16 UNL     1      22.822   3.322  48.330  1.00  0.00    -0.002 A 
HETATM   17  C17 UNL     1      22.407   3.028  49.736  1.00  0.00     0.140 A 
HETATM   18 CL1  UNL     1      21.208   4.233  50.285  1.00  0.00    -0.116 Cl
ENDBRANCH  11  13
ENDBRANCH   5   7
BRANCH   1  19
HETATM   19  N1  UNL     1      26.262  -0.625  54.178  1.00  0.00    -0.389 N 
HETATM   20  H10 UNL     1      26.716  -1.230  53.446  1.00  0.00     0.159 HD
BRANCH  19  21
HETATM   21  C4  UNL     1      27.193   0.302  54.781  1.00  0.00     0.120 C 
BRANCH  21  22
HETATM   22  C3  UNL     1      28.595  -0.154  54.440  1.00  0.00     0.022 C 
BRANCH  22  23
HETATM   23  C2  UNL     1      28.490  -1.086  53.242  1.00  0.00     0.028 C 
BRANCH  23  24
HETATM   24  C1  UNL     1      29.445  -2.253  53.319  1.00  0.00     0.164 C 
BRANCH  24  25
HETATM   25  O1  UNL     1      28.626  -3.401  53.391  1.00  0.00    -0.401 OA
HETATM   26  H1  UNL     1      28.329  -3.684  52.491  1.00  0.00     0.209 HD
ENDBRANCH  24  25
ENDBRANCH  23  24
ENDBRANCH  22  23
ENDBRANCH  21  22
ENDBRANCH  19  21
ENDBRANCH   1  19
TORSDOF 8
ENDMDL
MODEL 2
REMARK VINA RESULT:      -7.9      2.284      3.893
REMARK  8 active torsions:
REMARK  status: ('A' for Active; 'I' for Inactive)
REMARK    1  A    between atoms: O1_1  and  C1_2 
REMARK    2  A    between atoms: C1_2  and  C2_3 
REMARK    3  A    between atoms: C2_3  and  C3_4 
REMARK    4  A    between atoms: C3_4  and  C4_5 
REMARK    5  A    between atoms: C4_5  and  N1_6 
REMARK    6  A    between atoms: N1_6  and  C5_7 
REMARK    7  A    between atoms: C8_11  and  C9_12 
REMARK    8  A    between atoms: C12_16  and  C13_17 
ROOT
HETATM    1  C5  UNL     1      26.622   1.683  53.250  1.00  0.00     0.046 A 
HETATM    2  C6  UNL     1      26.374   2.201  52.018  1.00  0.00     0.145 A 
HETATM    3  N2  UNL     1      25.249   2.053  51.299  1.00  0.00    -0.270 NA
HETATM    4  C7  UNL     1      24.226   1.316  51.821  1.00  0.00     0.130 A 
HETATM    5  C8  UNL     1      24.414   0.762  53.070  1.00  0.00     0.014 A 
HETATM    6  C18 UNL     1      25.585   0.940  53.771  1.00  0.00     0.046 A 
ENDROOT
BRANCH   5   7
HETATM    7  C9  UNL     1      23.302  -0.018  53.598  1.00  0.00     0.086 A 
HETATM    8  C10 UNL     1      23.375  -0.904  54.651  1.00  0.00     0.148 A 
HETATM    9  N3  UNL     1      22.322  -1.604  55.106  1.00  0.00    -0.268 NA
HETATM   10  C11 UNL     1      21.116  -1.463  54.533  1.00  0.00     0.148 A 
HETATM   11  C12 UNL     1      21.001  -0.586  53.476  1.00  0.00     0.083 A 
HETATM   12  N4  UNL     1      22.087   0.113  53.035  1.00  0.00    -0.245 NA
BRANCH  11  13
HETATM   13  C13 UNL     1      19.738  -0.332  52.753  1.00  0.00    -0.006 A 
HETATM   14  C14 UNL     1      18.551  -0.931  52.908  1.00  0.00     0.011 A 
HETATM   15  C15 UNL     1      17.610  -0.353  51.980  1.00  0.00    -0.002 A 
HETATM   16  C16 UNL     1      18.210   0.579  51.273  1.00  0.00    -0.002 A 
HETATM   17  C17 UNL     1      19.640   0.689  51.697  1.00  0.00     0.140 A 
HETATM   18 CL1  UNL     1      19.934   2.280  52.454  1.00  0.00    -0.116 Cl
ENDBRANCH  11  13
ENDBRANCH   5   7
BRANCH   1  19
HETATM   19  N1  UNL     1      27.810   1.831  53.988  1.00  0.00    -0.389 N 
HETATM   20  H10 UNL     1      27.826   2.528  54.777  1.00  0.00     0.159 HD
BRANCH  19  21
HETATM   21  C4  UNL     1      29.075   1.149  53.832  1.00  0.00     0.120 C 
BRANCH  21  22
HETATM   22  C3  UNL     1      28.950  -0.219  54.467  1.00  0.00     0.022 C 
BRANCH  22  23
HETATM   23  C2  UNL     1      29.345  -1.245  53.415  1.00  0.00     0.028 C 
BRANCH  23  24
HETATM   24  C1  UNL     1      28.207  -2.159  53.028  1.00  0.00     0.164 C 
BRANCH  24  25
HETATM   25  O1  UNL     1      28.648  -3.461  53.352  1.00  0.00    -0.401 OA
HETATM   26  H1  UNL     1      29.240  -3.822  52.647  1.00  0.00     0.209 HD
ENDBRANCH  24  25
ENDBRANCH  23  24
ENDBRANCH  22  23
ENDBRANCH  21  22
ENDBRANCH  19  21
ENDBRANCH   1  19
TORSDOF 8
ENDMDL
MODEL 3
REMARK VINA RESULT:      -7.8      3.025      4.000
REMARK  8 active torsions:
REMARK  status: ('A' for Active; 'I' for Inactive)
REMARK    1  A    between atoms: O1_1  and  C1_2 
REMARK    2  A    between atoms: C1_2  and  C2_3 
REMARK    3  A    between atoms: C2_3  and  C3_4 
REMARK    4  A    between atoms: C3_4  and  C4_5 
REMARK    5  A    between atoms: C4_5  and  N1_6 
REMARK    6  A    between atoms: N1_6  and  C5_7 
REMARK    7  A    between atoms: C8_11  and  C9_12 
REMARK    8  A    between atoms: C12_16  and  C13_17 
ROOT
HETATM    1  C5  UNL     1      26.369   0.890  53.983  1.00  0.00     0.046 A 
HETATM    2  C6  UNL     1      25.550  -0.146  54.301  1.00  0.00     0.145 A 
HETATM    3  N2  UNL     1      24.367  -0.435  53.731  1.00  0.00    -0.270 NA
HETATM    4  C7  UNL     1      23.906   0.368  52.728  1.00  0.00     0.130 A 
HETATM    5  C8  UNL     1      24.692   1.438  52.357  1.00  0.00     0.014 A 
HETATM    6  C18 UNL     1      25.898   1.696  52.969  1.00  0.00     0.046 A 
ENDROOT
BRANCH   5   7
HETATM    7  C9  UNL     1      24.171   2.273  51.283  1.00  0.00     0.086 A 
HETATM    8  C10 UNL     1      23.083   1.974  50.493  1.00  0.00     0.148 A 
HETATM    9  N3  UNL     1      22.636   2.775  49.511  1.00  0.00    -0.268 NA
HETATM   10  C11 UNL     1      23.253   3.939  49.252  1.00  0.00     0.148 A 
HETATM   11  C12 UNL     1      24.346   4.276  50.021  1.00  0.00     0.083 A 
HETATM   12  N4  UNL     1      24.779   3.443  51.013  1.00  0.00    -0.245 NA
BRANCH  11  13
HETATM   13  C13 UNL     1      25.120   5.522  49.848  1.00  0.00    -0.006 A 
HETATM   14  C14 UNL     1      25.119   6.620  50.614  1.00  0.00     0.011 A 
HETATM   15  C15 UNL     1      26.035   7.583  50.054  1.00  0.00    -0.002 A 
HETATM   16  C16 UNL     1      26.584   7.084  48.967  1.00  0.00    -0.002 A 
HETATM   17  C17 UNL     1      26.052   5.707  48.724  1.00  0.00     0.140 A 
HETATM   18 CL1  UNL     1      27.362   4.505  48.903  1.00  0.00    -0.116 Cl
ENDBRANCH  11  13
ENDBRANCH   5   7
BRANCH   1  19
HETATM   19  N1  UNL     1      27.599   1.193  54.597  1.00  0.00    -0.389 N 
HETATM   20  H10 UNL     1      27.770   2.182  54.913  1.00  0.00     0.159 HD
BRANCH  19  21
HETATM   21  C4  UNL     1      28.720   0.324  54.877  1.00  0.00     0.120 C 
BRANCH  21  22
HETATM   22  C3  UNL     1      29.429   0.038  53.571  1.00  0.00     0.022 C 
BRANCH  22  23
HETATM   23  C2  UNL     1      29.653  -1.464  53.496  1.00  0.00     0.028 C 
BRANCH  23  24
HETATM   24  C1  UNL     1      28.448  -2.214  52.980  1.00  0.00     0.164 C 
BRANCH  24  25
HETATM   25  O1  UNL     1      28.629  -3.548  53.405  1.00  0.00    -0.401 OA
HETATM   26  H1  UNL     1      29.321  -3.607  54.109  1.00  0.00     0.209 HD
ENDBRANCH  24  25
ENDBRANCH  23  24
ENDBRANCH  22  23
ENDBRANCH  21  22
ENDBRANCH  19  21
ENDBRANCH   1  19
TORSDOF 8
ENDMDL
MODEL 4
REMARK VINA RESULT:      -7.8      3.194      4.032
REMARK  8 active torsions:
REMARK  status: ('A' for Active; 'I' for Inactive)
REMARK    1  A    between atoms: O1_1  and  C1_2 
REMARK    2  A    between atoms: C1_2  and  C2_3 
REMARK    3  A    between atoms: C2_3  and  C3_4 
REMARK    4  A    between atoms: C3_4  and  C4_5 
REMARK    5  A    between atoms: C4_5  and  N1_6 
REMARK    6  A    between atoms: N1_6  and  C5_7 
REMARK    7  A    between atoms: C8_11  and  C9_12 
REMARK    8  A    between atoms: C12_16  and  C13_17 
ROOT
HETATM    1  C5  UNL     1      25.291  -0.292  53.641  1.00  0.00     0.046 A 
HETATM    2  C6  UNL     1      24.129  -0.828  54.096  1.00  0.00     0.145 A 
HETATM    3  N2  UNL     1      22.896  -0.311  53.951  1.00  0.00    -0.270 NA
HETATM    4  C7  UNL     1      22.754   0.871  53.285  1.00  0.00     0.130 A 
HETATM    5  C8  UNL     1      23.896   1.469  52.796  1.00  0.00     0.014 A 
HETATM    6  C18 UNL     1      25.139   0.902  52.969  1.00  0.00     0.046 A 
ENDROOT
BRANCH   5   7
HETATM    7  C9  UNL     1      23.708   2.729  52.089  1.00  0.00     0.086 A 
HETATM    8  C10 UNL     1      22.578   3.516  52.144  1.00  0.00     0.148 A 
HETATM    9  N3  UNL     1      22.446   4.674  51.474  1.00  0.00    -0.268 NA
HETATM   10  C11 UNL     1      23.445   5.125  50.699  1.00  0.00     0.148 A 
HETATM   11  C12 UNL     1      24.593   4.366  50.617  1.00  0.00     0.083 A 
HETATM   12  N4  UNL     1      24.700   3.195  51.308  1.00  0.00    -0.245 NA
BRANCH  11  13
HETATM   13  C13 UNL     1      25.768   4.740  49.803  1.00  0.00    -0.006 A 
HETATM   14  C14 UNL     1      26.779   3.965  49.389  1.00  0.00     0.011 A 
HETATM   15  C15 UNL     1      27.699   4.766  48.620  1.00  0.00    -0.002 A 
HETATM   16  C16 UNL     1      27.260   6.005  48.566  1.00  0.00    -0.002 A 
HETATM   17  C17 UNL     1      25.974   6.115  49.321  1.00  0.00     0.140 A 
HETATM   18 CL1  UNL     1      24.637   6.501  48.200  1.00  0.00    -0.116 Cl
ENDBRANCH  11  13
ENDBRANCH   5   7
BRANCH   1  19
HETATM   19  N1  UNL     1      26.578  -0.833  53.812  1.00  0.00    -0.389 N 
HETATM   20  H10 UNL     1      26.755  -1.447  54.649  1.00  0.00     0.159 HD
BRANCH  19  21
HETATM   21  C4  UNL     1      27.754  -0.677  52.986  1.00  0.00     0.120 C 
BRANCH  21  22
HETATM   22  C3  UNL     1      28.958  -0.589  53.898  1.00  0.00     0.022 C 
BRANCH  22  23
HETATM   23  C2  UNL     1      28.934   0.786  54.549  1.00  0.00     0.028 C 
BRANCH  23  24
HETATM   24  C1  UNL     1      28.739   1.905  53.554  1.00  0.00     0.164 C 
BRANCH  24  25
HETATM   25  O1  UNL     1      27.861   2.814  54.183  1.00  0.00    -0.401 OA
HETATM   26  H1  UNL     1      27.558   2.468  55.059  1.00  0.00     0.209 HD
ENDBRANCH  24  25
ENDBRANCH  23  24
ENDBRANCH  22  23
ENDBRANCH  21  22
ENDBRANCH  19  21
ENDBRANCH   1  19
TORSDOF 8
ENDMDL
MODEL 5
REMARK VINA RESULT:      -7.7      1.339      1.716
REMARK  8 active torsions:
REMARK  status: ('A' for Active; 'I' for Inactive)
REMARK    1  A    between atoms: O1_1  and  C1_2 
REMARK    2  A    between atoms: C1_2  and  C2_3 
REMARK    3  A    between atoms: C2_3  and  C3_4 
REMARK    4  A    between atoms: C3_4  and  C4_5 
REMARK    5  A    between atoms: C4_5  and  N1_6 
REMARK    6  A    between atoms: N1_6  and  C5_7 
REMARK    7  A    between atoms: C8_11  and  C9_12 
REMARK    8  A    between atoms: C12_16  and  C13_17 
ROOT
HETATM    1  C5  UNL     1      24.935  -0.767  54.755  1.00  0.00     0.046 A 
HETATM    2  C6  UNL     1      24.034  -1.394  55.555  1.00  0.00     0.145 A 
HETATM    3  N2  UNL     1      22.704  -1.454  55.370  1.00  0.00    -0.270 NA
HETATM    4  C7  UNL     1      22.163  -0.834  54.282  1.00  0.00     0.130 A 
HETATM    5  C8  UNL     1      23.025  -0.178  53.428  1.00  0.00     0.014 A 
HETATM    6  C18 UNL     1      24.382  -0.144  53.657  1.00  0.00     0.046 A 
ENDROOT
BRANCH   5   7
HETATM    7  C9  UNL     1      22.415   0.471  52.276  1.00  0.00     0.086 A 
HETATM    8  C10 UNL     1      21.232   0.094  51.678  1.00  0.00     0.148 A 
HETATM    9  N3  UNL     1      20.704   0.723  50.614  1.00  0.00    -0.268 NA
HETATM   10  C11 UNL     1      21.330   1.780  50.073  1.00  0.00     0.148 A 
HETATM   11  C12 UNL     1      22.516   2.190  50.642  1.00  0.00     0.083 A 
HETATM   12  N4  UNL     1      23.029   1.533  51.723  1.00  0.00    -0.245 NA
BRANCH  11  13
HETATM   13  C13 UNL     1      23.311   3.335  50.152  1.00  0.00    -0.006 A 
HETATM   14  C14 UNL     1      23.393   3.825  48.909  1.00  0.00     0.011 A 
HETATM   15  C15 UNL     1      24.294   4.950  48.907  1.00  0.00    -0.002 A 
HETATM   16  C16 UNL     1      24.754   5.144  50.124  1.00  0.00    -0.002 A 
HETATM   17  C17 UNL     1      24.169   4.126  51.050  1.00  0.00     0.140 A 
HETATM   18 CL1  UNL     1      23.109   4.924  52.247  1.00  0.00    -0.116 Cl
ENDBRANCH  11  13
ENDBRANCH   5   7
BRANCH   1  19
HETATM   19  N1  UNL     1      26.324  -0.698  54.966  1.00  0.00    -0.389 N 
HETATM   20  H10 UNL     1      26.823  -1.562  55.303  1.00  0.00     0.159 HD
BRANCH  19  21
HETATM   21  C4  UNL     1      27.223   0.421  54.787  1.00  0.00     0.120 C 
BRANCH  21  22
HETATM   22  C3  UNL     1      28.566  -0.123  54.352  1.00  0.00     0.022 C 
BRANCH  22  23
HETATM   23  C2  UNL     1      28.307  -1.153  53.262  1.00  0.00     0.028 C 
BRANCH  23  24
HETATM   24  C1  UNL     1      29.310  -2.281  53.269  1.00  0.00     0.164 C 
BRANCH  24  25
HETATM   25  O1  UNL     1      28.541  -3.463  53.334  1.00  0.00    -0.401 OA
HETATM   26  H1  UNL     1      29.020  -4.223  52.921  1.00  0.00     0.209 HD
ENDBRANCH  24  25
ENDBRANCH  23  24
ENDBRANCH  22  23
ENDBRANCH  21  22
ENDBRANCH  19  21
ENDBRANCH   1  19
TORSDOF 8
ENDMDL
MODEL 6
REMARK VINA RESULT:      -7.7      3.843      6.983
REMARK  8 active torsions:
REMARK  status: ('A' for Active; 'I' for Inactive)
REMARK    1  A    between atoms: O1_1  and  C1_2 
REMARK    2  A    between atoms: C1_2  and  C2_3 
REMARK    3  A    between atoms: C2_3  and  C3_4 
REMARK    4  A    between atoms: C3_4  and  C4_5 
REMARK    5  A    between atoms: C4_5  and  N1_6 
REMARK    6  A    between atoms: N1_6  and  C5_7 
REMARK    7  A    between atoms: C8_11  and  C9_12 
REMARK    8  A    between atoms: C12_16  and  C13_17 
ROOT
HETATM    1  C5  UNL     1      23.786   5.279  51.448  1.00  0.00     0.046 A 
HETATM    2  C6  UNL     1      22.455   5.530  51.344  1.00  0.00     0.145 A 
HETATM    3  N2  UNL     1      21.454   4.697  51.678  1.00  0.00    -0.270 NA
HETATM    4  C7  UNL     1      21.762   3.464  52.175  1.00  0.00     0.130 A 
HETATM    5  C8  UNL     1      23.098   3.147  52.306  1.00  0.00     0.014 A 
HETATM    6  C18 UNL     1      24.090   4.032  51.951  1.00  0.00     0.046 A 
ENDROOT
BRANCH   5   7
HETATM    7  C9  UNL     1      23.391   1.824  52.841  1.00  0.00     0.086 A 
HETATM    8  C10 UNL     1      22.458   0.853  53.133  1.00  0.00     0.148 A 
HETATM    9  N3  UNL     1      22.774  -0.357  53.626  1.00  0.00    -0.268 NA
HETATM   10  C11 UNL     1      24.056  -0.679  53.862  1.00  0.00     0.148 A 
HETATM   11  C12 UNL     1      25.021   0.265  53.582  1.00  0.00     0.083 A 
HETATM   12  N4  UNL     1      24.672   1.486  53.082  1.00  0.00    -0.245 NA
BRANCH  11  13
HETATM   13  C13 UNL     1      26.467   0.048  53.792  1.00  0.00    -0.006 A 
HETATM   14  C14 UNL     1      27.194   0.262  54.896  1.00  0.00     0.011 A 
HETATM   15  C15 UNL     1      28.565  -0.093  54.631  1.00  0.00    -0.002 A 
HETATM   16  C16 UNL     1      28.676  -0.515  53.390  1.00  0.00    -0.002 A 
HETATM   17  C17 UNL     1      27.338  -0.467  52.723  1.00  0.00     0.140 A 
HETATM   18 CL1  UNL     1      26.791  -2.122  52.330  1.00  0.00    -0.116 Cl
ENDBRANCH  11  13
ENDBRANCH   5   7
BRANCH   1  19
HETATM   19  N1  UNL     1      24.826   6.152  51.081  1.00  0.00    -0.389 N 
HETATM   20  H10 UNL     1      25.634   6.275  51.744  1.00  0.00     0.159 HD
BRANCH  19  21
HETATM   21  C4  UNL     1      24.972   6.948  49.883  1.00  0.00     0.120 C 
BRANCH  21  22
HETATM   22  C3  UNL     1      25.390   6.026  48.758  1.00  0.00     0.022 C 
BRANCH  22  23
HETATM   23  C2  UNL     1      26.906   6.092  48.656  1.00  0.00     0.028 C 
BRANCH  23  24
HETATM   24  C1  UNL     1      27.559   4.731  48.710  1.00  0.00     0.164 C 
BRANCH  24  25
HETATM   25  O1  UNL     1      27.201   4.196  49.967  1.00  0.00    -0.401 OA
HETATM   26  H1  UNL     1      27.997   3.863  50.451  1.00  0.00     0.209 HD
ENDBRANCH  24  25
ENDBRANCH  23  24
ENDBRANCH  22  23
ENDBRANCH  21  22
ENDBRANCH  19  21
ENDBRANCH   1  19
TORSDOF 8
ENDMDL
MODEL 7
REMARK VINA RESULT:      -7.5      3.153      4.963
REMARK  8 active torsions:
REMARK  status: ('A' for Active; 'I' for Inactive)
REMARK    1  A    between atoms: O1_1  and  C1_2 
REMARK    2  A    between atoms: C1_2  and  C2_3 
REMARK    3  A    between atoms: C2_3  and  C3_4 
REMARK    4  A    between atoms: C3_4  and  C4_5 
REMARK    5  A    between atoms: C4_5  and  N1_6 
REMARK    6  A    between atoms: N1_6  and  C5_7 
REMARK    7  A    between atoms: C8_11  and  C9_12 
REMARK    8  A    between atoms: C12_16  and  C13_17 
ROOT
HETATM    1  C5  UNL     1      26.276   1.575  52.198  1.00  0.00     0.046 A 
HETATM    2  C6  UNL     1      27.219   0.648  52.509  1.00  0.00     0.145 A 
HETATM    3  N2  UNL     1      27.013  -0.530  53.123  1.00  0.00    -0.270 NA
HETATM    4  C7  UNL     1      25.742  -0.868  53.488  1.00  0.00     0.130 A 
HETATM    5  C8  UNL     1      24.737   0.031  53.200  1.00  0.00     0.014 A 
HETATM    6  C18 UNL     1      24.995   1.228  52.569  1.00  0.00     0.046 A 
ENDROOT
BRANCH   5   7
HETATM    7  C9  UNL     1      23.393  -0.361  53.602  1.00  0.00     0.086 A 
HETATM    8  C10 UNL     1      23.075  -1.096  54.724  1.00  0.00     0.148 A 
HETATM    9  N3  UNL     1      21.818  -1.436  55.057  1.00  0.00    -0.268 NA
HETATM   10  C11 UNL     1      20.787  -1.060  54.285  1.00  0.00     0.148 A 
HETATM   11  C12 UNL     1      21.062  -0.323  53.153  1.00  0.00     0.083 A 
HETATM   12  N4  UNL     1      22.348   0.009  52.838  1.00  0.00    -0.245 NA
BRANCH  11  13
HETATM   13  C13 UNL     1      20.029   0.157  52.213  1.00  0.00    -0.006 A 
HETATM   14  C14 UNL     1      18.832  -0.379  51.940  1.00  0.00     0.011 A 
HETATM   15  C15 UNL     1      18.166   0.437  50.956  1.00  0.00    -0.002 A 
HETATM   16  C16 UNL     1      18.940   1.451  50.633  1.00  0.00    -0.002 A 
HETATM   17  C17 UNL     1      20.217   1.375  51.408  1.00  0.00     0.140 A 
HETATM   18 CL1  UNL     1      20.331   2.757  52.535  1.00  0.00    -0.116 Cl
ENDBRANCH  11  13
ENDBRANCH   5   7
BRANCH   1  19
HETATM   19  N1  UNL     1      26.506   2.812  51.569  1.00  0.00    -0.389 N 
HETATM   20  H10 UNL     1      27.318   3.397  51.896  1.00  0.00     0.159 HD
BRANCH  19  21
HETATM   21  C4  UNL     1      25.773   3.442  50.494  1.00  0.00     0.120 C 
BRANCH  21  22
HETATM   22  C3  UNL     1      26.738   3.704  49.359  1.00  0.00     0.022 C 
BRANCH  22  23
HETATM   23  C2  UNL     1      26.697   5.195  49.062  1.00  0.00     0.028 C 
BRANCH  23  24
HETATM   24  C1  UNL     1      27.930   5.687  48.342  1.00  0.00     0.164 C 
BRANCH  24  25
HETATM   25  O1  UNL     1      29.017   5.277  49.144  1.00  0.00    -0.401 OA
HETATM   26  H1  UNL     1      29.174   4.304  49.062  1.00  0.00     0.209 HD
ENDBRANCH  24  25
ENDBRANCH  23  24
ENDBRANCH  22  23
ENDBRANCH  21  22
ENDBRANCH  19  21
ENDBRANCH   1  19
TORSDOF 8
ENDMDL
MODEL 8
REMARK VINA RESULT:      -7.4      1.933      2.375
REMARK  8 active torsions:
REMARK  status: ('A' for Active; 'I' for Inactive)
REMARK    1  A    between atoms: O1_1  and  C1_2 
REMARK    2  A    between atoms: C1_2  and  C2_3 
REMARK    3  A    between atoms: C2_3  and  C3_4 
REMARK    4  A    between atoms: C3_4  and  C4_5 
REMARK    5  A    between atoms: C4_5  and  N1_6 
REMARK    6  A    between atoms: N1_6  and  C5_7 
REMARK    7  A    between atoms: C8_11  and  C9_12 
REMARK    8  A    between atoms: C12_16  and  C13_17 
ROOT
HETATM    1  C5  UNL     1      24.651  -0.830  54.828  1.00  0.00     0.046 A 
HETATM    2  C6  UNL     1      23.683  -1.452  55.551  1.00  0.00     0.145 A 
HETATM    3  N2  UNL     1      22.369  -1.483  55.270  1.00  0.00    -0.270 NA
HETATM    4  C7  UNL     1      21.919  -0.838  54.155  1.00  0.00     0.130 A 
HETATM    5  C8  UNL     1      22.852  -0.187  53.376  1.00  0.00     0.014 A 
HETATM    6  C18 UNL     1      24.190  -0.181  53.702  1.00  0.00     0.046 A 
ENDROOT
BRANCH   5   7
HETATM    7  C9  UNL     1      22.339   0.489  52.192  1.00  0.00     0.086 A 
HETATM    8  C10 UNL     1      21.184   0.156  51.517  1.00  0.00     0.148 A 
HETATM    9  N3  UNL     1      20.746   0.809  50.427  1.00  0.00    -0.268 NA
HETATM   10  C11 UNL     1      21.440   1.848  49.936  1.00  0.00     0.148 A 
HETATM   11  C12 UNL     1      22.601   2.214  50.582  1.00  0.00     0.083 A 
HETATM   12  N4  UNL     1      23.022   1.533  51.688  1.00  0.00    -0.245 NA
BRANCH  11  13
HETATM   13  C13 UNL     1      23.463   3.334  50.153  1.00  0.00    -0.006 A 
HETATM   14  C14 UNL     1      23.606   3.858  48.929  1.00  0.00     0.011 A 
HETATM   15  C15 UNL     1      24.559   4.938  48.990  1.00  0.00    -0.002 A 
HETATM   16  C16 UNL     1      24.989   5.073  50.226  1.00  0.00    -0.002 A 
HETATM   17  C17 UNL     1      24.329   4.055  51.101  1.00  0.00     0.140 A 
HETATM   18 CL1  UNL     1      23.272   4.865  52.291  1.00  0.00    -0.116 Cl
ENDBRANCH  11  13
ENDBRANCH   5   7
BRANCH   1  19
HETATM   19  N1  UNL     1      26.022  -0.790  55.139  1.00  0.00    -0.389 N 
HETATM   20  H10 UNL     1      26.434  -1.589  55.688  1.00  0.00     0.159 HD
BRANCH  19  21
HETATM   21  C4  UNL     1      27.006   0.218  54.813  1.00  0.00     0.120 C 
BRANCH  21  22
HETATM   22  C3  UNL     1      27.828  -0.290  53.649  1.00  0.00     0.022 C 
BRANCH  22  23
HETATM   23  C2  UNL     1      29.226   0.293  53.792  1.00  0.00     0.028 C 
BRANCH  23  24
HETATM   24  C1  UNL     1      29.222   1.707  54.322  1.00  0.00     0.164 C 
BRANCH  24  25
HETATM   25  O1  UNL     1      29.143   2.533  53.179  1.00  0.00    -0.401 OA
HETATM   26  H1  UNL     1      28.412   2.242  52.579  1.00  0.00     0.209 HD
ENDBRANCH  24  25
ENDBRANCH  23  24
ENDBRANCH  22  23
ENDBRANCH  21  22
ENDBRANCH  19  21
ENDBRANCH   1  19
TORSDOF 8
ENDMDL
MODEL 9
REMARK VINA RESULT:      -7.3      5.116      7.749
REMARK  8 active torsions:
REMARK  status: ('A' for Active; 'I' for Inactive)
REMARK    1  A    between atoms: O1_1  and  C1_2 
REMARK    2  A    between atoms: C1_2  and  C2_3 
REMARK    3  A    between atoms: C2_3  and  C3_4 
REMARK    4  A    between atoms: C3_4  and  C4_5 
REMARK    5  A    between atoms: C4_5  and  N1_6 
REMARK    6  A    between atoms: N1_6  and  C5_7 
REMARK    7  A    between atoms: C8_11  and  C9_12 
REMARK    8  A    between atoms: C12_16  and  C13_17 
ROOT
HETATM    1  C5  UNL     1      26.844   5.032  49.112  1.00  0.00     0.046 A 
HETATM    2  C6  UNL     1      25.710   5.656  48.699  1.00  0.00     0.145 A 
HETATM    3  N2  UNL     1      24.449   5.322  49.021  1.00  0.00    -0.270 NA
HETATM    4  C7  UNL     1      24.241   4.254  49.844  1.00  0.00     0.130 A 
HETATM    5  C8  UNL     1      25.352   3.576  50.300  1.00  0.00     0.014 A 
HETATM    6  C18 UNL     1      26.627   3.954  49.943  1.00  0.00     0.046 A 
ENDROOT
BRANCH   5   7
HETATM    7  C9  UNL     1      25.094   2.442  51.177  1.00  0.00     0.086 A 
HETATM    8  C10 UNL     1      23.850   1.935  51.486  1.00  0.00     0.148 A 
HETATM    9  N3  UNL     1      23.659   0.884  52.302  1.00  0.00    -0.268 NA
HETATM   10  C11 UNL     1      24.707   0.266  52.868  1.00  0.00     0.148 A 
HETATM   11  C12 UNL     1      25.969   0.742  52.584  1.00  0.00     0.083 A 
HETATM   12  N4  UNL     1      26.135   1.811  51.751  1.00  0.00    -0.245 NA
BRANCH  11  13
HETATM   13  C13 UNL     1      27.210   0.161  53.136  1.00  0.00    -0.006 A 
HETATM   14  C14 UNL     1      27.831  -0.972  52.784  1.00  0.00     0.011 A 
HETATM   15  C15 UNL     1      29.009  -1.133  53.599  1.00  0.00    -0.002 A 
HETATM   16  C16 UNL     1      29.106  -0.120  54.433  1.00  0.00    -0.002 A 
HETATM   17  C17 UNL     1      27.959   0.816  54.220  1.00  0.00     0.140 A 
HETATM   18 CL1  UNL     1      28.554   2.382  53.598  1.00  0.00    -0.116 Cl
ENDBRANCH  11  13
ENDBRANCH   5   7
BRANCH   1  19
HETATM   19  N1  UNL     1      28.159   5.381  48.756  1.00  0.00    -0.389 N 
HETATM   20  H10 UNL     1      28.949   4.781  49.111  1.00  0.00     0.159 HD
BRANCH  19  21
HETATM   21  C4  UNL     1      28.626   6.481  47.943  1.00  0.00     0.120 C 
BRANCH  21  22
HETATM   22  C3  UNL     1      30.109   6.650  48.192  1.00  0.00     0.022 C 
BRANCH  22  23
HETATM   23  C2  UNL     1      30.783   5.335  47.832  1.00  0.00     0.028 C 
BRANCH  23  24
HETATM   24  C1  UNL     1      32.087   5.123  48.562  1.00  0.00     0.164 C 
BRANCH  24  25
HETATM   25  O1  UNL     1      31.776   5.275  49.931  1.00  0.00    -0.401 OA
HETATM   26  H1  UNL     1      30.991   4.727  50.181  1.00  0.00     0.209 HD
ENDBRANCH  24  25
ENDBRANCH  23  24
ENDBRANCH  22  23
ENDBRANCH  21  22
ENDBRANCH  19  21
ENDBRANCH   1  19
TORSDOF 8
ENDMDL
