MODEL 1
REMARK VINA RESULT:      -8.7      0.000      0.000
REMARK  5 active torsions:
REMARK  status: ('A' for Active; 'I' for Inactive)
REMARK    1  A    between atoms: C5_7  and  N3_8 
REMARK    2  A    between atoms: N3_8  and  C6_9 
REMARK    3  A    between atoms: C10_16  and  N7_17 
REMARK    4  A    between atoms: N7_17  and  N8_18 
REMARK    5  A    between atoms: C13_21  and  N9_22 
ROOT
HETATM    1  C6  UNL     1      23.211   5.191  51.298  1.00  0.00     0.161 A 
HETATM    2  N4  UNL     1      22.326   6.058  50.736  1.00  0.00    -0.220 NA
HETATM    3  C7  UNL     1      21.012   5.700  50.705  1.00  0.00     0.258 A 
HETATM    4  N5  UNL     1      20.598   4.519  51.218  1.00  0.00    -0.161 NA
HETATM    5  N6  UNL     1      21.441   3.683  51.757  1.00  0.00    -0.238 N 
HETATM    6  C8  UNL     1      21.337   2.461  52.349  1.00  0.00     0.121 A 
HETATM    7  C9  UNL     1      22.602   2.059  52.749  1.00  0.00     0.052 A 
HETATM    8  C10 UNL     1      23.496   3.045  52.401  1.00  0.00     0.077 A 
HETATM    9  C16 UNL     1      22.744   4.011  51.801  1.00  0.00     0.131 A 
ENDROOT
BRANCH   1  10
HETATM   10  N3  UNL     1      24.535   5.698  51.264  1.00  0.00    -0.339 N 
HETATM   11  H6  UNL     1      25.042   6.211  52.012  1.00  0.00     0.167 HD
BRANCH  10  12
HETATM   12  C5  UNL     1      25.344   5.527  50.081  1.00  0.00     0.035 C 
HETATM   13  C4  UNL     1      25.921   4.292  49.779  1.00  0.00     0.049 C 
HETATM   14  C3  UNL     1      27.056   4.036  49.023  1.00  0.00     0.121 C 
HETATM   15  N2  UNL     1      27.945   4.950  48.598  1.00  0.00    -0.243 N 
HETATM   16  N1  UNL     1      29.187   5.076  48.230  1.00  0.00    -0.170 NA
HETATM   17  C19 UNL     1      27.793   6.340  48.370  1.00  0.00     0.084 A 
HETATM   18  C2  UNL     1      29.116   6.404  47.991  1.00  0.00     0.080 A 
HETATM   19  C1  UNL     1      29.900   7.599  47.544  1.00  0.00     0.075 C 
HETATM   20  C18 UNL     1      26.601   7.044  48.560  1.00  0.00     0.036 C 
HETATM   21  C17 UNL     1      25.482   6.693  49.323  1.00  0.00     0.032 C 
ENDBRANCH  10  12
ENDBRANCH   1  10
BRANCH   8  22
HETATM   22  N7  UNL     1      24.888   2.969  52.670  1.00  0.00    -0.317 N 
HETATM   23  H10 UNL     1      25.607   3.716  52.669  1.00  0.00     0.181 HD
BRANCH  22  24
HETATM   24  N8  UNL     1      25.391   1.688  52.988  1.00  0.00    -0.231 NA
HETATM   25  C11 UNL     1      25.969   0.997  51.871  1.00  0.00     0.116 C 
HETATM   26  C12 UNL     1      27.134   0.114  52.263  1.00  0.00     0.051 C 
HETATM   27  C13 UNL     1      27.036  -0.474  53.629  1.00  0.00     0.220 C 
HETATM   28  C14 UNL     1      26.512   0.478  54.682  1.00  0.00     0.051 C 
HETATM   29  C15 UNL     1      26.437   1.834  54.017  1.00  0.00     0.116 C 
BRANCH  27  30
HETATM   30  N9  UNL     1      28.365  -0.894  54.036  1.00  0.00     0.083 N 
HETATM   31  H16 UNL     1      29.044  -0.132  53.809  1.00  0.00     0.313 HD
HETATM   32  H17 UNL     1      28.413  -1.035  55.075  1.00  0.00     0.313 HD
ENDBRANCH  27  30
ENDBRANCH  22  24
ENDBRANCH   8  22
TORSDOF 5
ENDMDL
MODEL 2
REMARK VINA RESULT:      -8.5      2.945      6.219
REMARK  5 active torsions:
REMARK  status: ('A' for Active; 'I' for Inactive)
REMARK    1  A    between atoms: C5_7  and  N3_8 
REMARK    2  A    between atoms: N3_8  and  C6_9 
REMARK    3  A    between atoms: C10_16  and  N7_17 
REMARK    4  A    between atoms: N7_17  and  N8_18 
REMARK    5  A    between atoms: C13_21  and  N9_22 
ROOT
HETATM    1  C6  UNL     1      26.660   1.712  52.346  1.00  0.00     0.161 A 
HETATM    2  N4  UNL     1      27.794   2.461  52.392  1.00  0.00    -0.220 NA
HETATM    3  C7  UNL     1      28.577   2.366  53.504  1.00  0.00     0.258 A 
HETATM    4  N5  UNL     1      28.238   1.552  54.529  1.00  0.00    -0.161 NA
HETATM    5  N6  UNL     1      27.153   0.832  54.490  1.00  0.00    -0.238 N 
HETATM    6  C8  UNL     1      26.563  -0.062  55.331  1.00  0.00     0.121 A 
HETATM    7  C9  UNL     1      25.400  -0.525  54.733  1.00  0.00     0.052 A 
HETATM    8  C10 UNL     1      25.273   0.091  53.509  1.00  0.00     0.077 A 
HETATM    9  C16 UNL     1      26.361   0.906  53.406  1.00  0.00     0.131 A 
ENDROOT
BRANCH   1  10
HETATM   10  N3  UNL     1      25.951   1.908  51.133  1.00  0.00    -0.339 N 
HETATM   11  H6  UNL     1      26.040   1.372  50.248  1.00  0.00     0.167 HD
BRANCH  10  12
HETATM   12  C5  UNL     1      24.973   2.965  51.031  1.00  0.00     0.035 C 
HETATM   13  C4  UNL     1      24.422   3.546  52.174  1.00  0.00     0.049 C 
HETATM   14  C3  UNL     1      23.196   4.180  52.310  1.00  0.00     0.121 C 
HETATM   15  N2  UNL     1      22.202   4.181  51.406  1.00  0.00    -0.243 N 
HETATM   16  N1  UNL     1      20.911   4.319  51.302  1.00  0.00    -0.170 NA
HETATM   17  C19 UNL     1      22.240   3.994  50.001  1.00  0.00     0.084 A 
HETATM   18  C2  UNL     1      20.872   4.150  49.963  1.00  0.00     0.080 A 
HETATM   19  C1  UNL     1      19.963   4.100  48.773  1.00  0.00     0.075 C 
HETATM   20  C18 UNL     1      23.407   3.765  49.269  1.00  0.00     0.036 C 
HETATM   21  C17 UNL     1      24.652   3.305  49.714  1.00  0.00     0.032 C 
ENDBRANCH  10  12
ENDBRANCH   1  10
BRANCH   8  22
HETATM   22  N7  UNL     1      24.196  -0.156  52.618  1.00  0.00    -0.317 N 
HETATM   23  H10 UNL     1      24.210  -0.463  51.627  1.00  0.00     0.181 HD
BRANCH  22  24
HETATM   24  N8  UNL     1      22.899   0.041  53.139  1.00  0.00    -0.231 NA
HETATM   25  C11 UNL     1      22.001   0.695  52.230  1.00  0.00     0.116 C 
HETATM   26  C12 UNL     1      20.569   0.227  52.377  1.00  0.00     0.051 C 
HETATM   27  C13 UNL     1      20.186  -0.175  53.761  1.00  0.00     0.220 C 
HETATM   28  C14 UNL     1      21.246  -0.966  54.497  1.00  0.00     0.051 C 
HETATM   29  C15 UNL     1      22.319  -1.272  53.477  1.00  0.00     0.116 C 
BRANCH  27  30
HETATM   30  N9  UNL     1      18.996  -1.003  53.677  1.00  0.00     0.083 N 
HETATM   31  H16 UNL     1      18.244  -0.575  54.263  1.00  0.00     0.313 HD
HETATM   32  H17 UNL     1      18.627  -1.033  52.696  1.00  0.00     0.313 HD
ENDBRANCH  27  30
ENDBRANCH  22  24
ENDBRANCH   8  22
TORSDOF 5
ENDMDL
MODEL 3
REMARK VINA RESULT:      -8.5      2.240      6.285
REMARK  5 active torsions:
REMARK  status: ('A' for Active; 'I' for Inactive)
REMARK    1  A    between atoms: C5_7  and  N3_8 
REMARK    2  A    between atoms: N3_8  and  C6_9 
REMARK    3  A    between atoms: C10_16  and  N7_17 
REMARK    4  A    between atoms: N7_17  and  N8_18 
REMARK    5  A    between atoms: C13_21  and  N9_22 
ROOT
HETATM    1  C6  UNL     1      22.377   1.716  51.514  1.00  0.00     0.161 A 
HETATM    2  N4  UNL     1      21.352   1.100  52.161  1.00  0.00    -0.220 NA
HETATM    3  C7  UNL     1      20.244   0.773  51.437  1.00  0.00     0.258 A 
HETATM    4  N5  UNL     1      20.166   1.052  50.116  1.00  0.00    -0.161 NA
HETATM    5  N6  UNL     1      21.145   1.642  49.490  1.00  0.00    -0.238 N 
HETATM    6  C8  UNL     1      21.365   2.036  48.206  1.00  0.00     0.121 A 
HETATM    7  C9  UNL     1      22.624   2.615  48.134  1.00  0.00     0.052 A 
HETATM    8  C10 UNL     1      23.186   2.575  49.390  1.00  0.00     0.077 A 
HETATM    9  C16 UNL     1      22.250   1.976  50.180  1.00  0.00     0.131 A 
ENDROOT
BRANCH   1  10
HETATM   10  N3  UNL     1      23.460   1.989  52.388  1.00  0.00    -0.339 N 
HETATM   11  H6  UNL     1      23.676   2.879  52.878  1.00  0.00     0.167 HD
BRANCH  10  12
HETATM   12  C5  UNL     1      24.428   0.960  52.682  1.00  0.00     0.035 C 
HETATM   13  C4  UNL     1      24.298   0.155  53.815  1.00  0.00     0.049 C 
HETATM   14  C3  UNL     1      25.294  -0.512  54.514  1.00  0.00     0.121 C 
HETATM   15  N2  UNL     1      26.618  -0.348  54.354  1.00  0.00    -0.243 N 
HETATM   16  N1  UNL     1      27.750  -0.481  54.983  1.00  0.00    -0.170 NA
HETATM   17  C19 UNL     1      27.356   0.115  53.236  1.00  0.00     0.084 A 
HETATM   18  C2  UNL     1      28.518  -0.049  53.958  1.00  0.00     0.080 A 
HETATM   19  C1  UNL     1      29.927   0.223  53.529  1.00  0.00     0.075 C 
HETATM   20  C18 UNL     1      26.785   0.503  52.022  1.00  0.00     0.036 C 
HETATM   21  C17 UNL     1      25.466   0.883  51.749  1.00  0.00     0.032 C 
ENDBRANCH  10  12
ENDBRANCH   1  10
BRANCH   8  22
HETATM   22  N7  UNL     1      24.482   3.076  49.682  1.00  0.00    -0.317 N 
HETATM   23  H10 UNL     1      25.343   2.569  49.962  1.00  0.00     0.181 HD
BRANCH  22  24
HETATM   24  N8  UNL     1      24.646   4.475  49.585  1.00  0.00    -0.231 NA
HETATM   25  C11 UNL     1      23.974   5.211  50.618  1.00  0.00     0.116 C 
HETATM   26  C12 UNL     1      24.714   6.469  51.021  1.00  0.00     0.051 C 
HETATM   27  C13 UNL     1      25.483   7.116  49.921  1.00  0.00     0.220 C 
HETATM   28  C14 UNL     1      26.218   6.148  49.019  1.00  0.00     0.051 C 
HETATM   29  C15 UNL     1      26.083   4.790  49.671  1.00  0.00     0.116 C 
BRANCH  27  30
HETATM   30  N9  UNL     1      26.471   7.997  50.519  1.00  0.00     0.083 N 
HETATM   31  H16 UNL     1      27.382   7.869  50.023  1.00  0.00     0.313 HD
HETATM   32  H17 UNL     1      26.203   9.004  50.393  1.00  0.00     0.313 HD
ENDBRANCH  27  30
ENDBRANCH  22  24
ENDBRANCH   8  22
TORSDOF 5
ENDMDL
MODEL 4
REMARK VINA RESULT:      -8.4      2.772      4.107
REMARK  5 active torsions:
REMARK  status: ('A' for Active; 'I' for Inactive)
REMARK    1  A    between atoms: C5_7  and  N3_8 
REMARK    2  A    between atoms: N3_8  and  C6_9 
REMARK    3  A    between atoms: C10_16  and  N7_17 
REMARK    4  A    between atoms: N7_17  and  N8_18 
REMARK    5  A    between atoms: C13_21  and  N9_22 
ROOT
HETATM    1  C6  UNL     1      22.420   1.048  52.144  1.00  0.00     0.161 A 
HETATM    2  N4  UNL     1      21.251   1.696  51.890  1.00  0.00    -0.220 NA
HETATM    3  C7  UNL     1      20.196   1.458  52.720  1.00  0.00     0.258 A 
HETATM    4  N5  UNL     1      20.307   0.604  53.763  1.00  0.00    -0.161 NA
HETATM    5  N6  UNL     1      21.424  -0.020  54.010  1.00  0.00    -0.238 N 
HETATM    6  C8  UNL     1      21.841  -0.905  54.958  1.00  0.00     0.121 A 
HETATM    7  C9  UNL     1      23.169  -1.218  54.711  1.00  0.00     0.052 A 
HETATM    8  C10 UNL     1      23.576  -0.517  53.598  1.00  0.00     0.077 A 
HETATM    9  C16 UNL     1      22.481   0.196  53.208  1.00  0.00     0.131 A 
ENDROOT
BRANCH   1  10
HETATM   10  N3  UNL     1      23.426   1.397  51.207  1.00  0.00    -0.339 N 
HETATM   11  H6  UNL     1      23.864   0.791  50.485  1.00  0.00     0.167 HD
BRANCH  10  12
HETATM   12  C5  UNL     1      23.964   2.736  51.189  1.00  0.00     0.035 C 
HETATM   13  C4  UNL     1      23.794   3.592  52.279  1.00  0.00     0.049 C 
HETATM   14  C3  UNL     1      23.791   4.979  52.289  1.00  0.00     0.121 C 
HETATM   15  N2  UNL     1      23.750   5.778  51.209  1.00  0.00    -0.243 N 
HETATM   16  N1  UNL     1      23.399   6.974  50.832  1.00  0.00    -0.170 NA
HETATM   17  C19 UNL     1      24.149   5.532  49.872  1.00  0.00     0.084 A 
HETATM   18  C2  UNL     1      23.758   6.811  49.540  1.00  0.00     0.080 A 
HETATM   19  C1  UNL     1      23.818   7.486  48.204  1.00  0.00     0.075 C 
HETATM   20  C18 UNL     1      24.697   4.329  49.422  1.00  0.00     0.036 C 
HETATM   21  C17 UNL     1      24.630   3.057  50.003  1.00  0.00     0.032 C 
ENDBRANCH  10  12
ENDBRANCH   1  10
BRANCH   8  22
HETATM   22  N7  UNL     1      24.889  -0.592  53.065  1.00  0.00    -0.317 N 
HETATM   23  H10 UNL     1      25.314  -1.304  52.441  1.00  0.00     0.181 HD
BRANCH  22  24
HETATM   24  N8  UNL     1      25.769   0.451  53.427  1.00  0.00    -0.231 NA
HETATM   25  C11 UNL     1      26.502   0.200  54.635  1.00  0.00     0.116 C 
HETATM   26  C12 UNL     1      27.891   0.800  54.618  1.00  0.00     0.051 C 
HETATM   27  C13 UNL     1      28.013   2.060  53.832  1.00  0.00     0.220 C 
HETATM   28  C14 UNL     1      27.250   2.058  52.525  1.00  0.00     0.051 C 
HETATM   29  C15 UNL     1      26.747   0.645  52.341  1.00  0.00     0.116 C 
BRANCH  27  30
HETATM   30  N9  UNL     1      29.417   2.265  53.523  1.00  0.00     0.083 N 
HETATM   31  H16 UNL     1      29.996   1.734  54.213  1.00  0.00     0.313 HD
HETATM   32  H17 UNL     1      29.654   1.878  52.577  1.00  0.00     0.313 HD
ENDBRANCH  27  30
ENDBRANCH  22  24
ENDBRANCH   8  22
TORSDOF 5
ENDMDL
MODEL 5
REMARK VINA RESULT:      -8.3      3.070      6.247
REMARK  5 active torsions:
REMARK  status: ('A' for Active; 'I' for Inactive)
REMARK    1  A    between atoms: C5_7  and  N3_8 
REMARK    2  A    between atoms: N3_8  and  C6_9 
REMARK    3  A    between atoms: C10_16  and  N7_17 
REMARK    4  A    between atoms: N7_17  and  N8_18 
REMARK    5  A    between atoms: C13_21  and  N9_22 
ROOT
HETATM    1  C6  UNL     1      22.168   0.148  52.427  1.00  0.00     0.161 A 
HETATM    2  N4  UNL     1      22.203  -0.780  53.421  1.00  0.00    -0.220 NA
HETATM    3  C7  UNL     1      21.019  -1.181  53.963  1.00  0.00     0.258 A 
HETATM    4  N5  UNL     1      19.844  -0.672  53.527  1.00  0.00    -0.161 NA
HETATM    5  N6  UNL     1      19.804   0.218  52.576  1.00  0.00    -0.238 N 
HETATM    6  C8  UNL     1      18.811   0.891  51.932  1.00  0.00     0.121 A 
HETATM    7  C9  UNL     1      19.388   1.719  50.981  1.00  0.00     0.052 A 
HETATM    8  C10 UNL     1      20.753   1.553  51.039  1.00  0.00     0.077 A 
HETATM    9  C16 UNL     1      20.957   0.631  52.023  1.00  0.00     0.131 A 
ENDROOT
BRANCH   1  10
HETATM   10  N3  UNL     1      23.469   0.462  51.957  1.00  0.00    -0.339 N 
HETATM   11  H6  UNL     1      23.776   0.607  50.975  1.00  0.00     0.167 HD
BRANCH  10  12
HETATM   12  C5  UNL     1      24.558   0.614  52.893  1.00  0.00     0.035 C 
HETATM   13  C4  UNL     1      24.933   1.874  53.359  1.00  0.00     0.049 C 
HETATM   14  C3  UNL     1      26.171   2.280  53.838  1.00  0.00     0.121 C 
HETATM   15  N2  UNL     1      27.317   1.583  53.755  1.00  0.00    -0.243 N 
HETATM   16  N1  UNL     1      28.610   1.736  53.743  1.00  0.00    -0.170 NA
HETATM   17  C19 UNL     1      27.535   0.189  53.629  1.00  0.00     0.084 A 
HETATM   18  C2  UNL     1      28.893   0.421  53.622  1.00  0.00     0.080 A 
HETATM   19  C1  UNL     1      30.007  -0.575  53.511  1.00  0.00     0.075 C 
HETATM   20  C18 UNL     1      26.517  -0.765  53.569  1.00  0.00     0.036 C 
HETATM   21  C17 UNL     1      25.166  -0.595  53.244  1.00  0.00     0.032 C 
ENDBRANCH  10  12
ENDBRANCH   1  10
BRANCH   8  22
HETATM   22  N7  UNL     1      21.661   2.243  50.193  1.00  0.00    -0.317 N 
HETATM   23  H10 UNL     1      21.743   2.235  49.159  1.00  0.00     0.181 HD
BRANCH  22  24
HETATM   24  N8  UNL     1      22.607   3.069  50.838  1.00  0.00    -0.231 NA
HETATM   25  C11 UNL     1      23.671   3.511  49.983  1.00  0.00     0.116 C 
HETATM   26  C12 UNL     1      24.171   4.896  50.331  1.00  0.00     0.051 C 
HETATM   27  C13 UNL     1      24.086   5.242  51.778  1.00  0.00     0.220 C 
HETATM   28  C14 UNL     1      22.814   4.780  52.456  1.00  0.00     0.051 C 
HETATM   29  C15 UNL     1      21.917   4.266  51.352  1.00  0.00     0.116 C 
BRANCH  27  30
HETATM   30  N9  UNL     1      24.152   6.687  51.902  1.00  0.00     0.083 N 
HETATM   31  H16 UNL     1      24.185   6.938  52.916  1.00  0.00     0.313 HD
HETATM   32  H17 UNL     1      25.033   7.062  51.474  1.00  0.00     0.313 HD
ENDBRANCH  27  30
ENDBRANCH  22  24
ENDBRANCH   8  22
TORSDOF 5
ENDMDL
MODEL 6
REMARK VINA RESULT:      -8.2      2.511      5.420
REMARK  5 active torsions:
REMARK  status: ('A' for Active; 'I' for Inactive)
REMARK    1  A    between atoms: C5_7  and  N3_8 
REMARK    2  A    between atoms: N3_8  and  C6_9 
REMARK    3  A    between atoms: C10_16  and  N7_17 
REMARK    4  A    between atoms: N7_17  and  N8_18 
REMARK    5  A    between atoms: C13_21  and  N9_22 
ROOT
HETATM    1  C6  UNL     1      24.092   3.636  50.641  1.00  0.00     0.161 A 
HETATM    2  N4  UNL     1      25.171   4.457  50.530  1.00  0.00    -0.220 NA
HETATM    3  C7  UNL     1      24.951   5.802  50.518  1.00  0.00     0.258 A 
HETATM    4  N5  UNL     1      23.699   6.306  50.613  1.00  0.00    -0.161 NA
HETATM    5  N6  UNL     1      22.662   5.524  50.719  1.00  0.00    -0.238 N 
HETATM    6  C8  UNL     1      21.320   5.720  50.839  1.00  0.00     0.121 A 
HETATM    7  C9  UNL     1      20.702   4.481  50.925  1.00  0.00     0.052 A 
HETATM    8  C10 UNL     1      21.676   3.510  50.859  1.00  0.00     0.077 A 
HETATM    9  C16 UNL     1      22.849   4.193  50.734  1.00  0.00     0.131 A 
ENDROOT
BRANCH   1  10
HETATM   10  N3  UNL     1      24.472   2.269  50.645  1.00  0.00    -0.339 N 
HETATM   11  H6  UNL     1      24.344   1.569  49.889  1.00  0.00     0.167 HD
BRANCH  10  12
HETATM   12  C5  UNL     1      25.117   1.702  51.806  1.00  0.00     0.035 C 
HETATM   13  C4  UNL     1      25.132   2.385  53.023  1.00  0.00     0.049 C 
HETATM   14  C3  UNL     1      26.048   2.273  54.059  1.00  0.00     0.121 C 
HETATM   15  N2  UNL     1      27.225   1.626  54.008  1.00  0.00    -0.243 N 
HETATM   16  N1  UNL     1      28.402   1.596  54.562  1.00  0.00    -0.170 NA
HETATM   17  C19 UNL     1      27.650   0.562  53.174  1.00  0.00     0.084 A 
HETATM   18  C2  UNL     1      28.875   0.584  53.803  1.00  0.00     0.080 A 
HETATM   19  C1  UNL     1      30.071  -0.281  53.543  1.00  0.00     0.075 C 
HETATM   20  C18 UNL     1      26.854  -0.037  52.195  1.00  0.00     0.036 C 
HETATM   21  C17 UNL     1      25.705   0.457  51.567  1.00  0.00     0.032 C 
ENDBRANCH  10  12
ENDBRANCH   1  10
BRANCH   8  22
HETATM   22  N7  UNL     1      21.399   2.120  50.926  1.00  0.00    -0.317 N 
HETATM   23  H10 UNL     1      21.056   1.473  50.191  1.00  0.00     0.181 HD
BRANCH  22  24
HETATM   24  N8  UNL     1      21.613   1.503  52.178  1.00  0.00    -0.231 NA
HETATM   25  C11 UNL     1      20.549   1.711  53.118  1.00  0.00     0.116 C 
HETATM   26  C12 UNL     1      20.341   0.531  54.044  1.00  0.00     0.051 C 
HETATM   27  C13 UNL     1      21.580  -0.233  54.364  1.00  0.00     0.220 C 
HETATM   28  C14 UNL     1      22.507  -0.440  53.186  1.00  0.00     0.051 C 
HETATM   29  C15 UNL     1      21.752   0.049  51.971  1.00  0.00     0.116 C 
BRANCH  27  30
HETATM   30  N9  UNL     1      21.188  -1.544  54.852  1.00  0.00     0.083 N 
HETATM   31  H16 UNL     1      21.299  -1.563  55.892  1.00  0.00     0.313 HD
HETATM   32  H17 UNL     1      20.174  -1.730  54.658  1.00  0.00     0.313 HD
ENDBRANCH  27  30
ENDBRANCH  22  24
ENDBRANCH   8  22
TORSDOF 5
ENDMDL
MODEL 7
REMARK VINA RESULT:      -8.1      1.847      6.602
REMARK  5 active torsions:
REMARK  status: ('A' for Active; 'I' for Inactive)
REMARK    1  A    between atoms: C5_7  and  N3_8 
REMARK    2  A    between atoms: N3_8  and  C6_9 
REMARK    3  A    between atoms: C10_16  and  N7_17 
REMARK    4  A    between atoms: N7_17  and  N8_18 
REMARK    5  A    between atoms: C13_21  and  N9_22 
ROOT
HETATM    1  C6  UNL     1      25.270   3.595  50.395  1.00  0.00     0.161 A 
HETATM    2  N4  UNL     1      26.324   3.256  49.605  1.00  0.00    -0.220 NA
HETATM    3  C7  UNL     1      27.024   4.262  49.008  1.00  0.00     0.258 A 
HETATM    4  N5  UNL     1      26.683   5.557  49.196  1.00  0.00    -0.161 NA
HETATM    5  N6  UNL     1      25.674   5.888  49.952  1.00  0.00    -0.238 N 
HETATM    6  C8  UNL     1      25.104   7.064  50.333  1.00  0.00     0.121 A 
HETATM    7  C9  UNL     1      24.038   6.783  51.175  1.00  0.00     0.052 A 
HETATM    8  C10 UNL     1      23.951   5.417  51.314  1.00  0.00     0.077 A 
HETATM    9  C16 UNL     1      24.965   4.916  50.553  1.00  0.00     0.131 A 
ENDROOT
BRANCH   1  10
HETATM   10  N3  UNL     1      24.643   2.451  50.951  1.00  0.00    -0.339 N 
HETATM   11  H6  UNL     1      23.749   2.008  50.660  1.00  0.00     0.167 HD
BRANCH  10  12
HETATM   12  C5  UNL     1      25.253   1.761  52.063  1.00  0.00     0.035 C 
HETATM   13  C4  UNL     1      25.403   2.388  53.301  1.00  0.00     0.049 C 
HETATM   14  C3  UNL     1      26.335   2.120  54.293  1.00  0.00     0.121 C 
HETATM   15  N2  UNL     1      27.416   1.330  54.169  1.00  0.00    -0.243 N 
HETATM   16  N1  UNL     1      28.600   1.128  54.671  1.00  0.00    -0.170 NA
HETATM   17  C19 UNL     1      27.667   0.253  53.282  1.00  0.00     0.084 A 
HETATM   18  C2  UNL     1      28.909   0.094  53.858  1.00  0.00     0.080 A 
HETATM   19  C1  UNL     1      29.971  -0.906  53.518  1.00  0.00     0.075 C 
HETATM   20  C18 UNL     1      26.764  -0.200  52.318  1.00  0.00     0.036 C 
HETATM   21  C17 UNL     1      25.665   0.461  51.758  1.00  0.00     0.032 C 
ENDBRANCH  10  12
ENDBRANCH   1  10
BRANCH   8  22
HETATM   22  N7  UNL     1      22.974   4.775  52.118  1.00  0.00    -0.317 N 
HETATM   23  H10 UNL     1      22.891   4.724  53.152  1.00  0.00     0.181 HD
BRANCH  22  24
HETATM   24  N8  UNL     1      21.949   4.092  51.427  1.00  0.00    -0.231 NA
HETATM   25  C11 UNL     1      21.276   3.100  52.217  1.00  0.00     0.116 C 
HETATM   26  C12 UNL     1      19.812   2.959  51.863  1.00  0.00     0.051 C 
HETATM   27  C13 UNL     1      19.490   3.223  50.431  1.00  0.00     0.220 C 
HETATM   28  C14 UNL     1      20.231   4.400  49.833  1.00  0.00     0.051 C 
HETATM   29  C15 UNL     1      20.942   5.073  50.985  1.00  0.00     0.116 C 
BRANCH  27  30
HETATM   30  N9  UNL     1      18.068   3.501  50.332  1.00  0.00     0.083 N 
HETATM   31  H16 UNL     1      17.538   2.694  50.733  1.00  0.00     0.313 HD
HETATM   32  H17 UNL     1      17.808   4.341  50.904  1.00  0.00     0.313 HD
ENDBRANCH  27  30
ENDBRANCH  22  24
ENDBRANCH   8  22
TORSDOF 5
ENDMDL
MODEL 8
REMARK VINA RESULT:      -7.8      2.049      4.937
REMARK  5 active torsions:
REMARK  status: ('A' for Active; 'I' for Inactive)
REMARK    1  A    between atoms: C5_7  and  N3_8 
REMARK    2  A    between atoms: N3_8  and  C6_9 
REMARK    3  A    between atoms: C10_16  and  N7_17 
REMARK    4  A    between atoms: N7_17  and  N8_18 
REMARK    5  A    between atoms: C13_21  and  N9_22 
ROOT
HETATM    1  C6  UNL     1      24.856   2.193  53.089  1.00  0.00     0.161 A 
HETATM    2  N4  UNL     1      26.170   2.071  53.419  1.00  0.00    -0.220 NA
HETATM    3  C7  UNL     1      26.588   0.888  53.952  1.00  0.00     0.258 A 
HETATM    4  N5  UNL     1      25.723  -0.133  54.147  1.00  0.00    -0.161 NA
HETATM    5  N6  UNL     1      24.463  -0.022  53.834  1.00  0.00    -0.238 N 
HETATM    6  C8  UNL     1      23.381  -0.846  53.898  1.00  0.00     0.121 A 
HETATM    7  C9  UNL     1      22.281  -0.165  53.399  1.00  0.00     0.052 A 
HETATM    8  C10 UNL     1      22.690   1.094  53.023  1.00  0.00     0.077 A 
HETATM    9  C16 UNL     1      24.024   1.133  53.306  1.00  0.00     0.131 A 
ENDROOT
BRANCH   1  10
HETATM   10  N3  UNL     1      24.570   3.470  52.543  1.00  0.00    -0.339 N 
HETATM   11  H6  UNL     1      24.080   4.265  52.999  1.00  0.00     0.167 HD
BRANCH  10  12
HETATM   12  C5  UNL     1      24.968   3.784  51.191  1.00  0.00     0.035 C 
HETATM   13  C4  UNL     1      25.826   2.941  50.482  1.00  0.00     0.049 C 
HETATM   14  C3  UNL     1      26.675   3.264  49.434  1.00  0.00     0.121 C 
HETATM   15  N2  UNL     1      26.992   4.505  49.027  1.00  0.00    -0.243 N 
HETATM   16  N1  UNL     1      27.920   5.174  48.406  1.00  0.00    -0.170 NA
HETATM   17  C19 UNL     1      26.283   5.725  49.168  1.00  0.00     0.084 A 
HETATM   18  C2  UNL     1      27.302   6.371  48.504  1.00  0.00     0.080 A 
HETATM   19  C1  UNL     1      27.417   7.826  48.166  1.00  0.00     0.075 C 
HETATM   20  C18 UNL     1      25.043   5.846  49.800  1.00  0.00     0.036 C 
HETATM   21  C17 UNL     1      24.429   4.981  50.712  1.00  0.00     0.032 C 
ENDBRANCH  10  12
ENDBRANCH   1  10
BRANCH   8  22
HETATM   22  N7  UNL     1      21.820   2.063  52.458  1.00  0.00    -0.317 N 
HETATM   23  H10 UNL     1      21.126   2.681  52.918  1.00  0.00     0.181 HD
BRANCH  22  24
HETATM   24  N8  UNL     1      21.891   2.223  51.057  1.00  0.00    -0.231 NA
HETATM   25  C11 UNL     1      21.819   0.990  50.327  1.00  0.00     0.116 C 
HETATM   26  C12 UNL     1      21.119   1.135  48.993  1.00  0.00     0.051 C 
HETATM   27  C13 UNL     1      21.292   2.465  48.342  1.00  0.00     0.220 C 
HETATM   28  C14 UNL     1      21.210   3.640  49.291  1.00  0.00     0.051 C 
HETATM   29  C15 UNL     1      20.767   3.071  50.620  1.00  0.00     0.116 C 
BRANCH  27  30
HETATM   30  N9  UNL     1      20.241   2.623  47.352  1.00  0.00     0.083 N 
HETATM   31  H16 UNL     1      19.317   2.637  47.841  1.00  0.00     0.313 HD
HETATM   32  H17 UNL     1      20.327   3.543  46.855  1.00  0.00     0.313 HD
ENDBRANCH  27  30
ENDBRANCH  22  24
ENDBRANCH   8  22
TORSDOF 5
ENDMDL
MODEL 9
REMARK VINA RESULT:      -7.6      1.576      6.326
REMARK  5 active torsions:
REMARK  status: ('A' for Active; 'I' for Inactive)
REMARK    1  A    between atoms: C5_7  and  N3_8 
REMARK    2  A    between atoms: N3_8  and  C6_9 
REMARK    3  A    between atoms: C10_16  and  N7_17 
REMARK    4  A    between atoms: N7_17  and  N8_18 
REMARK    5  A    between atoms: C13_21  and  N9_22 
ROOT
HETATM    1  C6  UNL     1      22.976   4.240  52.063  1.00  0.00     0.161 A 
HETATM    2  N4  UNL     1      22.072   3.260  52.333  1.00  0.00    -0.220 NA
HETATM    3  C7  UNL     1      20.780   3.459  51.947  1.00  0.00     0.258 A 
HETATM    4  N5  UNL     1      20.407   4.595  51.315  1.00  0.00    -0.161 NA
HETATM    5  N6  UNL     1      21.268   5.538  51.055  1.00  0.00    -0.238 N 
HETATM    6  C8  UNL     1      21.207   6.753  50.444  1.00  0.00     0.121 A 
HETATM    7  C9  UNL     1      22.476   7.314  50.453  1.00  0.00     0.052 A 
HETATM    8  C10 UNL     1      23.329   6.432  51.076  1.00  0.00     0.077 A 
HETATM    9  C16 UNL     1      22.550   5.368  51.424  1.00  0.00     0.131 A 
ENDROOT
BRANCH   1  10
HETATM   10  N3  UNL     1      24.275   3.894  52.515  1.00  0.00    -0.339 N 
HETATM   11  H6  UNL     1      24.987   4.514  52.948  1.00  0.00     0.167 HD
BRANCH  10  12
HETATM   12  C5  UNL     1      24.745   2.535  52.390  1.00  0.00     0.035 C 
HETATM   13  C4  UNL     1      24.059   1.480  52.994  1.00  0.00     0.049 C 
HETATM   14  C3  UNL     1      24.557   0.249  53.396  1.00  0.00     0.121 C 
HETATM   15  N2  UNL     1      25.855  -0.093  53.469  1.00  0.00    -0.243 N 
HETATM   16  N1  UNL     1      26.666  -0.912  54.073  1.00  0.00    -0.170 NA
HETATM   17  C19 UNL     1      26.979   0.426  52.780  1.00  0.00     0.084 A 
HETATM   18  C2  UNL     1      27.782  -0.467  53.455  1.00  0.00     0.080 A 
HETATM   19  C1  UNL     1      29.264  -0.650  53.350  1.00  0.00     0.075 C 
HETATM   20  C18 UNL     1      26.919   1.456  51.838  1.00  0.00     0.036 C 
HETATM   21  C17 UNL     1      25.919   2.415  51.641  1.00  0.00     0.032 C 
ENDBRANCH  10  12
ENDBRANCH   1  10
BRANCH   8  22
HETATM   22  N7  UNL     1      24.715   6.680  51.254  1.00  0.00    -0.317 N 
HETATM   23  H10 UNL     1      25.315   6.539  52.089  1.00  0.00     0.181 HD
BRANCH  22  24
HETATM   24  N8  UNL     1      25.403   7.202  50.136  1.00  0.00    -0.231 NA
HETATM   25  C11 UNL     1      26.219   8.343  50.437  1.00  0.00     0.116 C 
HETATM   26  C12 UNL     1      27.472   8.411  49.591  1.00  0.00     0.051 C 
HETATM   27  C13 UNL     1      27.327   7.846  48.220  1.00  0.00     0.220 C 
HETATM   28  C14 UNL     1      26.524   6.565  48.154  1.00  0.00     0.051 C 
HETATM   29  C15 UNL     1      26.282   6.153  49.588  1.00  0.00     0.116 C 
BRANCH  27  30
HETATM   30  N9  UNL     1      28.656   7.560  47.707  1.00  0.00     0.083 N 
HETATM   31  H16 UNL     1      29.004   8.396  47.187  1.00  0.00     0.313 HD
HETATM   32  H17 UNL     1      29.334   7.393  48.490  1.00  0.00     0.313 HD
ENDBRANCH  27  30
ENDBRANCH  22  24
ENDBRANCH   8  22
TORSDOF 5
ENDMDL
