MODEL 1
REMARK VINA RESULT:     -10.6      0.000      0.000
REMARK  1 active torsions:
REMARK  status: ('A' for Active; 'I' for Inactive)
REMARK    1  A    between atoms: C13_16  and  C14_17 
ROOT
HETATM    1  O1  UNL     1      22.666  -1.990  55.628  1.00  0.00    -0.268 OA
HETATM    2  C1  UNL     1      22.067  -1.272  54.797  1.00  0.00     0.253 A 
HETATM    3  N1  UNL     1      20.665  -1.170  54.616  1.00  0.00    -0.353 N 
HETATM    4  C2  UNL     1      20.374  -0.245  53.567  1.00  0.00     0.162 A 
HETATM    5  C3  UNL     1      21.692   0.235  53.091  1.00  0.00    -0.024 A 
HETATM    6  C4  UNL     1      21.945   1.141  52.088  1.00  0.00     0.011 A 
HETATM    7  C5  UNL     1      23.250   1.491  51.759  1.00  0.00     0.013 A 
HETATM    8  C6  UNL     1      24.236   0.870  52.500  1.00  0.00    -0.015 A 
HETATM    9  C7  UNL     1      24.025  -0.044  53.512  1.00  0.00    -0.007 A 
HETATM   10  C8  UNL     1      22.709  -0.381  53.829  1.00  0.00     0.049 A 
HETATM   11  C9  UNL     1      24.822  -0.853  54.457  1.00  0.00     0.208 C 
HETATM   12  O2  UNL     1      26.170  -0.615  54.368  1.00  0.00    -0.383 OA
HETATM   13  C10 UNL     1      26.613  -1.180  53.167  1.00  0.00     0.196 C 
HETATM   14  C11 UNL     1      27.073  -0.083  52.283  1.00  0.00     0.012 C 
HETATM   15  C12 UNL     1      26.708   1.081  51.824  1.00  0.00    -0.015 C 
HETATM   16  C13 UNL     1      25.439   1.447  51.911  1.00  0.00    -0.004 C 
HETATM   17  H1  UNL     1      19.968  -1.703  55.179  1.00  0.00     0.163 HD
ENDROOT
BRANCH  16  18
HETATM   18  C14 UNL     1      25.281   2.750  51.237  1.00  0.00    -0.019 A 
HETATM   19  C15 UNL     1      24.481   3.896  51.176  1.00  0.00     0.006 A 
HETATM   20  C16 UNL     1      25.225   4.506  50.190  1.00  0.00     0.043 A 
HETATM   21  C17 UNL     1      26.094   4.956  49.205  1.00  0.00    -0.006 A 
HETATM   22  C19 UNL     1      26.076   3.321  50.235  1.00  0.00    -0.030 A 
HETATM   23  C18 UNL     1      26.897   3.841  49.244  1.00  0.00     0.007 A 
ENDBRANCH  16  18
TORSDOF 1
ENDMDL
MODEL 2
REMARK VINA RESULT:     -10.4      2.064      4.276
REMARK  1 active torsions:
REMARK  status: ('A' for Active; 'I' for Inactive)
REMARK    1  A    between atoms: C13_16  and  C14_17 
ROOT
HETATM    1  O1  UNL     1      20.123   0.998  51.981  1.00  0.00    -0.268 OA
HETATM    2  C1  UNL     1      20.723   0.340  52.860  1.00  0.00     0.253 A 
HETATM    3  N1  UNL     1      20.136  -0.433  53.893  1.00  0.00    -0.353 N 
HETATM    4  C2  UNL     1      21.155  -1.032  54.695  1.00  0.00     0.162 A 
HETATM    5  C3  UNL     1      22.436  -0.583  54.099  1.00  0.00    -0.024 A 
HETATM    6  C4  UNL     1      23.709  -0.892  54.515  1.00  0.00     0.011 A 
HETATM    7  C5  UNL     1      24.818  -0.387  53.843  1.00  0.00     0.013 A 
HETATM    8  C6  UNL     1      24.538   0.422  52.761  1.00  0.00    -0.015 A 
HETATM    9  C7  UNL     1      23.276   0.757  52.311  1.00  0.00    -0.007 A 
HETATM   10  C8  UNL     1      22.177   0.241  52.998  1.00  0.00     0.049 A 
HETATM   11  C9  UNL     1      22.661   1.560  51.236  1.00  0.00     0.208 C 
HETATM   12  O2  UNL     1      23.579   2.109  50.378  1.00  0.00    -0.383 OA
HETATM   13  C10 UNL     1      24.234   3.133  51.071  1.00  0.00     0.196 C 
HETATM   14  C11 UNL     1      25.656   2.749  51.230  1.00  0.00     0.012 C 
HETATM   15  C12 UNL     1      26.410   1.754  51.604  1.00  0.00    -0.015 C 
HETATM   16  C13 UNL     1      25.881   0.764  52.306  1.00  0.00    -0.004 C 
HETATM   17  H1  UNL     1      19.107  -0.534  54.027  1.00  0.00     0.163 HD
ENDROOT
BRANCH  16  18
HETATM   18  C14 UNL     1      26.958  -0.172  52.680  1.00  0.00    -0.019 A 
HETATM   19  C15 UNL     1      27.318  -1.524  52.702  1.00  0.00     0.006 A 
HETATM   20  C16 UNL     1      28.555  -1.307  53.267  1.00  0.00     0.043 A 
HETATM   21  C17 UNL     1      29.753  -0.891  53.833  1.00  0.00    -0.006 A 
HETATM   22  C19 UNL     1      28.205   0.109  53.254  1.00  0.00    -0.030 A 
HETATM   23  C18 UNL     1      29.426   0.443  53.823  1.00  0.00     0.007 A 
ENDBRANCH  16  18
TORSDOF 1
ENDMDL
MODEL 3
REMARK VINA RESULT:      -9.6      2.896      5.372
REMARK  1 active torsions:
REMARK  status: ('A' for Active; 'I' for Inactive)
REMARK    1  A    between atoms: C13_16  and  C14_17 
ROOT
HETATM    1  O1  UNL     1      21.711   3.767  50.759  1.00  0.00    -0.268 OA
HETATM    2  C1  UNL     1      22.897   3.809  50.362  1.00  0.00     0.253 A 
HETATM    3  N1  UNL     1      23.422   4.631  49.334  1.00  0.00    -0.353 N 
HETATM    4  C2  UNL     1      24.821   4.386  49.177  1.00  0.00     0.162 A 
HETATM    5  C3  UNL     1      25.150   3.347  50.181  1.00  0.00    -0.024 A 
HETATM    6  C4  UNL     1      26.376   2.773  50.424  1.00  0.00     0.011 A 
HETATM    7  C5  UNL     1      26.523   1.802  51.410  1.00  0.00     0.013 A 
HETATM    8  C6  UNL     1      25.371   1.476  52.098  1.00  0.00    -0.015 A 
HETATM    9  C7  UNL     1      24.123   2.027  51.884  1.00  0.00    -0.007 A 
HETATM   10  C8  UNL     1      23.996   2.999  50.892  1.00  0.00     0.049 A 
HETATM   11  C9  UNL     1      22.753   1.906  52.422  1.00  0.00     0.208 C 
HETATM   12  O2  UNL     1      22.662   1.039  53.481  1.00  0.00    -0.383 OA
HETATM   13  C10 UNL     1      22.815  -0.255  52.971  1.00  0.00     0.196 C 
HETATM   14  C11 UNL     1      24.069  -0.823  53.520  1.00  0.00     0.012 C 
HETATM   15  C12 UNL     1      25.328  -0.538  53.696  1.00  0.00    -0.015 C 
HETATM   16  C13 UNL     1      25.870   0.465  53.023  1.00  0.00    -0.004 C 
HETATM   17  H1  UNL     1      22.849   5.308  48.785  1.00  0.00     0.163 HD
ENDROOT
BRANCH  16  18
HETATM   18  C14 UNL     1      27.312   0.509  53.330  1.00  0.00    -0.019 A 
HETATM   19  C15 UNL     1      28.355   1.358  53.718  1.00  0.00     0.006 A 
HETATM   20  C16 UNL     1      29.317   0.373  53.709  1.00  0.00     0.043 A 
HETATM   21  C17 UNL     1      30.136  -0.746  53.645  1.00  0.00    -0.006 A 
HETATM   22  C19 UNL     1      28.247  -0.533  53.305  1.00  0.00    -0.030 A 
HETATM   23  C18 UNL     1      29.131  -1.602  53.263  1.00  0.00     0.007 A 
ENDBRANCH  16  18
TORSDOF 1
ENDMDL
MODEL 4
REMARK VINA RESULT:      -9.4      2.697      5.156
REMARK  1 active torsions:
REMARK  status: ('A' for Active; 'I' for Inactive)
REMARK    1  A    between atoms: C13_16  and  C14_17 
ROOT
HETATM    1  O1  UNL     1      19.297   3.612  52.029  1.00  0.00    -0.268 OA
HETATM    2  C1  UNL     1      20.436   3.677  51.516  1.00  0.00     0.253 A 
HETATM    3  N1  UNL     1      20.875   4.601  50.535  1.00  0.00    -0.353 N 
HETATM    4  C2  UNL     1      22.242   4.351  50.205  1.00  0.00     0.162 A 
HETATM    5  C3  UNL     1      22.643   3.199  51.047  1.00  0.00    -0.024 A 
HETATM    6  C4  UNL     1      23.870   2.580  51.094  1.00  0.00     0.011 A 
HETATM    7  C5  UNL     1      24.089   1.502  51.945  1.00  0.00     0.013 A 
HETATM    8  C6  UNL     1      23.006   1.121  52.711  1.00  0.00    -0.015 A 
HETATM    9  C7  UNL     1      21.760   1.714  52.694  1.00  0.00    -0.007 A 
HETATM   10  C8  UNL     1      21.560   2.794  51.834  1.00  0.00     0.049 A 
HETATM   11  C9  UNL     1      20.450   1.558  53.357  1.00  0.00     0.208 C 
HETATM   12  O2  UNL     1      20.444   0.579  54.317  1.00  0.00    -0.383 OA
HETATM   13  C10 UNL     1      20.504  -0.652  53.655  1.00  0.00     0.196 C 
HETATM   14  C11 UNL     1      21.791  -1.301  54.001  1.00  0.00     0.012 C 
HETATM   15  C12 UNL     1      23.070  -1.060  54.073  1.00  0.00    -0.015 C 
HETATM   16  C13 UNL     1      23.568   0.003  53.461  1.00  0.00    -0.004 C 
HETATM   17  H1  UNL     1      20.269   5.345  50.128  1.00  0.00     0.163 HD
ENDROOT
BRANCH  16  18
HETATM   18  C14 UNL     1      25.035  -0.013  53.617  1.00  0.00    -0.019 A 
HETATM   19  C15 UNL     1      26.109   0.639  54.234  1.00  0.00     0.006 A 
HETATM   20  C16 UNL     1      27.070  -0.193  53.703  1.00  0.00     0.043 A 
HETATM   21  C17 UNL     1      27.885  -1.128  53.079  1.00  0.00    -0.006 A 
HETATM   22  C19 UNL     1      25.968  -0.890  53.049  1.00  0.00    -0.030 A 
HETATM   23  C18 UNL     1      26.849  -1.786  52.461  1.00  0.00     0.007 A 
ENDBRANCH  16  18
TORSDOF 1
ENDMDL
MODEL 5
REMARK VINA RESULT:      -9.2      2.315      4.337
REMARK  1 active torsions:
REMARK  status: ('A' for Active; 'I' for Inactive)
REMARK    1  A    between atoms: C13_16  and  C14_17 
ROOT
HETATM    1  O1  UNL     1      25.173  -1.408  55.679  1.00  0.00    -0.268 OA
HETATM    2  C1  UNL     1      25.622  -0.665  54.777  1.00  0.00     0.253 A 
HETATM    3  N1  UNL     1      26.972  -0.281  54.585  1.00  0.00    -0.353 N 
HETATM    4  C2  UNL     1      27.080   0.575  53.446  1.00  0.00     0.162 A 
HETATM    5  C3  UNL     1      25.699   0.709  52.925  1.00  0.00    -0.024 A 
HETATM    6  C4  UNL     1      25.279   1.433  51.835  1.00  0.00     0.011 A 
HETATM    7  C5  UNL     1      23.937   1.458  51.473  1.00  0.00     0.013 A 
HETATM    8  C6  UNL     1      23.092   0.717  52.275  1.00  0.00    -0.015 A 
HETATM    9  C7  UNL     1      23.473  -0.023  53.376  1.00  0.00    -0.007 A 
HETATM   10  C8  UNL     1      24.823  -0.035  53.724  1.00  0.00     0.049 A 
HETATM   11  C9  UNL     1      22.849  -0.888  54.398  1.00  0.00     0.208 C 
HETATM   12  O2  UNL     1      21.505  -1.078  54.199  1.00  0.00    -0.383 OA
HETATM   13  C10 UNL     1      20.865   0.127  54.508  1.00  0.00     0.196 C 
HETATM   14  C11 UNL     1      20.260   0.661  53.265  1.00  0.00     0.012 C 
HETATM   15  C12 UNL     1      20.540   0.909  52.017  1.00  0.00    -0.015 C 
HETATM   16  C13 UNL     1      21.806   0.957  51.631  1.00  0.00    -0.004 C 
HETATM   17  H1  UNL     1      27.755  -0.590  55.200  1.00  0.00     0.163 HD
ENDROOT
BRANCH  16  18
HETATM   18  C14 UNL     1      21.846   1.348  50.209  1.00  0.00    -0.019 A 
HETATM   19  C15 UNL     1      21.655   0.875  48.905  1.00  0.00     0.006 A 
HETATM   20  C16 UNL     1      21.962   2.074  48.300  1.00  0.00     0.043 A 
HETATM   21  C17 UNL     1      22.298   3.354  47.879  1.00  0.00    -0.006 A 
HETATM   22  C19 UNL     1      22.166   2.591  49.649  1.00  0.00    -0.030 A 
HETATM   23  C18 UNL     1      22.491   3.844  49.148  1.00  0.00     0.007 A 
ENDBRANCH  16  18
TORSDOF 1
ENDMDL
MODEL 6
REMARK VINA RESULT:      -9.0      2.986      4.767
REMARK  1 active torsions:
REMARK  status: ('A' for Active; 'I' for Inactive)
REMARK    1  A    between atoms: C13_16  and  C14_17 
ROOT
HETATM    1  O1  UNL     1      17.803   0.707  51.282  1.00  0.00    -0.268 OA
HETATM    2  C1  UNL     1      18.319  -0.075  52.111  1.00  0.00     0.253 A 
HETATM    3  N1  UNL     1      17.687  -1.165  52.761  1.00  0.00    -0.353 N 
HETATM    4  C2  UNL     1      18.611  -1.815  53.635  1.00  0.00     0.162 A 
HETATM    5  C3  UNL     1      19.879  -1.061  53.496  1.00  0.00    -0.024 A 
HETATM    6  C4  UNL     1      21.073  -1.299  54.135  1.00  0.00     0.011 A 
HETATM    7  C5  UNL     1      22.181  -0.493  53.894  1.00  0.00     0.013 A 
HETATM    8  C6  UNL     1      21.985   0.530  52.988  1.00  0.00    -0.015 A 
HETATM    9  C7  UNL     1      20.805   0.803  52.326  1.00  0.00    -0.007 A 
HETATM   10  C8  UNL     1      19.705  -0.016  52.581  1.00  0.00     0.049 A 
HETATM   11  C9  UNL     1      20.287   1.774  51.341  1.00  0.00     0.208 C 
HETATM   12  O2  UNL     1      21.243   2.645  50.887  1.00  0.00    -0.383 OA
HETATM   13  C10 UNL     1      21.532   3.527  51.935  1.00  0.00     0.196 C 
HETATM   14  C11 UNL     1      22.937   3.304  52.353  1.00  0.00     0.012 C 
HETATM   15  C12 UNL     1      23.770   2.353  52.668  1.00  0.00    -0.015 C 
HETATM   16  C13 UNL     1      23.304   1.152  52.973  1.00  0.00    -0.004 C 
HETATM   17  H1  UNL     1      16.691  -1.432  52.608  1.00  0.00     0.163 HD
ENDROOT
BRANCH  16  18
HETATM   18  C14 UNL     1      24.437   0.301  53.382  1.00  0.00    -0.019 A 
HETATM   19  C15 UNL     1      24.928  -0.497  54.422  1.00  0.00     0.006 A 
HETATM   20  C16 UNL     1      26.095  -0.831  53.771  1.00  0.00     0.043 A 
HETATM   21  C17 UNL     1      27.201  -1.054  52.963  1.00  0.00    -0.006 A 
HETATM   22  C19 UNL     1      25.605  -0.006  52.673  1.00  0.00    -0.030 A 
HETATM   23  C18 UNL     1      26.743  -0.277  51.927  1.00  0.00     0.007 A 
ENDBRANCH  16  18
TORSDOF 1
ENDMDL
MODEL 7
REMARK VINA RESULT:      -9.0      2.637      5.668
REMARK  1 active torsions:
REMARK  status: ('A' for Active; 'I' for Inactive)
REMARK    1  A    between atoms: C13_16  and  C14_17 
ROOT
HETATM    1  O1  UNL     1      27.162   3.578  49.860  1.00  0.00    -0.268 OA
HETATM    2  C1  UNL     1      26.046   3.982  50.257  1.00  0.00     0.253 A 
HETATM    3  N1  UNL     1      25.437   5.226  49.959  1.00  0.00    -0.353 N 
HETATM    4  C2  UNL     1      24.163   5.313  50.599  1.00  0.00     0.162 A 
HETATM    5  C3  UNL     1      24.004   4.033  51.329  1.00  0.00    -0.024 A 
HETATM    6  C4  UNL     1      22.940   3.633  52.101  1.00  0.00     0.011 A 
HETATM    7  C5  UNL     1      22.942   2.389  52.724  1.00  0.00     0.013 A 
HETATM    8  C6  UNL     1      24.066   1.619  52.508  1.00  0.00    -0.015 A 
HETATM    9  C7  UNL     1      25.155   1.982  51.740  1.00  0.00    -0.007 A 
HETATM   10  C8  UNL     1      25.134   3.233  51.123  1.00  0.00     0.049 A 
HETATM   11  C9  UNL     1      26.454   1.417  51.325  1.00  0.00     0.208 C 
HETATM   12  O2  UNL     1      26.653   0.135  51.768  1.00  0.00    -0.383 OA
HETATM   13  C10 UNL     1      26.873   0.202  53.148  1.00  0.00     0.196 C 
HETATM   14  C11 UNL     1      25.750  -0.484  53.830  1.00  0.00     0.012 C 
HETATM   15  C12 UNL     1      24.449  -0.543  53.847  1.00  0.00    -0.015 C 
HETATM   16  C13 UNL     1      23.745   0.424  53.279  1.00  0.00    -0.004 C 
HETATM   17  H1  UNL     1      25.876   5.956  49.358  1.00  0.00     0.163 HD
ENDROOT
BRANCH  16  18
HETATM   18  C14 UNL     1      22.314   0.165  53.524  1.00  0.00    -0.019 A 
HETATM   19  C15 UNL     1      21.377  -0.131  54.522  1.00  0.00     0.006 A 
HETATM   20  C16 UNL     1      20.301  -0.175  53.663  1.00  0.00     0.043 A 
HETATM   21  C17 UNL     1      19.351  -0.174  52.651  1.00  0.00    -0.006 A 
HETATM   22  C19 UNL     1      21.257   0.135  52.605  1.00  0.00    -0.030 A 
HETATM   23  C18 UNL     1      20.248   0.116  51.653  1.00  0.00     0.007 A 
ENDBRANCH  16  18
TORSDOF 1
ENDMDL
MODEL 8
REMARK VINA RESULT:      -8.9      2.344      5.772
REMARK  1 active torsions:
REMARK  status: ('A' for Active; 'I' for Inactive)
REMARK    1  A    between atoms: C13_16  and  C14_17 
ROOT
HETATM    1  O1  UNL     1      27.716   1.431  52.249  1.00  0.00    -0.268 OA
HETATM    2  C1  UNL     1      26.768   2.091  51.768  1.00  0.00     0.253 A 
HETATM    3  N1  UNL     1      26.862   3.269  50.986  1.00  0.00    -0.353 N 
HETATM    4  C2  UNL     1      25.557   3.724  50.627  1.00  0.00     0.162 A 
HETATM    5  C3  UNL     1      24.622   2.750  51.238  1.00  0.00    -0.024 A 
HETATM    6  C4  UNL     1      23.248   2.752  51.178  1.00  0.00     0.011 A 
HETATM    7  C5  UNL     1      22.508   1.759  51.810  1.00  0.00     0.013 A 
HETATM    8  C6  UNL     1      23.246   0.803  52.479  1.00  0.00    -0.015 A 
HETATM    9  C7  UNL     1      24.623   0.764  52.563  1.00  0.00    -0.007 A 
HETATM   10  C8  UNL     1      25.348   1.769  51.923  1.00  0.00     0.049 A 
HETATM   11  C9  UNL     1      25.672  -0.080  53.170  1.00  0.00     0.208 C 
HETATM   12  O2  UNL     1      25.173  -1.192  53.800  1.00  0.00    -0.383 OA
HETATM   13  C10 UNL     1      24.537  -0.757  54.968  1.00  0.00     0.196 C 
HETATM   14  C11 UNL     1      23.089  -1.043  54.839  1.00  0.00     0.012 C 
HETATM   15  C12 UNL     1      22.089  -0.905  54.015  1.00  0.00    -0.015 C 
HETATM   16  C13 UNL     1      22.190  -0.054  53.005  1.00  0.00    -0.004 C 
HETATM   17  H1  UNL     1      27.765   3.720  50.724  1.00  0.00     0.163 HD
ENDROOT
BRANCH  16  18
HETATM   18  C14 UNL     1      20.899  -0.019  52.293  1.00  0.00    -0.019 A 
HETATM   19  C15 UNL     1      20.280   0.378  51.102  1.00  0.00     0.006 A 
HETATM   20  C16 UNL     1      19.026  -0.053  51.473  1.00  0.00     0.043 A 
HETATM   21  C17 UNL     1      17.849  -0.547  52.019  1.00  0.00    -0.006 A 
HETATM   22  C19 UNL     1      19.647  -0.476  52.723  1.00  0.00    -0.030 A 
HETATM   23  C18 UNL     1      18.430  -0.946  53.199  1.00  0.00     0.007 A 
ENDBRANCH  16  18
TORSDOF 1
ENDMDL
MODEL 9
REMARK VINA RESULT:      -8.8      3.529      6.378
REMARK  1 active torsions:
REMARK  status: ('A' for Active; 'I' for Inactive)
REMARK    1  A    between atoms: C13_16  and  C14_17 
ROOT
HETATM    1  O1  UNL     1      23.224   6.860  49.923  1.00  0.00    -0.268 OA
HETATM    2  C1  UNL     1      24.311   6.337  49.592  1.00  0.00     0.253 A 
HETATM    3  N1  UNL     1      25.277   6.872  48.703  1.00  0.00    -0.353 N 
HETATM    4  C2  UNL     1      26.381   5.974  48.582  1.00  0.00     0.162 A 
HETATM    5  C3  UNL     1      26.050   4.827  49.459  1.00  0.00    -0.024 A 
HETATM    6  C4  UNL     1      26.802   3.698  49.686  1.00  0.00     0.011 A 
HETATM    7  C5  UNL     1      26.348   2.703  50.545  1.00  0.00     0.013 A 
HETATM    8  C6  UNL     1      25.121   2.939  51.131  1.00  0.00    -0.015 A 
HETATM    9  C7  UNL     1      24.335   4.056  50.930  1.00  0.00    -0.007 A 
HETATM   10  C8  UNL     1      24.808   5.043  50.065  1.00  0.00     0.049 A 
HETATM   11  C9  UNL     1      23.035   4.591  51.383  1.00  0.00     0.208 C 
HETATM   12  O2  UNL     1      22.420   3.798  52.317  1.00  0.00    -0.383 OA
HETATM   13  C10 UNL     1      21.968   2.651  51.655  1.00  0.00     0.196 C 
HETATM   14  C11 UNL     1      22.715   1.486  52.185  1.00  0.00     0.012 C 
HETATM   15  C12 UNL     1      23.925   1.086  52.455  1.00  0.00    -0.015 C 
HETATM   16  C13 UNL     1      24.957   1.737  51.942  1.00  0.00    -0.004 C 
HETATM   17  H1  UNL     1      25.172   7.789  48.218  1.00  0.00     0.163 HD
ENDROOT
BRANCH  16  18
HETATM   18  C14 UNL     1      26.193   1.027  52.320  1.00  0.00    -0.019 A 
HETATM   19  C15 UNL     1      26.840  -0.213  52.268  1.00  0.00     0.006 A 
HETATM   20  C16 UNL     1      27.968   0.215  52.931  1.00  0.00     0.043 A 
HETATM   21  C17 UNL     1      29.014   0.829  53.607  1.00  0.00    -0.006 A 
HETATM   22  C19 UNL     1      27.316   1.519  52.997  1.00  0.00    -0.030 A 
HETATM   23  C18 UNL     1      28.403   2.057  53.672  1.00  0.00     0.007 A 
ENDBRANCH  16  18
TORSDOF 1
ENDMDL
