MODEL 1
REMARK VINA RESULT:      -8.0      0.000      0.000
REMARK  8 active torsions:
REMARK  status: ('A' for Active; 'I' for Inactive)
REMARK    1  A    between atoms: C3_3  and  O1_4 
REMARK    2  A    between atoms: C3_3  and  C11_14 
REMARK    3  A    between atoms: O1_4  and  C4_5 
REMARK    4  A    between atoms: C4_5  and  C5_6 
REMARK    5  A    between atoms: C5_6  and  C6_7 
REMARK    6  A    between atoms: C6_7  and  N1_8 
REMARK    7  A    between atoms: C15_20  and  N4_21 
REMARK    8  A    between atoms: N4_21  and  C16_22 
ROOT
HETATM    1  C11 UNL     1      22.604   0.779  52.374  1.00  0.00     0.020 C 
HETATM    2  C12 UNL     1      21.417   1.168  52.874  1.00  0.00     0.033 C 
HETATM    3  C13 UNL     1      20.720   0.744  54.074  1.00  0.00     0.118 C 
HETATM    4  N2  UNL     1      20.922  -0.380  54.654  1.00  0.00    -0.255 NA
HETATM    5  C14 UNL     1      21.806  -1.432  54.312  1.00  0.00     0.229 C 
HETATM    6  N3  UNL     1      22.833  -1.272  53.612  1.00  0.00    -0.252 NA
HETATM    7  C15 UNL     1      23.512  -0.220  52.941  1.00  0.00     0.244 C 
ENDROOT
BRANCH   1   8
HETATM    8  C3  UNL     1      22.943   1.474  51.114  1.00  0.00     0.074 C 
HETATM    9  C2  UNL     1      22.352   1.520  49.906  1.00  0.00     0.006 C 
HETATM   10  C1  UNL     1      21.141   0.911  49.302  1.00  0.00     0.039 C 
BRANCH   8  11
HETATM   11  O1  UNL     1      23.993   2.204  51.081  1.00  0.00    -0.351 OA
BRANCH  11  12
HETATM   12  C4  UNL     1      25.064   2.948  51.046  1.00  0.00     0.177 C 
BRANCH  12  13
HETATM   13  C5  UNL     1      25.219   3.894  49.856  1.00  0.00     0.057 C 
BRANCH  13  14
HETATM   14  C6  UNL     1      24.033   4.845  49.940  1.00  0.00     0.274 C 
BRANCH  14  15
HETATM   15  N1  UNL     1      23.860   5.452  51.225  1.00  0.00     0.092 N 
HETATM   16  C7  UNL     1      22.491   5.315  51.691  1.00  0.00     0.298 C 
HETATM   17  C8  UNL     1      21.586   6.098  50.776  1.00  0.00     0.198 C 
HETATM   18  O2  UNL     1      21.920   7.449  50.903  1.00  0.00    -0.388 OA
HETATM   19  C9  UNL     1      23.214   7.700  50.493  1.00  0.00     0.198 C 
HETATM   20  C10 UNL     1      24.227   6.863  51.244  1.00  0.00     0.298 C 
ENDBRANCH  14  15
ENDBRANCH  13  14
ENDBRANCH  12  13
ENDBRANCH  11  12
ENDBRANCH   8  11
ENDBRANCH   1   8
BRANCH   7  21
HETATM   21  N4  UNL     1      24.537   0.356  53.797  1.00  0.00    -0.363 N 
HETATM   22  H23 UNL     1      24.188   0.988  54.550  1.00  0.00     0.162 HD
BRANCH  21  23
HETATM   23  C16 UNL     1      25.923   0.091  53.631  1.00  0.00     0.031 A 
HETATM   24  C17 UNL     1      26.339  -1.096  53.061  1.00  0.00     0.032 A 
HETATM   25  C18 UNL     1      27.710  -1.345  52.907  1.00  0.00     0.046 A 
HETATM   26  C19 UNL     1      28.617  -0.398  53.329  1.00  0.00     0.138 A 
HETATM   27  F1  UNL     1      29.952  -0.677  53.164  1.00  0.00    -0.204 F 
HETATM   28  C20 UNL     1      28.189   0.802  53.905  1.00  0.00     0.074 A 
HETATM   29 CL1  UNL     1      29.379   1.981  54.425  1.00  0.00    -0.081 Cl
HETATM   30  C21 UNL     1      26.833   1.063  54.064  1.00  0.00     0.056 A 
ENDBRANCH  21  23
ENDBRANCH   7  21
TORSDOF 8
ENDMDL
MODEL 2
REMARK VINA RESULT:      -7.6      3.478      6.814
REMARK  8 active torsions:
REMARK  status: ('A' for Active; 'I' for Inactive)
REMARK    1  A    between atoms: C3_3  and  O1_4 
REMARK    2  A    between atoms: C3_3  and  C11_14 
REMARK    3  A    between atoms: O1_4  and  C4_5 
REMARK    4  A    between atoms: C4_5  and  C5_6 
REMARK    5  A    between atoms: C5_6  and  C6_7 
REMARK    6  A    between atoms: C6_7  and  N1_8 
REMARK    7  A    between atoms: C15_20  and  N4_21 
REMARK    8  A    between atoms: N4_21  and  C16_22 
ROOT
HETATM    1  C11 UNL     1      23.807   4.137  50.313  1.00  0.00     0.020 C 
HETATM    2  C12 UNL     1      23.399   4.753  51.437  1.00  0.00     0.033 C 
HETATM    3  C13 UNL     1      22.068   4.888  52.002  1.00  0.00     0.118 C 
HETATM    4  N2  UNL     1      20.992   4.801  51.314  1.00  0.00    -0.255 NA
HETATM    5  C14 UNL     1      20.816   4.567  49.929  1.00  0.00     0.229 C 
HETATM    6  N3  UNL     1      21.673   4.005  49.208  1.00  0.00    -0.252 NA
HETATM    7  C15 UNL     1      22.967   3.435  49.340  1.00  0.00     0.244 C 
ENDROOT
BRANCH   1   8
HETATM    8  C3  UNL     1      25.267   4.239  50.111  1.00  0.00     0.074 C 
HETATM    9  C2  UNL     1      26.039   5.096  49.419  1.00  0.00     0.006 C 
HETATM   10  C1  UNL     1      25.789   6.283  48.563  1.00  0.00     0.039 C 
BRANCH   8  11
HETATM   11  O1  UNL     1      26.026   3.378  50.678  1.00  0.00    -0.351 OA
BRANCH  11  12
HETATM   12  C4  UNL     1      26.799   2.500  51.257  1.00  0.00     0.177 C 
BRANCH  12  13
HETATM   13  C5  UNL     1      26.749   2.423  52.782  1.00  0.00     0.057 C 
BRANCH  13  14
HETATM   14  C6  UNL     1      27.918   1.532  53.179  1.00  0.00     0.274 C 
BRANCH  14  15
HETATM   15  N1  UNL     1      27.621   0.613  54.235  1.00  0.00     0.092 N 
HETATM   16  C7  UNL     1      28.799  -0.146  54.620  1.00  0.00     0.298 C 
HETATM   17  C8  UNL     1      29.214  -1.017  53.464  1.00  0.00     0.198 C 
HETATM   18  O2  UNL     1      28.194  -1.945  53.244  1.00  0.00    -0.388 OA
HETATM   19  C9  UNL     1      27.012  -1.334  52.876  1.00  0.00     0.198 C 
HETATM   20  C10 UNL     1      26.550  -0.317  53.897  1.00  0.00     0.298 C 
ENDBRANCH  14  15
ENDBRANCH  13  14
ENDBRANCH  12  13
ENDBRANCH  11  12
ENDBRANCH   8  11
ENDBRANCH   1   8
BRANCH   7  21
HETATM   21  N4  UNL     1      22.875   2.005  49.587  1.00  0.00    -0.363 N 
HETATM   22  H23 UNL     1      23.125   1.394  48.780  1.00  0.00     0.162 HD
BRANCH  21  23
HETATM   23  C16 UNL     1      22.471   1.460  50.835  1.00  0.00     0.031 A 
HETATM   24  C17 UNL     1      23.380   1.341  51.867  1.00  0.00     0.032 A 
HETATM   25  C18 UNL     1      22.969   0.798  53.092  1.00  0.00     0.046 A 
HETATM   26  C19 UNL     1      21.660   0.392  53.242  1.00  0.00     0.138 A 
HETATM   27  F1  UNL     1      21.293  -0.137  54.456  1.00  0.00    -0.204 F 
HETATM   28  C20 UNL     1      20.745   0.515  52.193  1.00  0.00     0.074 A 
HETATM   29 CL1  UNL     1      19.088  -0.012  52.428  1.00  0.00    -0.081 Cl
HETATM   30  C21 UNL     1      21.139   1.052  50.972  1.00  0.00     0.056 A 
ENDBRANCH  21  23
ENDBRANCH   7  21
TORSDOF 8
ENDMDL
MODEL 3
REMARK VINA RESULT:      -7.5      1.815      2.321
REMARK  8 active torsions:
REMARK  status: ('A' for Active; 'I' for Inactive)
REMARK    1  A    between atoms: C3_3  and  O1_4 
REMARK    2  A    between atoms: C3_3  and  C11_14 
REMARK    3  A    between atoms: O1_4  and  C4_5 
REMARK    4  A    between atoms: C4_5  and  C5_6 
REMARK    5  A    between atoms: C5_6  and  C6_7 
REMARK    6  A    between atoms: C6_7  and  N1_8 
REMARK    7  A    between atoms: C15_20  and  N4_21 
REMARK    8  A    between atoms: N4_21  and  C16_22 
ROOT
HETATM    1  C11 UNL     1      22.527   2.653  50.941  1.00  0.00     0.020 C 
HETATM    2  C12 UNL     1      21.534   3.555  51.037  1.00  0.00     0.033 C 
HETATM    3  C13 UNL     1      20.526   3.735  52.065  1.00  0.00     0.118 C 
HETATM    4  N2  UNL     1      20.148   2.805  52.860  1.00  0.00    -0.255 NA
HETATM    5  C14 UNL     1      20.572   1.457  52.947  1.00  0.00     0.229 C 
HETATM    6  N3  UNL     1      21.680   1.053  52.526  1.00  0.00    -0.252 NA
HETATM    7  C15 UNL     1      22.834   1.580  51.889  1.00  0.00     0.244 C 
ENDROOT
BRANCH   1   8
HETATM    8  C3  UNL     1      23.335   2.828  49.716  1.00  0.00     0.074 C 
HETATM    9  C2  UNL     1      23.055   2.694  48.407  1.00  0.00     0.006 C 
HETATM   10  C1  UNL     1      21.854   2.313  47.620  1.00  0.00     0.039 C 
BRANCH   8  11
HETATM   11  O1  UNL     1      24.558   3.183  49.834  1.00  0.00    -0.351 OA
BRANCH  11  12
HETATM   12  C4  UNL     1      25.807   3.544  49.955  1.00  0.00     0.177 C 
BRANCH  12  13
HETATM   13  C5  UNL     1      26.252   4.788  49.187  1.00  0.00     0.057 C 
BRANCH  13  14
HETATM   14  C6  UNL     1      25.630   5.963  49.929  1.00  0.00     0.274 C 
BRANCH  14  15
HETATM   15  N1  UNL     1      25.172   7.017  49.075  1.00  0.00     0.092 N 
HETATM   16  C7  UNL     1      24.788   8.188  49.845  1.00  0.00     0.298 C 
HETATM   17  C8  UNL     1      23.594   7.840  50.694  1.00  0.00     0.198 C 
HETATM   18  O2  UNL     1      22.529   7.558  49.835  1.00  0.00    -0.388 OA
HETATM   19  C9  UNL     1      22.786   6.459  49.041  1.00  0.00     0.198 C 
HETATM   20  C10 UNL     1      24.053   6.620  48.229  1.00  0.00     0.298 C 
ENDBRANCH  14  15
ENDBRANCH  13  14
ENDBRANCH  12  13
ENDBRANCH  11  12
ENDBRANCH   8  11
ENDBRANCH   1   8
BRANCH   7  21
HETATM   21  N4  UNL     1      23.838   1.953  52.873  1.00  0.00    -0.363 N 
HETATM   22  H23 UNL     1      23.553   2.703  53.539  1.00  0.00     0.162 HD
BRANCH  21  23
HETATM   23  C16 UNL     1      25.123   1.352  52.935  1.00  0.00     0.031 A 
HETATM   24  C17 UNL     1      25.277   0.011  52.645  1.00  0.00     0.032 A 
HETATM   25  C18 UNL     1      26.550  -0.570  52.714  1.00  0.00     0.046 A 
HETATM   26  C19 UNL     1      27.628   0.212  53.070  1.00  0.00     0.138 A 
HETATM   27  F1  UNL     1      28.861  -0.392  53.128  1.00  0.00    -0.204 F 
HETATM   28  C20 UNL     1      27.465   1.570  53.362  1.00  0.00     0.074 A 
HETATM   29 CL1  UNL     1      28.865   2.528  53.808  1.00  0.00    -0.081 Cl
HETATM   30  C21 UNL     1      26.208   2.159  53.298  1.00  0.00     0.056 A 
ENDBRANCH  21  23
ENDBRANCH   7  21
TORSDOF 8
ENDMDL
MODEL 4
REMARK VINA RESULT:      -7.4      3.095      6.857
REMARK  8 active torsions:
REMARK  status: ('A' for Active; 'I' for Inactive)
REMARK    1  A    between atoms: C3_3  and  O1_4 
REMARK    2  A    between atoms: C3_3  and  C11_14 
REMARK    3  A    between atoms: O1_4  and  C4_5 
REMARK    4  A    between atoms: C4_5  and  C5_6 
REMARK    5  A    between atoms: C5_6  and  C6_7 
REMARK    6  A    between atoms: C6_7  and  N1_8 
REMARK    7  A    between atoms: C15_20  and  N4_21 
REMARK    8  A    between atoms: N4_21  and  C16_22 
ROOT
HETATM    1  C11 UNL     1      22.701   3.922  49.978  1.00  0.00     0.020 C 
HETATM    2  C12 UNL     1      22.679   3.961  48.634  1.00  0.00     0.033 C 
HETATM    3  C13 UNL     1      22.763   5.091  47.727  1.00  0.00     0.118 C 
HETATM    4  N2  UNL     1      22.457   6.290  48.055  1.00  0.00    -0.255 NA
HETATM    5  C14 UNL     1      21.989   6.802  49.290  1.00  0.00     0.229 C 
HETATM    6  N3  UNL     1      22.179   6.234  50.390  1.00  0.00    -0.252 NA
HETATM    7  C15 UNL     1      22.807   5.063  50.889  1.00  0.00     0.244 C 
ENDROOT
BRANCH   1   8
HETATM    8  C3  UNL     1      22.588   2.545  50.505  1.00  0.00     0.074 C 
HETATM    9  C2  UNL     1      22.086   1.407  49.995  1.00  0.00     0.006 C 
HETATM   10  C1  UNL     1      21.431   1.024  48.719  1.00  0.00     0.039 C 
BRANCH   8  11
HETATM   11  O1  UNL     1      23.039   2.300  51.677  1.00  0.00    -0.351 OA
BRANCH  11  12
HETATM   12  C4  UNL     1      23.499   2.050  52.873  1.00  0.00     0.177 C 
BRANCH  12  13
HETATM   13  C5  UNL     1      24.902   2.557  53.202  1.00  0.00     0.057 C 
BRANCH  13  14
HETATM   14  C6  UNL     1      25.833   1.389  52.903  1.00  0.00     0.274 C 
BRANCH  14  15
HETATM   15  N1  UNL     1      25.649   0.260  53.763  1.00  0.00     0.092 N 
HETATM   16  C7  UNL     1      26.484   0.359  54.948  1.00  0.00     0.298 C 
HETATM   17  C8  UNL     1      27.929   0.287  54.530  1.00  0.00     0.198 C 
HETATM   18  O2  UNL     1      28.152  -0.981  53.988  1.00  0.00    -0.388 OA
HETATM   19  C9  UNL     1      27.398  -1.193  52.851  1.00  0.00     0.198 C 
HETATM   20  C10 UNL     1      25.917  -1.011  53.101  1.00  0.00     0.298 C 
ENDBRANCH  14  15
ENDBRANCH  13  14
ENDBRANCH  12  13
ENDBRANCH  11  12
ENDBRANCH   8  11
ENDBRANCH   1   8
BRANCH   7  21
HETATM   21  N4  UNL     1      24.174   5.346  51.296  1.00  0.00    -0.363 N 
HETATM   22  H23 UNL     1      24.303   5.576  52.305  1.00  0.00     0.162 HD
BRANCH  21  23
HETATM   23  C16 UNL     1      25.271   5.320  50.394  1.00  0.00     0.031 A 
HETATM   24  C17 UNL     1      25.933   4.135  50.141  1.00  0.00     0.032 A 
HETATM   25  C18 UNL     1      27.016   4.124  49.251  1.00  0.00     0.046 A 
HETATM   26  C19 UNL     1      27.400   5.301  48.645  1.00  0.00     0.138 A 
HETATM   27  F1  UNL     1      28.467   5.253  47.780  1.00  0.00    -0.204 F 
HETATM   28  C20 UNL     1      26.725   6.498  48.905  1.00  0.00     0.074 A 
HETATM   29 CL1  UNL     1      27.246   7.971  48.109  1.00  0.00    -0.081 Cl
HETATM   30  C21 UNL     1      25.649   6.523  49.785  1.00  0.00     0.056 A 
ENDBRANCH  21  23
ENDBRANCH   7  21
TORSDOF 8
ENDMDL
MODEL 5
REMARK VINA RESULT:      -7.3      1.715      2.772
REMARK  8 active torsions:
REMARK  status: ('A' for Active; 'I' for Inactive)
REMARK    1  A    between atoms: C3_3  and  O1_4 
REMARK    2  A    between atoms: C3_3  and  C11_14 
REMARK    3  A    between atoms: O1_4  and  C4_5 
REMARK    4  A    between atoms: C4_5  and  C5_6 
REMARK    5  A    between atoms: C5_6  and  C6_7 
REMARK    6  A    between atoms: C6_7  and  N1_8 
REMARK    7  A    between atoms: C15_20  and  N4_21 
REMARK    8  A    between atoms: N4_21  and  C16_22 
ROOT
HETATM    1  C11 UNL     1      22.825   0.951  52.358  1.00  0.00     0.020 C 
HETATM    2  C12 UNL     1      21.611   1.194  52.883  1.00  0.00     0.033 C 
HETATM    3  C13 UNL     1      21.017   0.734  54.125  1.00  0.00     0.118 C 
HETATM    4  N2  UNL     1      21.392  -0.322  54.744  1.00  0.00    -0.255 NA
HETATM    5  C14 UNL     1      22.405  -1.256  54.415  1.00  0.00     0.229 C 
HETATM    6  N3  UNL     1      23.377  -0.988  53.672  1.00  0.00    -0.252 NA
HETATM    7  C15 UNL     1      23.881   0.115  52.933  1.00  0.00     0.244 C 
ENDROOT
BRANCH   1   8
HETATM    8  C3  UNL     1      23.024   1.626  51.058  1.00  0.00     0.074 C 
HETATM    9  C2  UNL     1      23.917   2.534  50.624  1.00  0.00     0.006 C 
HETATM   10  C1  UNL     1      25.064   3.255  51.230  1.00  0.00     0.039 C 
BRANCH   8  11
HETATM   11  O1  UNL     1      22.231   1.344  50.094  1.00  0.00    -0.351 OA
BRANCH  11  12
HETATM   12  C4  UNL     1      21.423   1.057  49.110  1.00  0.00     0.177 C 
BRANCH  12  13
HETATM   13  C5  UNL     1      20.091   1.804  49.059  1.00  0.00     0.057 C 
BRANCH  13  14
HETATM   14  C6  UNL     1      20.452   3.279  49.180  1.00  0.00     0.274 C 
BRANCH  14  15
HETATM   15  N1  UNL     1      19.695   3.985  50.168  1.00  0.00     0.092 N 
HETATM   16  C7  UNL     1      19.166   5.230  49.635  1.00  0.00     0.298 C 
HETATM   17  C8  UNL     1      20.316   6.146  49.309  1.00  0.00     0.198 C 
HETATM   18  O2  UNL     1      20.958   6.465  50.507  1.00  0.00    -0.388 OA
HETATM   19  C9  UNL     1      21.499   5.349  51.114  1.00  0.00     0.198 C 
HETATM   20  C10 UNL     1      20.462   4.277  51.374  1.00  0.00     0.298 C 
ENDBRANCH  14  15
ENDBRANCH  13  14
ENDBRANCH  12  13
ENDBRANCH  11  12
ENDBRANCH   8  11
ENDBRANCH   1   8
BRANCH   7  21
HETATM   21  N4  UNL     1      24.840   0.869  53.725  1.00  0.00    -0.363 N 
HETATM   22  H23 UNL     1      24.429   1.571  54.377  1.00  0.00     0.162 HD
BRANCH  21  23
HETATM   23  C16 UNL     1      26.244   0.677  53.629  1.00  0.00     0.031 A 
HETATM   24  C17 UNL     1      27.101   1.752  53.748  1.00  0.00     0.032 A 
HETATM   25  C18 UNL     1      28.485   1.549  53.647  1.00  0.00     0.046 A 
HETATM   26  C19 UNL     1      28.963   0.274  53.431  1.00  0.00     0.138 A 
HETATM   27  F1  UNL     1      30.324   0.113  53.337  1.00  0.00    -0.204 F 
HETATM   28  C20 UNL     1      28.089  -0.811  53.312  1.00  0.00     0.074 A 
HETATM   29 CL1  UNL     1      28.741  -2.416  53.040  1.00  0.00    -0.081 Cl
HETATM   30  C21 UNL     1      26.715  -0.623  53.409  1.00  0.00     0.056 A 
ENDBRANCH  21  23
ENDBRANCH   7  21
TORSDOF 8
ENDMDL
MODEL 6
REMARK VINA RESULT:      -7.3      1.489      2.297
REMARK  8 active torsions:
REMARK  status: ('A' for Active; 'I' for Inactive)
REMARK    1  A    between atoms: C3_3  and  O1_4 
REMARK    2  A    between atoms: C3_3  and  C11_14 
REMARK    3  A    between atoms: O1_4  and  C4_5 
REMARK    4  A    between atoms: C4_5  and  C5_6 
REMARK    5  A    between atoms: C5_6  and  C6_7 
REMARK    6  A    between atoms: C6_7  and  N1_8 
REMARK    7  A    between atoms: C15_20  and  N4_21 
REMARK    8  A    between atoms: N4_21  and  C16_22 
ROOT
HETATM    1  C11 UNL     1      22.662   0.830  52.343  1.00  0.00     0.020 C 
HETATM    2  C12 UNL     1      21.489   1.292  52.812  1.00  0.00     0.033 C 
HETATM    3  C13 UNL     1      20.719   0.891  53.975  1.00  0.00     0.118 C 
HETATM    4  N2  UNL     1      20.818  -0.259  54.530  1.00  0.00    -0.255 NA
HETATM    5  C14 UNL     1      21.636  -1.364  54.190  1.00  0.00     0.229 C 
HETATM    6  N3  UNL     1      22.696  -1.262  53.531  1.00  0.00    -0.252 NA
HETATM    7  C15 UNL     1      23.473  -0.247  52.913  1.00  0.00     0.244 C 
ENDROOT
BRANCH   1   8
HETATM    8  C3  UNL     1      23.095   1.530  51.115  1.00  0.00     0.074 C 
HETATM    9  C2  UNL     1      24.120   2.359  50.847  1.00  0.00     0.006 C 
HETATM   10  C1  UNL     1      25.238   2.939  51.631  1.00  0.00     0.039 C 
BRANCH   8  11
HETATM   11  O1  UNL     1      22.415   1.365  50.044  1.00  0.00    -0.351 OA
BRANCH  11  12
HETATM   12  C4  UNL     1      21.722   1.196  48.951  1.00  0.00     0.177 C 
BRANCH  12  13
HETATM   13  C5  UNL     1      22.078   2.078  47.755  1.00  0.00     0.057 C 
BRANCH  13  14
HETATM   14  C6  UNL     1      21.653   3.485  48.152  1.00  0.00     0.274 C 
BRANCH  14  15
HETATM   15  N1  UNL     1      22.446   4.522  47.566  1.00  0.00     0.092 N 
HETATM   16  C7  UNL     1      23.446   5.012  48.499  1.00  0.00     0.298 C 
HETATM   17  C8  UNL     1      22.747   5.676  49.656  1.00  0.00     0.198 C 
HETATM   18  O2  UNL     1      22.078   6.798  49.160  1.00  0.00    -0.388 OA
HETATM   19  C9  UNL     1      21.100   6.453  48.249  1.00  0.00     0.198 C 
HETATM   20  C10 UNL     1      21.652   5.649  47.091  1.00  0.00     0.298 C 
ENDBRANCH  14  15
ENDBRANCH  13  14
ENDBRANCH  12  13
ENDBRANCH  11  12
ENDBRANCH   8  11
ENDBRANCH   1   8
BRANCH   7  21
HETATM   21  N4  UNL     1      24.505   0.231  53.819  1.00  0.00    -0.363 N 
HETATM   22  H23 UNL     1      24.167   0.807  54.620  1.00  0.00     0.162 HD
BRANCH  21  23
HETATM   23  C16 UNL     1      25.886  -0.054  53.640  1.00  0.00     0.031 A 
HETATM   24  C17 UNL     1      26.277  -1.200  52.976  1.00  0.00     0.032 A 
HETATM   25  C18 UNL     1      27.642  -1.470  52.810  1.00  0.00     0.046 A 
HETATM   26  C19 UNL     1      28.570  -0.584  53.315  1.00  0.00     0.138 A 
HETATM   27  F1  UNL     1      29.898  -0.883  53.135  1.00  0.00    -0.204 F 
HETATM   28  C20 UNL     1      28.166   0.574  53.986  1.00  0.00     0.074 A 
HETATM   29 CL1  UNL     1      29.381   1.675  54.610  1.00  0.00    -0.081 Cl
HETATM   30  C21 UNL     1      26.816   0.855  54.158  1.00  0.00     0.056 A 
ENDBRANCH  21  23
ENDBRANCH   7  21
TORSDOF 8
ENDMDL
MODEL 7
REMARK VINA RESULT:      -7.2      3.192      6.225
REMARK  8 active torsions:
REMARK  status: ('A' for Active; 'I' for Inactive)
REMARK    1  A    between atoms: C3_3  and  O1_4 
REMARK    2  A    between atoms: C3_3  and  C11_14 
REMARK    3  A    between atoms: O1_4  and  C4_5 
REMARK    4  A    between atoms: C4_5  and  C5_6 
REMARK    5  A    between atoms: C5_6  and  C6_7 
REMARK    6  A    between atoms: C6_7  and  N1_8 
REMARK    7  A    between atoms: C15_20  and  N4_21 
REMARK    8  A    between atoms: N4_21  and  C16_22 
ROOT
HETATM    1  C11 UNL     1      22.145   2.208  50.583  1.00  0.00     0.020 C 
HETATM    2  C12 UNL     1      22.309   1.800  49.312  1.00  0.00     0.033 C 
HETATM    3  C13 UNL     1      22.579   2.565  48.108  1.00  0.00     0.118 C 
HETATM    4  N2  UNL     1      22.296   3.808  47.979  1.00  0.00    -0.255 NA
HETATM    5  C14 UNL     1      21.694   4.703  48.896  1.00  0.00     0.229 C 
HETATM    6  N3  UNL     1      21.701   4.530  50.136  1.00  0.00    -0.252 NA
HETATM    7  C15 UNL     1      22.189   3.585  51.077  1.00  0.00     0.244 C 
ENDROOT
BRANCH   1   8
HETATM    8  C3  UNL     1      21.886   1.084  51.508  1.00  0.00     0.074 C 
HETATM    9  C2  UNL     1      20.792   0.347  51.771  1.00  0.00     0.006 C 
HETATM   10  C1  UNL     1      19.392   0.328  51.277  1.00  0.00     0.039 C 
BRANCH   8  11
HETATM   11  O1  UNL     1      22.845   0.663  52.244  1.00  0.00    -0.351 OA
BRANCH  11  12
HETATM   12  C4  UNL     1      23.823   0.233  52.994  1.00  0.00     0.177 C 
BRANCH  12  13
HETATM   13  C5  UNL     1      25.243   0.406  52.457  1.00  0.00     0.057 C 
BRANCH  13  14
HETATM   14  C6  UNL     1      26.145  -0.270  53.480  1.00  0.00     0.274 C 
BRANCH  14  15
HETATM   15  N1  UNL     1      26.728   0.629  54.429  1.00  0.00     0.092 N 
HETATM   16  C7  UNL     1      26.848   1.969  53.879  1.00  0.00     0.298 C 
HETATM   17  C8  UNL     1      27.825   1.938  52.734  1.00  0.00     0.198 C 
HETATM   18  O2  UNL     1      29.078   1.605  53.255  1.00  0.00    -0.388 OA
HETATM   19  C9  UNL     1      29.084   0.344  53.816  1.00  0.00     0.198 C 
HETATM   20  C10 UNL     1      28.037   0.193  54.899  1.00  0.00     0.298 C 
ENDBRANCH  14  15
ENDBRANCH  13  14
ENDBRANCH  12  13
ENDBRANCH  11  12
ENDBRANCH   8  11
ENDBRANCH   1   8
BRANCH   7  21
HETATM   21  N4  UNL     1      23.501   3.978  51.565  1.00  0.00    -0.363 N 
HETATM   22  H23 UNL     1      23.577   4.100  52.598  1.00  0.00     0.162 HD
BRANCH  21  23
HETATM   23  C16 UNL     1      24.615   4.188  50.708  1.00  0.00     0.031 A 
HETATM   24  C17 UNL     1      25.409   3.125  50.329  1.00  0.00     0.032 A 
HETATM   25  C18 UNL     1      26.507   3.348  49.486  1.00  0.00     0.046 A 
HETATM   26  C19 UNL     1      26.771   4.629  49.051  1.00  0.00     0.138 A 
HETATM   27  F1  UNL     1      27.855   4.810  48.227  1.00  0.00    -0.204 F 
HETATM   28  C20 UNL     1      25.962   5.701  49.438  1.00  0.00     0.074 A 
HETATM   29 CL1  UNL     1      26.333   7.315  48.858  1.00  0.00    -0.081 Cl
HETATM   30  C21 UNL     1      24.870   5.495  50.274  1.00  0.00     0.056 A 
ENDBRANCH  21  23
ENDBRANCH   7  21
TORSDOF 8
ENDMDL
MODEL 8
REMARK VINA RESULT:      -7.2      3.668      6.726
REMARK  8 active torsions:
REMARK  status: ('A' for Active; 'I' for Inactive)
REMARK    1  A    between atoms: C3_3  and  O1_4 
REMARK    2  A    between atoms: C3_3  and  C11_14 
REMARK    3  A    between atoms: O1_4  and  C4_5 
REMARK    4  A    between atoms: C4_5  and  C5_6 
REMARK    5  A    between atoms: C5_6  and  C6_7 
REMARK    6  A    between atoms: C6_7  and  N1_8 
REMARK    7  A    between atoms: C15_20  and  N4_21 
REMARK    8  A    between atoms: N4_21  and  C16_22 
ROOT
HETATM    1  C11 UNL     1      23.066   2.379  50.722  1.00  0.00     0.020 C 
HETATM    2  C12 UNL     1      22.293   1.464  50.110  1.00  0.00     0.033 C 
HETATM    3  C13 UNL     1      21.244   0.614  50.644  1.00  0.00     0.118 C 
HETATM    4  N2  UNL     1      21.153   0.289  51.879  1.00  0.00    -0.255 NA
HETATM    5  C14 UNL     1      21.980   0.640  52.974  1.00  0.00     0.229 C 
HETATM    6  N3  UNL     1      22.713   1.655  52.989  1.00  0.00    -0.252 NA
HETATM    7  C15 UNL     1      23.042   2.744  52.139  1.00  0.00     0.244 C 
ENDROOT
BRANCH   1   8
HETATM    8  C3  UNL     1      24.018   3.026  49.794  1.00  0.00     0.074 C 
HETATM    9  C2  UNL     1      23.855   3.764  48.682  1.00  0.00     0.006 C 
HETATM   10  C1  UNL     1      22.689   4.245  47.898  1.00  0.00     0.039 C 
BRANCH   8  11
HETATM   11  O1  UNL     1      25.271   2.912  50.025  1.00  0.00    -0.351 OA
BRANCH  11  12
HETATM   12  C4  UNL     1      26.549   2.796  50.262  1.00  0.00     0.177 C 
BRANCH  12  13
HETATM   13  C5  UNL     1      26.963   2.333  51.658  1.00  0.00     0.057 C 
BRANCH  13  14
HETATM   14  C6  UNL     1      26.309   0.971  51.841  1.00  0.00     0.274 C 
BRANCH  14  15
HETATM   15  N1  UNL     1      27.169  -0.018  52.417  1.00  0.00     0.092 N 
HETATM   16  C7  UNL     1      26.437  -1.233  52.731  1.00  0.00     0.298 C 
HETATM   17  C8  UNL     1      25.431  -0.930  53.809  1.00  0.00     0.198 C 
HETATM   18  O2  UNL     1      26.137  -0.578  54.962  1.00  0.00    -0.388 OA
HETATM   19  C9  UNL     1      26.882   0.569  54.779  1.00  0.00     0.198 C 
HETATM   20  C10 UNL     1      27.848   0.448  53.620  1.00  0.00     0.298 C 
ENDBRANCH  14  15
ENDBRANCH  13  14
ENDBRANCH  12  13
ENDBRANCH  11  12
ENDBRANCH   8  11
ENDBRANCH   1   8
BRANCH   7  21
HETATM   21  N4  UNL     1      22.192   3.890  52.422  1.00  0.00    -0.363 N 
HETATM   22  H23 UNL     1      21.456   3.735  53.144  1.00  0.00     0.162 HD
BRANCH  21  23
HETATM   23  C16 UNL     1      22.338   5.143  51.767  1.00  0.00     0.031 A 
HETATM   24  C17 UNL     1      23.546   5.810  51.807  1.00  0.00     0.032 A 
HETATM   25  C18 UNL     1      23.675   7.047  51.159  1.00  0.00     0.046 A 
HETATM   26  C19 UNL     1      22.589   7.573  50.493  1.00  0.00     0.138 A 
HETATM   27  F1  UNL     1      22.752   8.787  49.871  1.00  0.00    -0.204 F 
HETATM   28  C20 UNL     1      21.369   6.892  50.457  1.00  0.00     0.074 A 
HETATM   29 CL1  UNL     1      20.014   7.597  49.594  1.00  0.00    -0.081 Cl
HETATM   30  C21 UNL     1      21.227   5.665  51.094  1.00  0.00     0.056 A 
ENDBRANCH  21  23
ENDBRANCH   7  21
TORSDOF 8
ENDMDL
MODEL 9
REMARK VINA RESULT:      -7.1      4.065      8.063
REMARK  8 active torsions:
REMARK  status: ('A' for Active; 'I' for Inactive)
REMARK    1  A    between atoms: C3_3  and  O1_4 
REMARK    2  A    between atoms: C3_3  and  C11_14 
REMARK    3  A    between atoms: O1_4  and  C4_5 
REMARK    4  A    between atoms: C4_5  and  C5_6 
REMARK    5  A    between atoms: C5_6  and  C6_7 
REMARK    6  A    between atoms: C6_7  and  N1_8 
REMARK    7  A    between atoms: C15_20  and  N4_21 
REMARK    8  A    between atoms: N4_21  and  C16_22 
ROOT
HETATM    1  C11 UNL     1      24.280   4.889  50.088  1.00  0.00     0.020 C 
HETATM    2  C12 UNL     1      23.794   4.929  48.834  1.00  0.00     0.033 C 
HETATM    3  C13 UNL     1      22.644   5.634  48.296  1.00  0.00     0.118 C 
HETATM    4  N2  UNL     1      21.646   6.009  49.004  1.00  0.00    -0.255 NA
HETATM    5  C14 UNL     1      21.407   5.855  50.391  1.00  0.00     0.229 C 
HETATM    6  N3  UNL     1      22.317   5.679  51.233  1.00  0.00    -0.252 NA
HETATM    7  C15 UNL     1      23.732   5.564  51.265  1.00  0.00     0.244 C 
ENDROOT
BRANCH   1   8
HETATM    8  C3  UNL     1      25.485   4.040  50.200  1.00  0.00     0.074 C 
HETATM    9  C2  UNL     1      26.700   4.093  49.625  1.00  0.00     0.006 C 
HETATM   10  C1  UNL     1      27.362   4.988  48.643  1.00  0.00     0.039 C 
BRANCH   8  11
HETATM   11  O1  UNL     1      25.451   3.030  50.985  1.00  0.00    -0.351 OA
BRANCH  11  12
HETATM   12  C4  UNL     1      25.417   2.000  51.786  1.00  0.00     0.177 C 
BRANCH  12  13
HETATM   13  C5  UNL     1      25.584   2.272  53.281  1.00  0.00     0.057 C 
BRANCH  13  14
HETATM   14  C6  UNL     1      26.950   1.706  53.643  1.00  0.00     0.274 C 
BRANCH  14  15
HETATM   15  N1  UNL     1      26.908   0.655  54.613  1.00  0.00     0.092 N 
HETATM   16  C7  UNL     1      28.232   0.101  54.846  1.00  0.00     0.298 C 
HETATM   17  C8  UNL     1      28.709  -0.564  53.583  1.00  0.00     0.198 C 
HETATM   18  O2  UNL     1      27.863  -1.646  53.327  1.00  0.00    -0.388 OA
HETATM   19  C9  UNL     1      26.564  -1.239  53.095  1.00  0.00     0.198 C 
HETATM   20  C10 UNL     1      26.003  -0.427  54.243  1.00  0.00     0.298 C 
ENDBRANCH  14  15
ENDBRANCH  13  14
ENDBRANCH  12  13
ENDBRANCH  11  12
ENDBRANCH   8  11
ENDBRANCH   1   8
BRANCH   7  21
HETATM   21  N4  UNL     1      24.345   6.858  51.521  1.00  0.00    -0.363 N 
HETATM   22  H23 UNL     1      24.425   7.125  52.525  1.00  0.00     0.162 HD
BRANCH  21  23
HETATM   23  C16 UNL     1      24.808   7.714  50.485  1.00  0.00     0.031 A 
HETATM   24  C17 UNL     1      23.910   8.463  49.752  1.00  0.00     0.032 A 
HETATM   25  C18 UNL     1      24.380   9.301  48.731  1.00  0.00     0.046 A 
HETATM   26  C19 UNL     1      25.734   9.360  48.479  1.00  0.00     0.138 A 
HETATM   27  F1  UNL     1      26.158  10.190  47.470  1.00  0.00    -0.204 F 
HETATM   28  C20 UNL     1      26.638   8.598  49.225  1.00  0.00     0.074 A 
HETATM   29 CL1  UNL     1      28.352   8.705  48.872  1.00  0.00    -0.081 Cl
HETATM   30  C21 UNL     1      26.185   7.763  50.241  1.00  0.00     0.056 A 
ENDBRANCH  21  23
ENDBRANCH   7  21
TORSDOF 8
ENDMDL
