MODEL 1
REMARK VINA RESULT:      -8.3      0.000      0.000
REMARK  4 active torsions:
REMARK  status: ('A' for Active; 'I' for Inactive)
REMARK    1  A    between atoms: O1_2  and  C2_3 
REMARK    2  A    between atoms: C4_5  and  N1_6 
REMARK    3  A    between atoms: N1_6  and  C5_7 
REMARK    4  A    between atoms: C10_14  and  O2_15 
ROOT
HETATM    1  N1  UNL     1      24.638   3.042  52.886  1.00  0.00    -0.177 N 
HETATM    2  H6  UNL     1      25.054   3.973  53.087  1.00  0.00     0.185 HD
ENDROOT
BRANCH   1   3
HETATM    3  C4  UNL     1      23.302   2.757  52.584  1.00  0.00     0.093 C 
HETATM    4  C3  UNL     1      23.206   3.807  51.795  1.00  0.00     0.051 C 
HETATM    5  C2  UNL     1      24.133   4.885  51.363  1.00  0.00     0.175 C 
HETATM    6  C15 UNL     1      24.609   4.462  49.990  1.00  0.00    -0.050 C 
HETATM    7  C14 UNL     1      24.182   3.334  49.417  1.00  0.00     0.024 C 
HETATM    8  C16 UNL     1      25.552   5.275  49.230  1.00  0.00     0.046 C 
HETATM    9  C13 UNL     1      23.248   2.345  49.934  1.00  0.00     0.284 C 
HETATM   10  N6  UNL     1      22.449   1.424  50.287  1.00  0.00    -0.387 NA
HETATM   11  C12 UNL     1      21.744   1.375  51.508  1.00  0.00     0.299 C 
HETATM   12  N5  UNL     1      22.080   1.975  52.636  1.00  0.00    -0.255 NA
BRANCH   5  13
HETATM   13  O1  UNL     1      23.480   6.082  51.312  1.00  0.00    -0.382 OA
HETATM   14  C1  UNL     1      22.131   6.044  51.077  1.00  0.00     0.202 C 
ENDBRANCH   5  13
ENDBRANCH   1   3
BRANCH   1  15
HETATM   15  C5  UNL     1      25.370   1.823  52.852  1.00  0.00     0.747 A 
HETATM   16  N2  UNL     1      25.123   0.559  52.499  1.00  0.00     0.044 NA
HETATM   17  N3  UNL     1      25.990  -0.419  52.555  1.00  0.00    -0.132 NA
HETATM   18  C6  UNL     1      27.238  -0.186  52.992  1.00  0.00     0.112 A 
HETATM   19  C7  UNL     1      28.081  -1.277  53.016  1.00  0.00     0.036 A 
HETATM   20  C11 UNL     1      27.553   1.097  53.370  1.00  0.00     0.139 A 
HETATM   21  C8  UNL     1      29.378  -1.068  53.463  1.00  0.00     0.005 A 
HETATM   22  C9  UNL     1      29.745   0.212  53.856  1.00  0.00     0.039 A 
HETATM   23  C10 UNL     1      28.860   1.267  53.812  1.00  0.00     0.097 A 
HETATM   24  N4  UNL     1      26.633   2.067  53.296  1.00  0.00    -0.056 NA
BRANCH  23  25
HETATM   25  O2  UNL     1      29.242   2.540  54.207  1.00  0.00    -0.358 OA
HETATM   26  H10 UNL     1      29.306   3.321  53.541  1.00  0.00     0.217 HD
ENDBRANCH  23  25
ENDBRANCH   1  15
TORSDOF 4
ENDMDL
MODEL 2
REMARK VINA RESULT:      -8.1      2.250      3.837
REMARK  4 active torsions:
REMARK  status: ('A' for Active; 'I' for Inactive)
REMARK    1  A    between atoms: O1_2  and  C2_3 
REMARK    2  A    between atoms: C4_5  and  N1_6 
REMARK    3  A    between atoms: N1_6  and  C5_7 
REMARK    4  A    between atoms: C10_14  and  O2_15 
ROOT
HETATM    1  N1  UNL     1      23.772   1.462  52.646  1.00  0.00    -0.177 N 
HETATM    2  H6  UNL     1      23.039   0.780  52.924  1.00  0.00     0.185 HD
ENDROOT
BRANCH   1   3
HETATM    3  C4  UNL     1      23.631   2.556  51.786  1.00  0.00     0.093 C 
HETATM    4  C3  UNL     1      22.581   2.020  51.199  1.00  0.00     0.051 C 
HETATM    5  C2  UNL     1      21.813   0.758  51.365  1.00  0.00     0.175 C 
HETATM    6  C15 UNL     1      20.596   1.147  52.176  1.00  0.00    -0.050 C 
HETATM    7  C14 UNL     1      20.391   2.405  52.574  1.00  0.00     0.024 C 
HETATM    8  C16 UNL     1      19.590   0.161  52.554  1.00  0.00     0.046 C 
HETATM    9  C13 UNL     1      21.215   3.582  52.338  1.00  0.00     0.284 C 
HETATM   10  N6  UNL     1      21.854   4.668  52.193  1.00  0.00    -0.387 NA
HETATM   11  C12 UNL     1      23.073   4.814  51.496  1.00  0.00     0.299 C 
HETATM   12  N5  UNL     1      23.965   3.868  51.261  1.00  0.00    -0.255 NA
BRANCH   5  13
HETATM   13  O1  UNL     1      21.456   0.256  50.149  1.00  0.00    -0.382 OA
HETATM   14  C1  UNL     1      21.403   1.139  49.102  1.00  0.00     0.202 C 
ENDBRANCH   5  13
ENDBRANCH   1   3
BRANCH   1  15
HETATM   15  C5  UNL     1      25.114   1.438  53.118  1.00  0.00     0.747 A 
HETATM   16  N2  UNL     1      25.927   2.283  53.756  1.00  0.00     0.044 NA
HETATM   17  N3  UNL     1      27.162   2.022  54.098  1.00  0.00    -0.132 NA
HETATM   18  C6  UNL     1      27.701   0.827  53.808  1.00  0.00     0.112 A 
HETATM   19  C7  UNL     1      29.008   0.643  54.207  1.00  0.00     0.036 A 
HETATM   20  C11 UNL     1      26.913  -0.086  53.151  1.00  0.00     0.139 A 
HETATM   21  C8  UNL     1      29.593  -0.583  53.923  1.00  0.00     0.005 A 
HETATM   22  C9  UNL     1      28.836  -1.539  53.259  1.00  0.00     0.039 A 
HETATM   23  C10 UNL     1      27.533  -1.301  52.883  1.00  0.00     0.097 A 
HETATM   24  N4  UNL     1      25.653   0.224  52.821  1.00  0.00    -0.056 NA
BRANCH  23  25
HETATM   25  O2  UNL     1      26.790  -2.267  52.222  1.00  0.00    -0.358 OA
HETATM   26  H10 UNL     1      27.105  -3.244  52.154  1.00  0.00     0.217 HD
ENDBRANCH  23  25
ENDBRANCH   1  15
TORSDOF 4
ENDMDL
MODEL 3
REMARK VINA RESULT:      -8.0      1.876      2.901
REMARK  4 active torsions:
REMARK  status: ('A' for Active; 'I' for Inactive)
REMARK    1  A    between atoms: O1_2  and  C2_3 
REMARK    2  A    between atoms: C4_5  and  N1_6 
REMARK    3  A    between atoms: N1_6  and  C5_7 
REMARK    4  A    between atoms: C10_14  and  O2_15 
ROOT
HETATM    1  N1  UNL     1      23.486   0.195  52.241  1.00  0.00    -0.177 N 
HETATM    2  H6  UNL     1      23.463   0.008  51.219  1.00  0.00     0.185 HD
ENDROOT
BRANCH   1   3
HETATM    3  C4  UNL     1      22.418   0.582  53.057  1.00  0.00     0.093 C 
HETATM    4  C3  UNL     1      22.090   1.566  52.245  1.00  0.00     0.051 C 
HETATM    5  C2  UNL     1      22.617   2.082  50.954  1.00  0.00     0.175 C 
HETATM    6  C15 UNL     1      21.697   1.507  49.900  1.00  0.00    -0.050 C 
HETATM    7  C14 UNL     1      20.664   0.725  50.221  1.00  0.00     0.024 C 
HETATM    8  C16 UNL     1      21.898   1.789  48.482  1.00  0.00     0.046 C 
HETATM    9  C13 UNL     1      20.226   0.288  51.539  1.00  0.00     0.284 C 
HETATM   10  N6  UNL     1      19.759  -0.150  52.634  1.00  0.00    -0.387 NA
HETATM   11  C12 UNL     1      20.286   0.120  53.915  1.00  0.00     0.299 C 
HETATM   12  N5  UNL     1      21.528   0.472  54.199  1.00  0.00    -0.255 NA
BRANCH   5  13
HETATM   13  O1  UNL     1      22.589   3.447  50.942  1.00  0.00    -0.382 OA
HETATM   14  C1  UNL     1      23.773   4.094  51.180  1.00  0.00     0.202 C 
ENDBRANCH   5  13
ENDBRANCH   1   3
BRANCH   1  15
HETATM   15  C5  UNL     1      24.646   0.072  53.056  1.00  0.00     0.747 A 
HETATM   16  N2  UNL     1      25.035  -0.711  54.065  1.00  0.00     0.044 NA
HETATM   17  N3  UNL     1      26.193  -0.633  54.671  1.00  0.00    -0.132 NA
HETATM   18  C6  UNL     1      27.091   0.286  54.286  1.00  0.00     0.112 A 
HETATM   19  C7  UNL     1      28.282   0.293  54.982  1.00  0.00     0.036 A 
HETATM   20  C11 UNL     1      26.747   1.122  53.251  1.00  0.00     0.139 A 
HETATM   21  C8  UNL     1      29.232   1.232  54.607  1.00  0.00     0.005 A 
HETATM   22  C9  UNL     1      28.931   2.100  53.566  1.00  0.00     0.039 A 
HETATM   23  C10 UNL     1      27.723   2.049  52.905  1.00  0.00     0.097 A 
HETATM   24  N4  UNL     1      25.552   1.006  52.660  1.00  0.00    -0.056 NA
BRANCH  23  25
HETATM   25  O2  UNL     1      27.438   2.922  51.866  1.00  0.00    -0.358 OA
HETATM   26  H10 UNL     1      26.651   2.765  51.223  1.00  0.00     0.217 HD
ENDBRANCH  23  25
ENDBRANCH   1  15
TORSDOF 4
ENDMDL
MODEL 4
REMARK VINA RESULT:      -7.9      2.086      2.834
REMARK  4 active torsions:
REMARK  status: ('A' for Active; 'I' for Inactive)
REMARK    1  A    between atoms: O1_2  and  C2_3 
REMARK    2  A    between atoms: C4_5  and  N1_6 
REMARK    3  A    between atoms: N1_6  and  C5_7 
REMARK    4  A    between atoms: C10_14  and  O2_15 
ROOT
HETATM    1  N1  UNL     1      24.693   1.269  51.487  1.00  0.00    -0.177 N 
HETATM    2  H6  UNL     1      24.474   1.294  50.472  1.00  0.00     0.185 HD
ENDROOT
BRANCH   1   3
HETATM    3  C4  UNL     1      23.785   1.217  52.550  1.00  0.00     0.093 C 
HETATM    4  C3  UNL     1      22.953   2.039  51.944  1.00  0.00     0.051 C 
HETATM    5  C2  UNL     1      22.944   2.751  50.639  1.00  0.00     0.175 C 
HETATM    6  C15 UNL     1      22.056   1.913  49.744  1.00  0.00    -0.050 C 
HETATM    7  C14 UNL     1      21.466   0.800  50.186  1.00  0.00     0.024 C 
HETATM    8  C16 UNL     1      21.803   2.292  48.359  1.00  0.00     0.046 C 
HETATM    9  C13 UNL     1      21.535   0.194  51.508  1.00  0.00     0.284 C 
HETATM   10  N6  UNL     1      21.525  -0.417  52.620  1.00  0.00    -0.387 NA
HETATM   11  C12 UNL     1      22.216  -0.014  53.782  1.00  0.00     0.299 C 
HETATM   12  N5  UNL     1      23.289   0.756  53.834  1.00  0.00    -0.255 NA
BRANCH   5  13
HETATM   13  O1  UNL     1      22.445   4.012  50.789  1.00  0.00    -0.382 OA
HETATM   14  C1  UNL     1      21.612   4.227  51.856  1.00  0.00     0.202 C 
ENDBRANCH   5  13
ENDBRANCH   1   3
BRANCH   1  15
HETATM   15  C5  UNL     1      26.009   1.261  52.026  1.00  0.00     0.747 A 
HETATM   16  N2  UNL     1      26.918   2.179  52.365  1.00  0.00     0.044 NA
HETATM   17  N3  UNL     1      28.100   1.918  52.862  1.00  0.00    -0.132 NA
HETATM   18  C6  UNL     1      28.475   0.646  53.067  1.00  0.00     0.112 A 
HETATM   19  C7  UNL     1      29.737   0.468  53.594  1.00  0.00     0.036 A 
HETATM   20  C11 UNL     1      27.582  -0.345  52.738  1.00  0.00     0.139 A 
HETATM   21  C8  UNL     1      30.154  -0.836  53.819  1.00  0.00     0.005 A 
HETATM   22  C9  UNL     1      29.287  -1.873  53.501  1.00  0.00     0.039 A 
HETATM   23  C10 UNL     1      28.035  -1.637  52.976  1.00  0.00     0.097 A 
HETATM   24  N4  UNL     1      26.384  -0.031  52.231  1.00  0.00    -0.056 NA
BRANCH  23  25
HETATM   25  O2  UNL     1      27.180  -2.684  52.665  1.00  0.00    -0.358 OA
HETATM   26  H10 UNL     1      26.238  -2.756  53.072  1.00  0.00     0.217 HD
ENDBRANCH  23  25
ENDBRANCH   1  15
TORSDOF 4
ENDMDL
MODEL 5
REMARK VINA RESULT:      -7.7      1.954      3.262
REMARK  4 active torsions:
REMARK  status: ('A' for Active; 'I' for Inactive)
REMARK    1  A    between atoms: O1_2  and  C2_3 
REMARK    2  A    between atoms: C4_5  and  N1_6 
REMARK    3  A    between atoms: N1_6  and  C5_7 
REMARK    4  A    between atoms: C10_14  and  O2_15 
ROOT
HETATM    1  N1  UNL     1      25.232   3.757  51.329  1.00  0.00    -0.177 N 
HETATM    2  H6  UNL     1      24.619   4.380  51.891  1.00  0.00     0.185 HD
ENDROOT
BRANCH   1   3
HETATM    3  C4  UNL     1      25.792   4.025  50.075  1.00  0.00     0.093 C 
HETATM    4  C3  UNL     1      24.636   4.429  49.591  1.00  0.00     0.051 C 
HETATM    5  C2  UNL     1      23.260   4.569  50.136  1.00  0.00     0.175 C 
HETATM    6  C15 UNL     1      23.121   6.039  50.469  1.00  0.00    -0.050 C 
HETATM    7  C14 UNL     1      24.113   6.905  50.249  1.00  0.00     0.024 C 
HETATM    8  C16 UNL     1      21.890   6.574  51.040  1.00  0.00     0.046 C 
HETATM    9  C13 UNL     1      25.434   6.655  49.689  1.00  0.00     0.284 C 
HETATM   10  N6  UNL     1      26.606   6.551  49.215  1.00  0.00    -0.387 NA
HETATM   11  C12 UNL     1      27.201   5.356  48.756  1.00  0.00     0.299 C 
HETATM   12  N5  UNL     1      26.874   4.126  49.113  1.00  0.00    -0.255 NA
BRANCH   5  13
HETATM   13  O1  UNL     1      22.339   4.184  49.206  1.00  0.00    -0.382 OA
HETATM   14  C1  UNL     1      22.681   4.345  47.889  1.00  0.00     0.202 C 
ENDBRANCH   5  13
ENDBRANCH   1   3
BRANCH   1  15
HETATM   15  C5  UNL     1      25.663   2.466  51.742  1.00  0.00     0.747 A 
HETATM   16  N2  UNL     1      25.161   1.229  51.717  1.00  0.00     0.044 NA
HETATM   17  N3  UNL     1      25.769   0.162  52.170  1.00  0.00    -0.132 NA
HETATM   18  C6  UNL     1      26.994   0.267  52.709  1.00  0.00     0.112 A 
HETATM   19  C7  UNL     1      27.557  -0.909  53.158  1.00  0.00     0.036 A 
HETATM   20  C11 UNL     1      27.565   1.516  52.762  1.00  0.00     0.139 A 
HETATM   21  C8  UNL     1      28.823  -0.834  53.720  1.00  0.00     0.005 A 
HETATM   22  C9  UNL     1      29.442   0.406  53.797  1.00  0.00     0.039 A 
HETATM   23  C10 UNL     1      28.832   1.551  53.332  1.00  0.00     0.097 A 
HETATM   24  N4  UNL     1      26.904   2.579  52.287  1.00  0.00    -0.056 NA
BRANCH  23  25
HETATM   25  O2  UNL     1      29.463   2.783  53.415  1.00  0.00    -0.358 OA
HETATM   26  H10 UNL     1      29.826   3.266  52.582  1.00  0.00     0.217 HD
ENDBRANCH  23  25
ENDBRANCH   1  15
TORSDOF 4
ENDMDL
MODEL 6
REMARK VINA RESULT:      -7.6      1.710      2.989
REMARK  4 active torsions:
REMARK  status: ('A' for Active; 'I' for Inactive)
REMARK    1  A    between atoms: O1_2  and  C2_3 
REMARK    2  A    between atoms: C4_5  and  N1_6 
REMARK    3  A    between atoms: N1_6  and  C5_7 
REMARK    4  A    between atoms: C10_14  and  O2_15 
ROOT
HETATM    1  N1  UNL     1      24.701   2.358  52.456  1.00  0.00    -0.177 N 
HETATM    2  H6  UNL     1      23.996   2.685  53.146  1.00  0.00     0.185 HD
ENDROOT
BRANCH   1   3
HETATM    3  C4  UNL     1      25.028   2.950  51.232  1.00  0.00     0.093 C 
HETATM    4  C3  UNL     1      23.818   2.745  50.755  1.00  0.00     0.051 C 
HETATM    5  C2  UNL     1      22.568   2.139  51.284  1.00  0.00     0.175 C 
HETATM    6  C15 UNL     1      21.713   3.314  51.706  1.00  0.00    -0.050 C 
HETATM    7  C14 UNL     1      22.130   4.574  51.558  1.00  0.00     0.024 C 
HETATM    8  C16 UNL     1      20.391   3.119  52.289  1.00  0.00     0.046 C 
HETATM    9  C13 UNL     1      23.387   5.060  51.006  1.00  0.00     0.284 C 
HETATM   10  N6  UNL     1      24.444   5.590  50.546  1.00  0.00    -0.387 NA
HETATM   11  C12 UNL     1      25.551   4.889  50.023  1.00  0.00     0.299 C 
HETATM   12  N5  UNL     1      25.895   3.643  50.296  1.00  0.00    -0.255 NA
BRANCH   5  13
HETATM   13  O1  UNL     1      21.951   1.402  50.316  1.00  0.00    -0.382 OA
HETATM   14  C1  UNL     1      22.112   1.817  49.020  1.00  0.00     0.202 C 
ENDBRANCH   5  13
ENDBRANCH   1   3
BRANCH   1  15
HETATM   15  C5  UNL     1      25.525   1.211  52.630  1.00  0.00     0.747 A 
HETATM   16  N2  UNL     1      25.361  -0.112  52.565  1.00  0.00     0.044 NA
HETATM   17  N3  UNL     1      26.304  -0.996  52.768  1.00  0.00    -0.132 NA
HETATM   18  C6  UNL     1      27.548  -0.593  53.068  1.00  0.00     0.112 A 
HETATM   19  C7  UNL     1      28.475  -1.595  53.265  1.00  0.00     0.036 A 
HETATM   20  C11 UNL     1      27.780   0.759  53.150  1.00  0.00     0.139 A 
HETATM   21  C8  UNL     1      29.771  -1.211  53.576  1.00  0.00     0.005 A 
HETATM   22  C9  UNL     1      30.055   0.145  53.671  1.00  0.00     0.039 A 
HETATM   23  C10 UNL     1      29.089   1.105  53.464  1.00  0.00     0.097 A 
HETATM   24  N4  UNL     1      26.784   1.627  52.934  1.00  0.00    -0.056 NA
BRANCH  23  25
HETATM   25  O2  UNL     1      29.388   2.456  53.561  1.00  0.00    -0.358 OA
HETATM   26  H10 UNL     1      30.276   2.842  53.215  1.00  0.00     0.217 HD
ENDBRANCH  23  25
ENDBRANCH   1  15
TORSDOF 4
ENDMDL
MODEL 7
REMARK VINA RESULT:      -7.6      1.375      1.728
REMARK  4 active torsions:
REMARK  status: ('A' for Active; 'I' for Inactive)
REMARK    1  A    between atoms: O1_2  and  C2_3 
REMARK    2  A    between atoms: C4_5  and  N1_6 
REMARK    3  A    between atoms: N1_6  and  C5_7 
REMARK    4  A    between atoms: C10_14  and  O2_15 
ROOT
HETATM    1  N1  UNL     1      23.805   4.335  52.832  1.00  0.00    -0.177 N 
HETATM    2  H6  UNL     1      24.409   5.130  53.122  1.00  0.00     0.185 HD
ENDROOT
BRANCH   1   3
HETATM    3  C4  UNL     1      22.523   4.403  52.277  1.00  0.00     0.093 C 
HETATM    4  C3  UNL     1      22.886   5.347  51.432  1.00  0.00     0.051 C 
HETATM    5  C2  UNL     1      24.153   6.071  51.147  1.00  0.00     0.175 C 
HETATM    6  C15 UNL     1      24.725   5.386  49.924  1.00  0.00    -0.050 C 
HETATM    7  C14 UNL     1      24.097   4.366  49.333  1.00  0.00     0.024 C 
HETATM    8  C16 UNL     1      25.987   5.818  49.335  1.00  0.00     0.046 C 
HETATM    9  C13 UNL     1      22.835   3.738  49.696  1.00  0.00     0.284 C 
HETATM   10  N6  UNL     1      21.751   3.120  49.923  1.00  0.00    -0.387 NA
HETATM   11  C12 UNL     1      20.852   3.401  50.974  1.00  0.00     0.299 C 
HETATM   12  N5  UNL     1      21.137   4.003  52.115  1.00  0.00    -0.255 NA
BRANCH   5  13
HETATM   13  O1  UNL     1      23.902   7.389  50.902  1.00  0.00    -0.382 OA
HETATM   14  C1  UNL     1      22.672   7.702  50.385  1.00  0.00     0.202 C 
ENDBRANCH   5  13
ENDBRANCH   1   3
BRANCH   1  15
HETATM   15  C5  UNL     1      24.179   2.966  52.922  1.00  0.00     0.747 A 
HETATM   16  N2  UNL     1      23.541   1.797  53.023  1.00  0.00     0.044 NA
HETATM   17  N3  UNL     1      24.123   0.627  53.089  1.00  0.00    -0.132 NA
HETATM   18  C6  UNL     1      25.462   0.541  53.056  1.00  0.00     0.112 A 
HETATM   19  C7  UNL     1      25.986  -0.732  53.131  1.00  0.00     0.036 A 
HETATM   20  C11 UNL     1      26.175   1.711  52.952  1.00  0.00     0.139 A 
HETATM   21  C8  UNL     1      27.368  -0.854  53.098  1.00  0.00     0.005 A 
HETATM   22  C9  UNL     1      28.132   0.300  52.995  1.00  0.00     0.039 A 
HETATM   23  C10 UNL     1      27.555   1.549  52.923  1.00  0.00     0.097 A 
HETATM   24  N4  UNL     1      25.537   2.886  52.888  1.00  0.00    -0.056 NA
BRANCH  23  25
HETATM   25  O2  UNL     1      28.333   2.692  52.819  1.00  0.00    -0.358 OA
HETATM   26  H10 UNL     1      29.204   2.710  52.273  1.00  0.00     0.217 HD
ENDBRANCH  23  25
ENDBRANCH   1  15
TORSDOF 4
ENDMDL
MODEL 8
REMARK VINA RESULT:      -7.3      1.731      2.451
REMARK  4 active torsions:
REMARK  status: ('A' for Active; 'I' for Inactive)
REMARK    1  A    between atoms: O1_2  and  C2_3 
REMARK    2  A    between atoms: C4_5  and  N1_6 
REMARK    3  A    between atoms: N1_6  and  C5_7 
REMARK    4  A    between atoms: C10_14  and  O2_15 
ROOT
HETATM    1  N1  UNL     1      25.021   3.374  50.568  1.00  0.00    -0.177 N 
HETATM    2  H6  UNL     1      25.364   3.441  49.589  1.00  0.00     0.185 HD
ENDROOT
BRANCH   1   3
HETATM    3  C4  UNL     1      24.120   4.228  51.212  1.00  0.00     0.093 C 
HETATM    4  C3  UNL     1      23.396   4.367  50.120  1.00  0.00     0.051 C 
HETATM    5  C2  UNL     1      23.471   3.832  48.735  1.00  0.00     0.175 C 
HETATM    6  C15 UNL     1      22.478   2.690  48.704  1.00  0.00    -0.050 C 
HETATM    7  C14 UNL     1      21.754   2.361  49.776  1.00  0.00     0.024 C 
HETATM    8  C16 UNL     1      22.268   1.901  47.496  1.00  0.00     0.046 C 
HETATM    9  C13 UNL     1      21.752   2.972  51.098  1.00  0.00     0.284 C 
HETATM   10  N6  UNL     1      21.670   3.426  52.280  1.00  0.00    -0.387 NA
HETATM   11  C12 UNL     1      22.413   4.511  52.794  1.00  0.00     0.299 C 
HETATM   12  N5  UNL     1      23.575   4.952  52.346  1.00  0.00    -0.255 NA
BRANCH   5  13
HETATM   13  O1  UNL     1      23.136   4.800  47.833  1.00  0.00    -0.382 OA
HETATM   14  C1  UNL     1      23.635   6.057  48.057  1.00  0.00     0.202 C 
ENDBRANCH   5  13
ENDBRANCH   1   3
BRANCH   1  15
HETATM   15  C5  UNL     1      25.394   2.350  51.482  1.00  0.00     0.747 A 
HETATM   16  N2  UNL     1      24.836   1.235  51.960  1.00  0.00     0.044 NA
HETATM   17  N3  UNL     1      25.397   0.425  52.820  1.00  0.00    -0.132 NA
HETATM   18  C6  UNL     1      26.627   0.690  53.289  1.00  0.00     0.112 A 
HETATM   19  C7  UNL     1      27.136  -0.220  54.192  1.00  0.00     0.036 A 
HETATM   20  C11 UNL     1      27.253   1.825  52.834  1.00  0.00     0.139 A 
HETATM   21  C8  UNL     1      28.406   0.027  54.694  1.00  0.00     0.005 A 
HETATM   22  C9  UNL     1      29.080   1.162  54.265  1.00  0.00     0.039 A 
HETATM   23  C10 UNL     1      28.521   2.039  53.360  1.00  0.00     0.097 A 
HETATM   24  N4  UNL     1      26.640   2.626  51.953  1.00  0.00    -0.056 NA
BRANCH  23  25
HETATM   25  O2  UNL     1      29.207   3.168  52.940  1.00  0.00    -0.358 OA
HETATM   26  H10 UNL     1      28.781   4.104  52.963  1.00  0.00     0.217 HD
ENDBRANCH  23  25
ENDBRANCH   1  15
TORSDOF 4
ENDMDL
MODEL 9
REMARK VINA RESULT:      -7.3      2.181      2.709
REMARK  4 active torsions:
REMARK  status: ('A' for Active; 'I' for Inactive)
REMARK    1  A    between atoms: O1_2  and  C2_3 
REMARK    2  A    between atoms: C4_5  and  N1_6 
REMARK    3  A    between atoms: N1_6  and  C5_7 
REMARK    4  A    between atoms: C10_14  and  O2_15 
ROOT
HETATM    1  N1  UNL     1      22.694   3.146  51.678  1.00  0.00    -0.177 N 
HETATM    2  H6  UNL     1      23.101   3.916  51.111  1.00  0.00     0.185 HD
ENDROOT
BRANCH   1   3
HETATM    3  C4  UNL     1      21.341   2.913  51.944  1.00  0.00     0.093 C 
HETATM    4  C3  UNL     1      21.004   3.151  50.693  1.00  0.00     0.051 C 
HETATM    5  C2  UNL     1      21.745   3.515  49.457  1.00  0.00     0.175 C 
HETATM    6  C15 UNL     1      21.894   2.216  48.695  1.00  0.00    -0.050 C 
HETATM    7  C14 UNL     1      21.399   1.068  49.163  1.00  0.00     0.024 C 
HETATM    8  C16 UNL     1      22.584   2.165  47.411  1.00  0.00     0.046 C 
HETATM    9  C13 UNL     1      20.667   0.826  50.399  1.00  0.00     0.284 C 
HETATM   10  N6  UNL     1      20.024   0.505  51.444  1.00  0.00    -0.387 NA
HETATM   11  C12 UNL     1      19.639   1.390  52.473  1.00  0.00     0.299 C 
HETATM   12  N5  UNL     1      20.208   2.544  52.773  1.00  0.00    -0.255 NA
BRANCH   5  13
HETATM   13  O1  UNL     1      21.041   4.433  48.733  1.00  0.00    -0.382 OA
HETATM   14  C1  UNL     1      20.723   5.608  49.362  1.00  0.00     0.202 C 
ENDBRANCH   5  13
ENDBRANCH   1   3
BRANCH   1  15
HETATM   15  C5  UNL     1      23.453   2.122  52.308  1.00  0.00     0.747 A 
HETATM   16  N2  UNL     1      23.187   1.009  52.996  1.00  0.00     0.044 NA
HETATM   17  N3  UNL     1      24.087   0.197  53.488  1.00  0.00    -0.132 NA
HETATM   18  C6  UNL     1      25.392   0.458  53.315  1.00  0.00     0.112 A 
HETATM   19  C7  UNL     1      26.267  -0.453  53.869  1.00  0.00     0.036 A 
HETATM   20  C11 UNL     1      25.730   1.591  52.615  1.00  0.00     0.139 A 
HETATM   21  C8  UNL     1      27.624  -0.211  53.707  1.00  0.00     0.005 A 
HETATM   22  C9  UNL     1      28.016   0.921  53.006  1.00  0.00     0.039 A 
HETATM   23  C10 UNL     1      27.097   1.799  52.474  1.00  0.00     0.097 A 
HETATM   24  N4  UNL     1      24.775   2.393  52.129  1.00  0.00    -0.056 NA
BRANCH  23  25
HETATM   25  O2  UNL     1      27.504   2.926  51.775  1.00  0.00    -0.358 OA
HETATM   26  H10 UNL     1      27.658   3.830  52.242  1.00  0.00     0.217 HD
ENDBRANCH  23  25
ENDBRANCH   1  15
TORSDOF 4
ENDMDL
