MODEL 1
REMARK VINA RESULT:      -7.9      0.000      0.000
REMARK  6 active torsions:
REMARK  status: ('A' for Active; 'I' for Inactive)
REMARK    1  A    between atoms: O1_1  and  C1_2 
REMARK    2  A    between atoms: C11_15  and  C12_16 
REMARK    3  A    between atoms: C12_16  and  C13_17 
REMARK    4  A    between atoms: C13_17  and  C14_18 
REMARK    5  A    between atoms: C14_18  and  C15_19 
REMARK    6  A    between atoms: C15_19  and  C16_20 
ROOT
HETATM    1  C1  UNL     1      28.405  -2.091  53.291  1.00  0.00     0.171 A 
HETATM    2  C2  UNL     1      29.443  -1.010  53.445  1.00  0.00     0.111 A 
HETATM    3  S1  UNL     1      28.178   0.407  53.404  1.00  0.00    -0.058 SA
HETATM    4  C3  UNL     1      26.662  -0.692  53.203  1.00  0.00     0.190 A 
HETATM    5  N1  UNL     1      25.642   0.119  53.152  1.00  0.00    -0.260 N 
HETATM    6  N2  UNL     1      24.485  -0.821  52.957  1.00  0.00    -0.296 N 
HETATM    7  C4  UNL     1      23.044  -0.452  53.172  1.00  0.00     0.045 C 
HETATM    8  C5  UNL     1      22.398   0.100  54.252  1.00  0.00     0.012 C 
HETATM    9  C6  UNL     1      21.772   1.095  53.337  1.00  0.00     0.033 C 
HETATM   10  C7  UNL     1      21.066   0.050  52.475  1.00  0.00    -0.016 C 
HETATM   11  C8  UNL     1      22.151  -0.522  51.948  1.00  0.00     0.027 C 
HETATM   12  C9  UNL     1      22.742   2.042  52.681  1.00  0.00     0.015 C 
HETATM   13  C10 UNL     1      24.081   1.881  53.015  1.00  0.00     0.032 C 
HETATM   14  C11 UNL     1      25.517   1.648  53.232  1.00  0.00     0.133 C 
HETATM   15  N3  UNL     1      27.100  -1.868  53.180  1.00  0.00    -0.198 NA
HETATM   16  H3  UNL     1      24.510  -1.791  52.632  1.00  0.00     0.187 HD
ENDROOT
BRANCH  14  17
HETATM   17  C12 UNL     1      26.316   2.210  52.129  1.00  0.00     0.000 C 
BRANCH  17  18
HETATM   18  C13 UNL     1      26.656   2.721  50.972  1.00  0.00    -0.002 C 
BRANCH  18  19
HETATM   19  C14 UNL     1      26.480   3.302  49.662  1.00  0.00    -0.003 C 
BRANCH  19  20
HETATM   20  C15 UNL     1      25.493   4.142  49.507  1.00  0.00    -0.012 C 
BRANCH  20  21
HETATM   21  C16 UNL     1      26.268   5.303  49.033  1.00  0.00     0.141 C 
HETATM   22 CL1  UNL     1      27.910   4.834  48.535  1.00  0.00    -0.126 Cl
ENDBRANCH  20  21
ENDBRANCH  19  20
ENDBRANCH  18  19
ENDBRANCH  17  18
ENDBRANCH  14  17
BRANCH   1  23
HETATM   23  O1  UNL     1      28.627  -3.495  53.235  1.00  0.00    -0.344 OA
HETATM   24  H1  UNL     1      29.532  -3.872  53.513  1.00  0.00     0.219 HD
ENDBRANCH   1  23
TORSDOF 6
ENDMDL
MODEL 2
REMARK VINA RESULT:      -7.9      3.269      5.230
REMARK  6 active torsions:
REMARK  status: ('A' for Active; 'I' for Inactive)
REMARK    1  A    between atoms: O1_1  and  C1_2 
REMARK    2  A    between atoms: C11_15  and  C12_16 
REMARK    3  A    between atoms: C12_16  and  C13_17 
REMARK    4  A    between atoms: C13_17  and  C14_18 
REMARK    5  A    between atoms: C14_18  and  C15_19 
REMARK    6  A    between atoms: C15_19  and  C16_20 
ROOT
HETATM    1  C1  UNL     1      28.837   1.537  54.277  1.00  0.00     0.171 A 
HETATM    2  C2  UNL     1      28.917   0.032  54.286  1.00  0.00     0.111 A 
HETATM    3  S1  UNL     1      27.224  -0.204  53.457  1.00  0.00    -0.058 SA
HETATM    4  C3  UNL     1      26.827   1.630  53.300  1.00  0.00     0.190 A 
HETATM    5  N1  UNL     1      25.656   1.691  52.731  1.00  0.00    -0.260 N 
HETATM    6  N2  UNL     1      25.395   3.170  52.673  1.00  0.00    -0.296 N 
HETATM    7  C4  UNL     1      24.347   3.816  51.811  1.00  0.00     0.045 C 
HETATM    8  C5  UNL     1      24.101   3.733  50.461  1.00  0.00     0.012 C 
HETATM    9  C6  UNL     1      22.667   3.469  50.764  1.00  0.00     0.033 C 
HETATM   10  C7  UNL     1      22.447   4.789  51.502  1.00  0.00    -0.016 C 
HETATM   11  C8  UNL     1      23.245   4.554  52.546  1.00  0.00     0.027 C 
HETATM   12  C9  UNL     1      22.406   2.178  51.494  1.00  0.00     0.015 C 
HETATM   13  C10 UNL     1      23.518   1.396  51.779  1.00  0.00     0.032 C 
HETATM   14  C11 UNL     1      24.682   0.615  52.225  1.00  0.00     0.133 C 
HETATM   15  N3  UNL     1      27.813   2.231  53.792  1.00  0.00    -0.198 NA
HETATM   16  H3  UNL     1      25.850   3.911  53.213  1.00  0.00     0.187 HD
ENDROOT
BRANCH  14  17
HETATM   17  C12 UNL     1      24.338  -0.238  53.376  1.00  0.00     0.000 C 
BRANCH  17  18
HETATM   18  C13 UNL     1      23.665  -0.819  54.338  1.00  0.00    -0.002 C 
BRANCH  18  19
HETATM   19  C14 UNL     1      22.515  -1.235  55.104  1.00  0.00    -0.003 C 
BRANCH  19  20
HETATM   20  C15 UNL     1      21.443  -1.573  54.439  1.00  0.00    -0.012 C 
BRANCH  20  21
HETATM   21  C16 UNL     1      20.846  -0.233  54.294  1.00  0.00     0.141 C 
HETATM   22 CL1  UNL     1      19.898  -0.099  52.795  1.00  0.00    -0.126 Cl
ENDBRANCH  20  21
ENDBRANCH  19  20
ENDBRANCH  18  19
ENDBRANCH  17  18
ENDBRANCH  14  17
BRANCH   1  23
HETATM   23  O1  UNL     1      29.809   2.453  54.768  1.00  0.00    -0.344 OA
HETATM   24  H1  UNL     1      29.515   3.222  55.369  1.00  0.00     0.219 HD
ENDBRANCH   1  23
TORSDOF 6
ENDMDL
MODEL 3
REMARK VINA RESULT:      -7.2      2.759      5.026
REMARK  6 active torsions:
REMARK  status: ('A' for Active; 'I' for Inactive)
REMARK    1  A    between atoms: O1_1  and  C1_2 
REMARK    2  A    between atoms: C11_15  and  C12_16 
REMARK    3  A    between atoms: C12_16  and  C13_17 
REMARK    4  A    between atoms: C13_17  and  C14_18 
REMARK    5  A    between atoms: C14_18  and  C15_19 
REMARK    6  A    between atoms: C15_19  and  C16_20 
ROOT
HETATM    1  C1  UNL     1      21.220  -0.913  53.951  1.00  0.00     0.171 A 
HETATM    2  C2  UNL     1      20.462  -0.064  52.964  1.00  0.00     0.111 A 
HETATM    3  S1  UNL     1      22.013   0.820  52.316  1.00  0.00    -0.058 SA
HETATM    4  C3  UNL     1      23.231  -0.083  53.433  1.00  0.00     0.190 A 
HETATM    5  N1  UNL     1      24.406   0.397  53.135  1.00  0.00    -0.260 N 
HETATM    6  N2  UNL     1      25.312  -0.339  54.083  1.00  0.00    -0.296 N 
HETATM    7  C4  UNL     1      26.806  -0.422  53.940  1.00  0.00     0.045 C 
HETATM    8  C5  UNL     1      27.598  -0.824  52.891  1.00  0.00     0.012 C 
HETATM    9  C6  UNL     1      28.401   0.420  53.055  1.00  0.00     0.033 C 
HETATM   10  C7  UNL     1      28.820   0.113  54.491  1.00  0.00    -0.016 C 
HETATM   11  C8  UNL     1      27.616   0.200  55.060  1.00  0.00     0.027 C 
HETATM   12  C9  UNL     1      27.649   1.695  52.774  1.00  0.00     0.015 C 
HETATM   13  C10 UNL     1      26.322   1.555  52.391  1.00  0.00     0.032 C 
HETATM   14  C11 UNL     1      24.879   1.453  52.124  1.00  0.00     0.133 C 
HETATM   15  N3  UNL     1      22.537  -0.870  54.122  1.00  0.00    -0.198 NA
HETATM   16  H3  UNL     1      25.055  -0.835  54.940  1.00  0.00     0.187 HD
ENDROOT
BRANCH  14  17
HETATM   17  C12 UNL     1      24.190   2.713  52.453  1.00  0.00     0.000 C 
BRANCH  17  18
HETATM   18  C13 UNL     1      23.733   3.939  52.381  1.00  0.00    -0.002 C 
BRANCH  18  19
HETATM   19  C14 UNL     1      23.498   5.248  51.820  1.00  0.00    -0.003 C 
BRANCH  19  20
HETATM   20  C15 UNL     1      23.524   5.355  50.519  1.00  0.00    -0.012 C 
BRANCH  20  21
HETATM   21  C16 UNL     1      24.958   5.656  50.355  1.00  0.00     0.141 C 
HETATM   22 CL1  UNL     1      25.759   4.469  49.299  1.00  0.00    -0.126 Cl
ENDBRANCH  20  21
ENDBRANCH  19  20
ENDBRANCH  18  19
ENDBRANCH  17  18
ENDBRANCH  14  17
BRANCH   1  23
HETATM   23  O1  UNL     1      20.683  -1.878  54.847  1.00  0.00    -0.344 OA
HETATM   24  H1  UNL     1      21.290  -2.604  55.226  1.00  0.00     0.219 HD
ENDBRANCH   1  23
TORSDOF 6
ENDMDL
MODEL 4
REMARK VINA RESULT:      -7.1      3.753      5.452
REMARK  6 active torsions:
REMARK  status: ('A' for Active; 'I' for Inactive)
REMARK    1  A    between atoms: O1_1  and  C1_2 
REMARK    2  A    between atoms: C11_15  and  C12_16 
REMARK    3  A    between atoms: C12_16  and  C13_17 
REMARK    4  A    between atoms: C13_17  and  C14_18 
REMARK    5  A    between atoms: C14_18  and  C15_19 
REMARK    6  A    between atoms: C15_19  and  C16_20 
ROOT
HETATM    1  C1  UNL     1      26.920   4.927  48.953  1.00  0.00     0.171 A 
HETATM    2  C2  UNL     1      25.666   5.754  48.830  1.00  0.00     0.111 A 
HETATM    3  S1  UNL     1      24.662   4.664  50.019  1.00  0.00    -0.058 SA
HETATM    4  C3  UNL     1      26.048   3.441  50.379  1.00  0.00     0.190 A 
HETATM    5  N1  UNL     1      25.546   2.573  51.211  1.00  0.00    -0.260 N 
HETATM    6  N2  UNL     1      26.689   1.620  51.422  1.00  0.00    -0.296 N 
HETATM    7  C4  UNL     1      26.772   0.625  52.545  1.00  0.00     0.045 C 
HETATM    8  C5  UNL     1      26.666   0.780  53.907  1.00  0.00     0.012 C 
HETATM    9  C6  UNL     1      25.693  -0.347  53.935  1.00  0.00     0.033 C 
HETATM   10  C7  UNL     1      26.667  -1.371  53.354  1.00  0.00    -0.016 C 
HETATM   11  C8  UNL     1      26.799  -0.835  52.138  1.00  0.00     0.027 C 
HETATM   12  C9  UNL     1      24.402  -0.080  53.207  1.00  0.00     0.015 C 
HETATM   13  C10 UNL     1      24.274   1.172  52.619  1.00  0.00     0.032 C 
HETATM   14  C11 UNL     1      24.162   2.429  51.864  1.00  0.00     0.133 C 
HETATM   15  N3  UNL     1      27.031   3.839  49.707  1.00  0.00    -0.198 NA
HETATM   16  H3  UNL     1      27.520   1.495  50.837  1.00  0.00     0.187 HD
ENDROOT
BRANCH  14  17
HETATM   17  C12 UNL     1      23.177   2.306  50.775  1.00  0.00     0.000 C 
BRANCH  17  18
HETATM   18  C13 UNL     1      22.404   1.800  49.846  1.00  0.00    -0.002 C 
BRANCH  18  19
HETATM   19  C14 UNL     1      21.717   1.710  48.580  1.00  0.00    -0.003 C 
BRANCH  19  20
HETATM   20  C15 UNL     1      22.426   1.897  47.499  1.00  0.00    -0.012 C 
BRANCH  20  21
HETATM   21  C16 UNL     1      22.101   3.316  47.269  1.00  0.00     0.141 C 
HETATM   22 CL1  UNL     1      21.911   3.672  45.537  1.00  0.00    -0.126 Cl
ENDBRANCH  20  21
ENDBRANCH  19  20
ENDBRANCH  18  19
ENDBRANCH  17  18
ENDBRANCH  14  17
BRANCH   1  23
HETATM   23  O1  UNL     1      28.167   5.153  48.305  1.00  0.00    -0.344 OA
HETATM   24  H1  UNL     1      28.198   5.726  47.463  1.00  0.00     0.219 HD
ENDBRANCH   1  23
TORSDOF 6
ENDMDL
MODEL 5
REMARK VINA RESULT:      -7.0      4.006      5.671
REMARK  6 active torsions:
REMARK  status: ('A' for Active; 'I' for Inactive)
REMARK    1  A    between atoms: O1_1  and  C1_2 
REMARK    2  A    between atoms: C11_15  and  C12_16 
REMARK    3  A    between atoms: C12_16  and  C13_17 
REMARK    4  A    between atoms: C13_17  and  C14_18 
REMARK    5  A    between atoms: C14_18  and  C15_19 
REMARK    6  A    between atoms: C15_19  and  C16_20 
ROOT
HETATM    1  C1  UNL     1      22.903   5.774  51.361  1.00  0.00     0.171 A 
HETATM    2  C2  UNL     1      24.276   5.969  50.773  1.00  0.00     0.111 A 
HETATM    3  S1  UNL     1      24.834   4.187  51.124  1.00  0.00    -0.058 SA
HETATM    4  C3  UNL     1      23.221   3.632  51.921  1.00  0.00     0.190 A 
HETATM    5  N1  UNL     1      23.401   2.383  52.248  1.00  0.00    -0.260 N 
HETATM    6  N2  UNL     1      22.096   2.025  52.904  1.00  0.00    -0.296 N 
HETATM    7  C4  UNL     1      21.632   0.619  53.163  1.00  0.00     0.045 C 
HETATM    8  C5  UNL     1      21.494  -0.463  52.325  1.00  0.00     0.012 C 
HETATM    9  C6  UNL     1      22.243  -1.291  53.312  1.00  0.00     0.033 C 
HETATM   10  C7  UNL     1      21.244  -1.070  54.447  1.00  0.00    -0.016 C 
HETATM   11  C8  UNL     1      21.442   0.240  54.618  1.00  0.00     0.027 C 
HETATM   12  C9  UNL     1      23.677  -0.880  53.517  1.00  0.00     0.015 C 
HETATM   13  C10 UNL     1      24.123   0.197  52.762  1.00  0.00     0.032 C 
HETATM   14  C11 UNL     1      24.587   1.420  52.089  1.00  0.00     0.133 C 
HETATM   15  N3  UNL     1      22.468   4.636  51.891  1.00  0.00    -0.198 NA
HETATM   16  H3  UNL     1      21.386   2.658  53.281  1.00  0.00     0.187 HD
ENDROOT
BRANCH  14  17
HETATM   17  C12 UNL     1      25.731   2.015  52.802  1.00  0.00     0.000 C 
BRANCH  17  18
HETATM   18  C13 UNL     1      26.918   2.183  53.332  1.00  0.00    -0.002 C 
BRANCH  18  19
HETATM   19  C14 UNL     1      28.352   2.335  53.380  1.00  0.00    -0.003 C 
BRANCH  19  20
HETATM   20  C15 UNL     1      28.994   1.676  54.306  1.00  0.00    -0.012 C 
BRANCH  20  21
HETATM   21  C16 UNL     1      28.652   0.308  53.876  1.00  0.00     0.141 C 
HETATM   22 CL1  UNL     1      30.107  -0.640  53.494  1.00  0.00    -0.126 Cl
ENDBRANCH  20  21
ENDBRANCH  19  20
ENDBRANCH  18  19
ENDBRANCH  17  18
ENDBRANCH  14  17
BRANCH   1  23
HETATM   23  O1  UNL     1      21.862   6.739  51.455  1.00  0.00    -0.344 OA
HETATM   24  H1  UNL     1      22.042   7.701  51.171  1.00  0.00     0.219 HD
ENDBRANCH   1  23
TORSDOF 6
ENDMDL
MODEL 6
REMARK VINA RESULT:      -7.0      3.030      5.095
REMARK  6 active torsions:
REMARK  status: ('A' for Active; 'I' for Inactive)
REMARK    1  A    between atoms: O1_1  and  C1_2 
REMARK    2  A    between atoms: C11_15  and  C12_16 
REMARK    3  A    between atoms: C12_16  and  C13_17 
REMARK    4  A    between atoms: C13_17  and  C14_18 
REMARK    5  A    between atoms: C14_18  and  C15_19 
REMARK    6  A    between atoms: C15_19  and  C16_20 
ROOT
HETATM    1  C1  UNL     1      21.734  -1.233  54.381  1.00  0.00     0.171 A 
HETATM    2  C2  UNL     1      22.867  -1.538  55.327  1.00  0.00     0.111 A 
HETATM    3  S1  UNL     1      24.096  -0.384  54.452  1.00  0.00    -0.058 SA
HETATM    4  C3  UNL     1      22.901   0.199  53.119  1.00  0.00     0.190 A 
HETATM    5  N1  UNL     1      23.576   1.035  52.381  1.00  0.00    -0.260 N 
HETATM    6  N2  UNL     1      22.575   1.425  51.328  1.00  0.00    -0.296 N 
HETATM    7  C4  UNL     1      22.713   2.618  50.425  1.00  0.00     0.045 C 
HETATM    8  C5  UNL     1      22.924   3.949  50.700  1.00  0.00     0.012 C 
HETATM    9  C6  UNL     1      24.021   3.957  49.691  1.00  0.00     0.033 C 
HETATM   10  C7  UNL     1      23.123   3.550  48.524  1.00  0.00    -0.016 C 
HETATM   11  C8  UNL     1      22.818   2.319  48.942  1.00  0.00     0.027 C 
HETATM   12  C9  UNL     1      25.200   3.086  50.038  1.00  0.00     0.015 C 
HETATM   13  C10 UNL     1      25.126   2.402  51.245  1.00  0.00     0.032 C 
HETATM   14  C11 UNL     1      25.021   1.553  52.441  1.00  0.00     0.133 C 
HETATM   15  N3  UNL     1      21.821  -0.397  53.352  1.00  0.00    -0.198 NA
HETATM   16  H3  UNL     1      21.714   0.938  51.067  1.00  0.00     0.187 HD
ENDROOT
BRANCH  14  17
HETATM   17  C12 UNL     1      25.909   0.382  52.339  1.00  0.00     0.000 C 
BRANCH  17  18
HETATM   18  C13 UNL     1      26.911  -0.441  52.525  1.00  0.00    -0.002 C 
BRANCH  18  19
HETATM   19  C14 UNL     1      28.169  -0.922  53.046  1.00  0.00    -0.003 C 
BRANCH  19  20
HETATM   20  C15 UNL     1      28.631  -0.345  54.122  1.00  0.00    -0.012 C 
BRANCH  20  21
HETATM   21  C16 UNL     1      29.401   0.733  53.476  1.00  0.00     0.141 C 
HETATM   22 CL1  UNL     1      28.712   2.334  53.833  1.00  0.00    -0.126 Cl
ENDBRANCH  20  21
ENDBRANCH  19  20
ENDBRANCH  18  19
ENDBRANCH  17  18
ENDBRANCH  14  17
BRANCH   1  23
HETATM   23  O1  UNL     1      20.415  -1.766  54.417  1.00  0.00    -0.344 OA
HETATM   24  H1  UNL     1      20.273  -2.736  54.695  1.00  0.00     0.219 HD
ENDBRANCH   1  23
TORSDOF 6
ENDMDL
MODEL 7
REMARK VINA RESULT:      -7.0      4.028      5.987
REMARK  6 active torsions:
REMARK  status: ('A' for Active; 'I' for Inactive)
REMARK    1  A    between atoms: O1_1  and  C1_2 
REMARK    2  A    between atoms: C11_15  and  C12_16 
REMARK    3  A    between atoms: C12_16  and  C13_17 
REMARK    4  A    between atoms: C13_17  and  C14_18 
REMARK    5  A    between atoms: C14_18  and  C15_19 
REMARK    6  A    between atoms: C15_19  and  C16_20 
ROOT
HETATM    1  C1  UNL     1      27.055   4.953  48.909  1.00  0.00     0.171 A 
HETATM    2  C2  UNL     1      25.833   5.829  48.813  1.00  0.00     0.111 A 
HETATM    3  S1  UNL     1      24.810   4.776  50.019  1.00  0.00    -0.058 SA
HETATM    4  C3  UNL     1      26.154   3.500  50.350  1.00  0.00     0.190 A 
HETATM    5  N1  UNL     1      25.634   2.650  51.191  1.00  0.00    -0.260 N 
HETATM    6  N2  UNL     1      26.743   1.652  51.377  1.00  0.00    -0.296 N 
HETATM    7  C4  UNL     1      26.809   0.652  52.498  1.00  0.00     0.045 C 
HETATM    8  C5  UNL     1      26.737   0.809  53.862  1.00  0.00     0.012 C 
HETATM    9  C6  UNL     1      25.721  -0.280  53.907  1.00  0.00     0.033 C 
HETATM   10  C7  UNL     1      26.642  -1.340  53.306  1.00  0.00    -0.016 C 
HETATM   11  C8  UNL     1      26.771  -0.807  52.088  1.00  0.00     0.027 C 
HETATM   12  C9  UNL     1      24.427   0.039  53.206  1.00  0.00     0.015 C 
HETATM   13  C10 UNL     1      24.336   1.296  52.622  1.00  0.00     0.032 C 
HETATM   14  C11 UNL     1      24.259   2.558  51.870  1.00  0.00     0.133 C 
HETATM   15  N3  UNL     1      27.138   3.860  49.659  1.00  0.00    -0.198 NA
HETATM   16  H3  UNL     1      27.557   1.496  50.776  1.00  0.00     0.187 HD
ENDROOT
BRANCH  14  17
HETATM   17  C12 UNL     1      23.248   2.477  50.802  1.00  0.00     0.000 C 
BRANCH  17  18
HETATM   18  C13 UNL     1      22.374   2.004  49.948  1.00  0.00    -0.002 C 
BRANCH  18  19
HETATM   19  C14 UNL     1      21.482   1.048  49.337  1.00  0.00    -0.003 C 
BRANCH  19  20
HETATM   20  C15 UNL     1      20.200   1.232  49.508  1.00  0.00    -0.012 C 
BRANCH  20  21
HETATM   21  C16 UNL     1      20.085   0.701  50.878  1.00  0.00     0.141 C 
HETATM   22 CL1  UNL     1      18.475   0.007  51.178  1.00  0.00    -0.126 Cl
ENDBRANCH  20  21
ENDBRANCH  19  20
ENDBRANCH  18  19
ENDBRANCH  17  18
ENDBRANCH  14  17
BRANCH   1  23
HETATM   23  O1  UNL     1      28.297   5.132  48.237  1.00  0.00    -0.344 OA
HETATM   24  H1  UNL     1      28.741   6.049  48.238  1.00  0.00     0.219 HD
ENDBRANCH   1  23
TORSDOF 6
ENDMDL
MODEL 8
REMARK VINA RESULT:      -6.9      4.357      6.326
REMARK  6 active torsions:
REMARK  status: ('A' for Active; 'I' for Inactive)
REMARK    1  A    between atoms: O1_1  and  C1_2 
REMARK    2  A    between atoms: C11_15  and  C12_16 
REMARK    3  A    between atoms: C12_16  and  C13_17 
REMARK    4  A    between atoms: C13_17  and  C14_18 
REMARK    5  A    between atoms: C14_18  and  C15_19 
REMARK    6  A    between atoms: C15_19  and  C16_20 
ROOT
HETATM    1  C1  UNL     1      22.596   6.785  50.503  1.00  0.00     0.171 A 
HETATM    2  C2  UNL     1      22.946   7.058  49.064  1.00  0.00     0.111 A 
HETATM    3  S1  UNL     1      24.158   5.601  48.934  1.00  0.00    -0.058 SA
HETATM    4  C3  UNL     1      23.935   5.004  50.706  1.00  0.00     0.190 A 
HETATM    5  N1  UNL     1      24.713   3.966  50.829  1.00  0.00    -0.260 N 
HETATM    6  N2  UNL     1      24.509   3.572  52.266  1.00  0.00    -0.296 N 
HETATM    7  C4  UNL     1      24.901   2.242  52.847  1.00  0.00     0.045 C 
HETATM    8  C5  UNL     1      24.597   0.957  52.464  1.00  0.00     0.012 C 
HETATM    9  C6  UNL     1      26.045   0.616  52.553  1.00  0.00     0.033 C 
HETATM   10  C7  UNL     1      26.167   0.964  54.036  1.00  0.00    -0.016 C 
HETATM   11  C8  UNL     1      25.953   2.278  53.937  1.00  0.00     0.027 C 
HETATM   12  C9  UNL     1      26.922   1.337  51.564  1.00  0.00     0.015 C 
HETATM   13  C10 UNL     1      26.281   2.209  50.694  1.00  0.00     0.032 C 
HETATM   14  C11 UNL     1      25.659   3.245  49.856  1.00  0.00     0.133 C 
HETATM   15  N3  UNL     1      23.104   5.791  51.223  1.00  0.00    -0.198 NA
HETATM   16  H3  UNL     1      24.123   4.139  53.025  1.00  0.00     0.187 HD
ENDROOT
BRANCH  14  17
HETATM   17  C12 UNL     1      26.656   4.232  49.406  1.00  0.00     0.000 C 
BRANCH  17  18
HETATM   18  C13 UNL     1      27.651   4.793  48.764  1.00  0.00    -0.002 C 
BRANCH  18  19
HETATM   19  C14 UNL     1      28.438   5.853  48.180  1.00  0.00    -0.003 C 
BRANCH  19  20
HETATM   20  C15 UNL     1      29.723   5.650  48.065  1.00  0.00    -0.012 C 
BRANCH  20  21
HETATM   21  C16 UNL     1      30.189   7.006  48.407  1.00  0.00     0.141 C 
HETATM   22 CL1  UNL     1      31.602   6.960  49.485  1.00  0.00    -0.126 Cl
ENDBRANCH  20  21
ENDBRANCH  19  20
ENDBRANCH  18  19
ENDBRANCH  17  18
ENDBRANCH  14  17
BRANCH   1  23
HETATM   23  O1  UNL     1      21.691   7.515  51.323  1.00  0.00    -0.344 OA
HETATM   24  H1  UNL     1      21.275   8.376  50.969  1.00  0.00     0.219 HD
ENDBRANCH   1  23
TORSDOF 6
ENDMDL
MODEL 9
REMARK VINA RESULT:      -6.9      8.132     11.283
REMARK  6 active torsions:
REMARK  status: ('A' for Active; 'I' for Inactive)
REMARK    1  A    between atoms: O1_1  and  C1_2 
REMARK    2  A    between atoms: C11_15  and  C12_16 
REMARK    3  A    between atoms: C12_16  and  C13_17 
REMARK    4  A    between atoms: C13_17  and  C14_18 
REMARK    5  A    between atoms: C14_18  and  C15_19 
REMARK    6  A    between atoms: C15_19  and  C16_20 
ROOT
HETATM    1  C1  UNL     1      31.689  10.463  47.819  1.00  0.00     0.171 A 
HETATM    2  C2  UNL     1      30.517  10.456  48.765  1.00  0.00     0.111 A 
HETATM    3  S1  UNL     1      30.573   8.577  49.045  1.00  0.00    -0.058 SA
HETATM    4  C3  UNL     1      32.044   8.257  47.914  1.00  0.00     0.190 A 
HETATM    5  N1  UNL     1      32.255   6.972  47.966  1.00  0.00    -0.260 N 
HETATM    6  N2  UNL     1      33.410   6.790  47.020  1.00  0.00    -0.296 N 
HETATM    7  C4  UNL     1      34.275   5.563  46.959  1.00  0.00     0.045 C 
HETATM    8  C5  UNL     1      34.985   4.901  47.933  1.00  0.00     0.012 C 
HETATM    9  C6  UNL     1      34.378   3.622  47.471  1.00  0.00     0.033 C 
HETATM   10  C7  UNL     1      34.934   3.721  46.052  1.00  0.00    -0.016 C 
HETATM   11  C8  UNL     1      34.243   4.792  45.654  1.00  0.00     0.027 C 
HETATM   12  C9  UNL     1      32.886   3.531  47.661  1.00  0.00     0.015 C 
HETATM   13  C10 UNL     1      32.272   4.630  48.246  1.00  0.00     0.032 C 
HETATM   14  C11 UNL     1      31.569   5.828  48.729  1.00  0.00     0.133 C 
HETATM   15  N3  UNL     1      32.369   9.380  47.458  1.00  0.00    -0.198 NA
HETATM   16  H3  UNL     1      33.734   7.433  46.293  1.00  0.00     0.187 HD
ENDROOT
BRANCH  14  17
HETATM   17  C12 UNL     1      30.155   5.815  48.315  1.00  0.00     0.000 C 
BRANCH  17  18
HETATM   18  C13 UNL     1      28.888   5.494  48.220  1.00  0.00    -0.002 C 
BRANCH  18  19
HETATM   19  C14 UNL     1      27.621   4.918  48.602  1.00  0.00    -0.003 C 
BRANCH  19  20
HETATM   20  C15 UNL     1      26.628   5.741  48.811  1.00  0.00    -0.012 C 
BRANCH  20  21
HETATM   21  C16 UNL     1      25.830   4.893  49.715  1.00  0.00     0.141 C 
HETATM   22 CL1  UNL     1      26.371   3.199  49.671  1.00  0.00    -0.126 Cl
ENDBRANCH  20  21
ENDBRANCH  19  20
ENDBRANCH  18  19
ENDBRANCH  17  18
ENDBRANCH  14  17
BRANCH   1  23
HETATM   23  O1  UNL     1      32.260  11.590  47.164  1.00  0.00    -0.344 OA
HETATM   24  H1  UNL     1      31.656  12.232  46.652  1.00  0.00     0.219 HD
ENDBRANCH   1  23
TORSDOF 6
ENDMDL
