MODEL 1
REMARK VINA RESULT:      -9.8      0.000      0.000
REMARK  6 active torsions:
REMARK  status: ('A' for Active; 'I' for Inactive)
REMARK    1  A    between atoms: O1_1  and  C1_2 
REMARK    2  A    between atoms: C4_5  and  N1_6 
REMARK    3  A    between atoms: N1_6  and  C5_7 
REMARK    4  A    between atoms: C8_12  and  N4_13 
REMARK    5  A    between atoms: N4_13  and  C9_14 
REMARK    6  A    between atoms: N5_23  and  C15_24 
ROOT
HETATM    1  C5  UNL     1      20.835  -0.643  53.904  1.00  0.00     0.724 A 
HETATM    2  N2  UNL     1      21.460  -1.342  54.875  1.00  0.00    -0.073 NA
HETATM    3  C6  UNL     1      22.815  -1.275  55.022  1.00  0.00     0.172 A 
HETATM    4  C7  UNL     1      23.556  -0.487  54.170  1.00  0.00     0.141 A 
HETATM    5  N3  UNL     1      24.866  -0.158  53.987  1.00  0.00    -0.059 NA
HETATM    6  C8  UNL     1      24.969   0.708  52.933  1.00  0.00     0.710 A 
HETATM    7  N5  UNL     1      23.759   0.960  52.413  1.00  0.00    -0.154 N 
HETATM    8  C19 UNL     1      22.921   0.232  53.171  1.00  0.00     0.196 A 
HETATM    9  N6  UNL     1      21.593   0.114  53.094  1.00  0.00    -0.042 NA
ENDROOT
BRANCH   6  10
HETATM   10  N4  UNL     1      26.232   1.218  52.509  1.00  0.00    -0.183 N 
HETATM   11  H10 UNL     1      26.563   2.068  52.008  1.00  0.00     0.184 HD
BRANCH  10  12
HETATM   12  C9  UNL     1      27.300   0.346  52.858  1.00  0.00     0.126 A 
HETATM   13  C10 UNL     1      28.247   1.082  53.582  1.00  0.00     0.149 A 
HETATM   14  F1  UNL     1      28.187   2.415  53.916  1.00  0.00    -0.203 F 
HETATM   15  C11 UNL     1      29.404   0.487  54.053  1.00  0.00     0.087 A 
HETATM   16  C12 UNL     1      29.665  -0.869  53.825  1.00  0.00     0.122 A 
HETATM   17  F2  UNL     1      30.759  -1.543  54.241  1.00  0.00    -0.206 F 
HETATM   18  C13 UNL     1      28.712  -1.571  53.108  1.00  0.00     0.087 A 
HETATM   19  C14 UNL     1      27.559  -0.985  52.635  1.00  0.00     0.149 A 
HETATM   20  F3  UNL     1      26.561  -1.566  51.931  1.00  0.00    -0.203 F 
ENDBRANCH  10  12
ENDBRANCH   6  10
BRANCH   7  21
HETATM   21  C15 UNL     1      23.413   1.803  51.302  1.00  0.00     0.135 C 
HETATM   22  C16 UNL     1      22.258   1.187  50.496  1.00  0.00     0.055 C 
HETATM   23  C17 UNL     1      21.604   2.447  49.964  1.00  0.00     0.169 C 
HETATM   24  O2  UNL     1      22.224   3.535  50.546  1.00  0.00    -0.389 OA
HETATM   25  C18 UNL     1      22.719   3.078  51.763  1.00  0.00     0.194 C 
ENDBRANCH   7  21
BRANCH   1  26
HETATM   26  N1  UNL     1      19.421  -0.676  53.723  1.00  0.00    -0.218 N 
HETATM   27  H8  UNL     1      18.839  -0.831  54.580  1.00  0.00     0.178 HD
BRANCH  26  28
HETATM   28  C4  UNL     1      18.761  -0.518  52.464  1.00  0.00     0.099 C 
HETATM   29  C3  UNL     1      18.884   0.862  51.909  1.00  0.00     0.028 C 
HETATM   30  C2  UNL     1      17.836   1.146  50.849  1.00  0.00     0.034 C 
HETATM   31  C1  UNL     1      17.356  -0.149  50.216  1.00  0.00     0.118 C 
HETATM   32  C21 UNL     1      16.631  -0.957  51.260  1.00  0.00     0.034 C 
HETATM   33  C20 UNL     1      17.282  -0.808  52.632  1.00  0.00     0.028 C 
BRANCH  31  34
HETATM   34  O1  UNL     1      16.463   0.108  49.193  1.00  0.00    -0.396 OA
HETATM   35  H1  UNL     1      16.668  -0.426  48.364  1.00  0.00     0.210 HD
ENDBRANCH  31  34
ENDBRANCH  26  28
ENDBRANCH   1  26
TORSDOF 6
ENDMDL
MODEL 2
REMARK VINA RESULT:      -9.3      2.988      5.195
REMARK  6 active torsions:
REMARK  status: ('A' for Active; 'I' for Inactive)
REMARK    1  A    between atoms: O1_1  and  C1_2 
REMARK    2  A    between atoms: C4_5  and  N1_6 
REMARK    3  A    between atoms: N1_6  and  C5_7 
REMARK    4  A    between atoms: C8_12  and  N4_13 
REMARK    5  A    between atoms: N4_13  and  C9_14 
REMARK    6  A    between atoms: N5_23  and  C15_24 
ROOT
HETATM    1  C5  UNL     1      22.328   3.709  51.194  1.00  0.00     0.724 A 
HETATM    2  N2  UNL     1      23.479   3.925  50.520  1.00  0.00    -0.073 NA
HETATM    3  C6  UNL     1      24.541   3.083  50.668  1.00  0.00     0.172 A 
HETATM    4  C7  UNL     1      24.444   1.999  51.513  1.00  0.00     0.141 A 
HETATM    5  N3  UNL     1      25.233   0.966  51.920  1.00  0.00    -0.059 NA
HETATM    6  C8  UNL     1      24.536   0.189  52.805  1.00  0.00     0.710 A 
HETATM    7  N5  UNL     1      23.304   0.684  52.993  1.00  0.00    -0.154 N 
HETATM    8  C19 UNL     1      23.266   1.773  52.206  1.00  0.00     0.196 A 
HETATM    9  N6  UNL     1      22.273   2.642  52.008  1.00  0.00    -0.042 NA
ENDROOT
BRANCH   6  10
HETATM   10  N4  UNL     1      25.121  -0.966  53.402  1.00  0.00    -0.183 N 
HETATM   11  H10 UNL     1      24.784  -1.907  53.694  1.00  0.00     0.184 HD
BRANCH  10  12
HETATM   12  C9  UNL     1      26.507  -0.785  53.663  1.00  0.00     0.126 A 
HETATM   13  C10 UNL     1      27.224  -1.682  52.862  1.00  0.00     0.149 A 
HETATM   14  F1  UNL     1      26.712  -2.594  51.967  1.00  0.00    -0.203 F 
HETATM   15  C11 UNL     1      28.607  -1.731  52.908  1.00  0.00     0.087 A 
HETATM   16  C12 UNL     1      29.333  -0.886  53.753  1.00  0.00     0.122 A 
HETATM   17  F2  UNL     1      30.678  -0.854  53.872  1.00  0.00    -0.206 F 
HETATM   18  C13 UNL     1      28.598  -0.009  54.532  1.00  0.00     0.087 A 
HETATM   19  C14 UNL     1      27.223   0.045  54.492  1.00  0.00     0.149 A 
HETATM   20  F3  UNL     1      26.403   0.856  55.199  1.00  0.00    -0.203 F 
ENDBRANCH  10  12
ENDBRANCH   6  10
BRANCH   7  21
HETATM   21  C15 UNL     1      22.252   0.187  53.837  1.00  0.00     0.135 C 
HETATM   22  C16 UNL     1      21.217  -0.591  53.009  1.00  0.00     0.055 C 
HETATM   23  C17 UNL     1      20.734  -1.581  54.050  1.00  0.00     0.169 C 
HETATM   24  O2  UNL     1      21.519  -1.442  55.177  1.00  0.00    -0.389 OA
HETATM   25  C18 UNL     1      22.739  -0.951  54.725  1.00  0.00     0.194 C 
ENDBRANCH   7  21
BRANCH   1  26
HETATM   26  N1  UNL     1      21.190   4.558  51.061  1.00  0.00    -0.218 N 
HETATM   27  H8  UNL     1      20.359   4.332  51.656  1.00  0.00     0.178 HD
BRANCH  26  28
HETATM   28  C4  UNL     1      21.115   5.679  50.175  1.00  0.00     0.099 C 
HETATM   29  C3  UNL     1      21.564   6.954  50.807  1.00  0.00     0.028 C 
HETATM   30  C2  UNL     1      21.064   8.171  50.050  1.00  0.00     0.034 C 
HETATM   31  C1  UNL     1      20.781   7.817  48.601  1.00  0.00     0.118 C 
HETATM   32  C21 UNL     1      19.632   6.845  48.556  1.00  0.00     0.034 C 
HETATM   33  C20 UNL     1      19.678   5.874  49.733  1.00  0.00     0.028 C 
BRANCH  31  34
HETATM   34  O1  UNL     1      20.405   8.939  47.886  1.00  0.00    -0.396 OA
HETATM   35  H1  UNL     1      20.746   9.790  48.304  1.00  0.00     0.210 HD
ENDBRANCH  31  34
ENDBRANCH  26  28
ENDBRANCH   1  26
TORSDOF 6
ENDMDL
MODEL 3
REMARK VINA RESULT:      -9.2      2.322      4.038
REMARK  6 active torsions:
REMARK  status: ('A' for Active; 'I' for Inactive)
REMARK    1  A    between atoms: O1_1  and  C1_2 
REMARK    2  A    between atoms: C4_5  and  N1_6 
REMARK    3  A    between atoms: N1_6  and  C5_7 
REMARK    4  A    between atoms: C8_12  and  N4_13 
REMARK    5  A    between atoms: N4_13  and  C9_14 
REMARK    6  A    between atoms: N5_23  and  C15_24 
ROOT
HETATM    1  C5  UNL     1      22.302   3.658  51.199  1.00  0.00     0.724 A 
HETATM    2  N2  UNL     1      23.453   3.892  50.534  1.00  0.00    -0.073 NA
HETATM    3  C6  UNL     1      24.533   3.075  50.698  1.00  0.00     0.172 A 
HETATM    4  C7  UNL     1      24.451   1.997  51.552  1.00  0.00     0.141 A 
HETATM    5  N3  UNL     1      25.259   0.985  51.977  1.00  0.00    -0.059 NA
HETATM    6  C8  UNL     1      24.571   0.202  52.863  1.00  0.00     0.710 A 
HETATM    7  N5  UNL     1      23.327   0.671  53.035  1.00  0.00    -0.154 N 
HETATM    8  C19 UNL     1      23.273   1.752  52.238  1.00  0.00     0.196 A 
HETATM    9  N6  UNL     1      22.262   2.598  52.022  1.00  0.00    -0.042 NA
ENDROOT
BRANCH   6  10
HETATM   10  N4  UNL     1      25.176  -0.935  53.476  1.00  0.00    -0.183 N 
HETATM   11  H10 UNL     1      24.851  -1.873  53.792  1.00  0.00     0.184 HD
BRANCH  10  12
HETATM   12  C9  UNL     1      26.563  -0.735  53.713  1.00  0.00     0.126 A 
HETATM   13  C10 UNL     1      27.278  -1.629  52.908  1.00  0.00     0.149 A 
HETATM   14  F1  UNL     1      26.763  -2.553  52.028  1.00  0.00    -0.203 F 
HETATM   15  C11 UNL     1      28.662  -1.661  52.932  1.00  0.00     0.087 A 
HETATM   16  C12 UNL     1      29.391  -0.801  53.760  1.00  0.00     0.122 A 
HETATM   17  F2  UNL     1      30.738  -0.751  53.857  1.00  0.00    -0.206 F 
HETATM   18  C13 UNL     1      28.658   0.073  54.544  1.00  0.00     0.087 A 
HETATM   19  C14 UNL     1      27.282   0.110  54.526  1.00  0.00     0.149 A 
HETATM   20  F3  UNL     1      26.463   0.916  55.240  1.00  0.00    -0.203 F 
ENDBRANCH  10  12
ENDBRANCH   6  10
BRANCH   7  21
HETATM   21  C15 UNL     1      22.279   0.159  53.875  1.00  0.00     0.135 C 
HETATM   22  C16 UNL     1      21.303  -0.702  53.057  1.00  0.00     0.055 C 
HETATM   23  C17 UNL     1      20.841  -1.669  54.127  1.00  0.00     0.169 C 
HETATM   24  O2  UNL     1      21.589  -1.445  55.266  1.00  0.00    -0.389 OA
HETATM   25  C18 UNL     1      22.796  -0.915  54.822  1.00  0.00     0.194 C 
ENDBRANCH   7  21
BRANCH   1  26
HETATM   26  N1  UNL     1      21.147   4.481  51.048  1.00  0.00    -0.218 N 
HETATM   27  H8  UNL     1      21.232   5.476  51.361  1.00  0.00     0.178 HD
BRANCH  26  28
HETATM   28  C4  UNL     1      19.900   4.035  50.506  1.00  0.00     0.099 C 
HETATM   29  C3  UNL     1      19.190   5.092  49.729  1.00  0.00     0.028 C 
HETATM   30  C2  UNL     1      17.715   4.779  49.556  1.00  0.00     0.034 C 
HETATM   31  C1  UNL     1      17.473   3.283  49.667  1.00  0.00     0.118 C 
HETATM   32  C21 UNL     1      17.793   2.844  51.071  1.00  0.00     0.034 C 
HETATM   33  C20 UNL     1      18.984   3.612  51.637  1.00  0.00     0.028 C 
BRANCH  31  34
HETATM   34  O1  UNL     1      16.145   2.983  49.429  1.00  0.00    -0.396 OA
HETATM   35  H1  UNL     1      15.679   2.632  50.250  1.00  0.00     0.210 HD
ENDBRANCH  31  34
ENDBRANCH  26  28
ENDBRANCH   1  26
TORSDOF 6
ENDMDL
MODEL 4
REMARK VINA RESULT:      -9.1      4.021      6.085
REMARK  6 active torsions:
REMARK  status: ('A' for Active; 'I' for Inactive)
REMARK    1  A    between atoms: O1_1  and  C1_2 
REMARK    2  A    between atoms: C4_5  and  N1_6 
REMARK    3  A    between atoms: N1_6  and  C5_7 
REMARK    4  A    between atoms: C8_12  and  N4_13 
REMARK    5  A    between atoms: N4_13  and  C9_14 
REMARK    6  A    between atoms: N5_23  and  C15_24 
ROOT
HETATM    1  C5  UNL     1      25.189   0.713  52.904  1.00  0.00     0.724 A 
HETATM    2  N2  UNL     1      26.530   0.834  53.008  1.00  0.00    -0.073 NA
HETATM    3  C6  UNL     1      27.214   1.715  52.223  1.00  0.00     0.172 A 
HETATM    4  C7  UNL     1      26.532   2.492  51.313  1.00  0.00     0.141 A 
HETATM    5  N3  UNL     1      26.824   3.449  50.387  1.00  0.00    -0.059 NA
HETATM    6  C8  UNL     1      25.668   3.854  49.779  1.00  0.00     0.710 A 
HETATM    7  N5  UNL     1      24.617   3.188  50.279  1.00  0.00    -0.154 N 
HETATM    8  C19 UNL     1      25.157   2.373  51.202  1.00  0.00     0.196 A 
HETATM    9  N6  UNL     1      24.561   1.489  52.005  1.00  0.00    -0.042 NA
ENDROOT
BRANCH   6  10
HETATM   10  N4  UNL     1      25.673   4.849  48.757  1.00  0.00    -0.183 N 
HETATM   11  H10 UNL     1      25.495   4.867  47.732  1.00  0.00     0.184 HD
BRANCH  10  12
HETATM   12  C9  UNL     1      26.006   6.133  49.269  1.00  0.00     0.126 A 
HETATM   13  C10 UNL     1      27.201   6.548  48.668  1.00  0.00     0.149 A 
HETATM   14  F1  UNL     1      27.948   5.862  47.739  1.00  0.00    -0.203 F 
HETATM   15  C11 UNL     1      27.769   7.771  48.981  1.00  0.00     0.087 A 
HETATM   16  C12 UNL     1      27.170   8.632  49.906  1.00  0.00     0.122 A 
HETATM   17  F2  UNL     1      27.641   9.842  50.279  1.00  0.00    -0.206 F 
HETATM   18  C13 UNL     1      25.990   8.196  50.484  1.00  0.00     0.087 A 
HETATM   19  C14 UNL     1      25.419   6.982  50.178  1.00  0.00     0.149 A 
HETATM   20  F3  UNL     1      24.276   6.454  50.672  1.00  0.00    -0.203 F 
ENDBRANCH  10  12
ENDBRANCH   6  10
BRANCH   7  21
HETATM   21  C15 UNL     1      23.228   3.298  49.924  1.00  0.00     0.135 C 
HETATM   22  C16 UNL     1      22.601   1.904  49.760  1.00  0.00     0.055 C 
HETATM   23  C17 UNL     1      21.171   2.208  50.157  1.00  0.00     0.169 C 
HETATM   24  O2  UNL     1      21.116   3.510  50.615  1.00  0.00    -0.389 OA
HETATM   25  C18 UNL     1      22.390   3.791  51.096  1.00  0.00     0.194 C 
ENDBRANCH   7  21
BRANCH   1  26
HETATM   26  N1  UNL     1      24.435  -0.187  53.712  1.00  0.00    -0.218 N 
HETATM   27  H8  UNL     1      24.961  -0.719  54.445  1.00  0.00     0.178 HD
BRANCH  26  28
HETATM   28  C4  UNL     1      23.027  -0.406  53.584  1.00  0.00     0.099 C 
HETATM   29  C3  UNL     1      22.242   0.861  53.522  1.00  0.00     0.028 C 
HETATM   30  C2  UNL     1      20.775   0.638  53.843  1.00  0.00     0.034 C 
HETATM   31  C1  UNL     1      20.380  -0.800  53.556  1.00  0.00     0.118 C 
HETATM   32  C21 UNL     1      21.118  -1.703  54.508  1.00  0.00     0.034 C 
HETATM   33  C20 UNL     1      22.529  -1.190  54.782  1.00  0.00     0.028 C 
BRANCH  31  34
HETATM   34  O1  UNL     1      19.027  -0.988  53.768  1.00  0.00    -0.396 OA
HETATM   35  H1  UNL     1      18.725  -0.623  54.657  1.00  0.00     0.210 HD
ENDBRANCH  31  34
ENDBRANCH  26  28
ENDBRANCH   1  26
TORSDOF 6
ENDMDL
MODEL 5
REMARK VINA RESULT:      -9.1      2.008      3.322
REMARK  6 active torsions:
REMARK  status: ('A' for Active; 'I' for Inactive)
REMARK    1  A    between atoms: O1_1  and  C1_2 
REMARK    2  A    between atoms: C4_5  and  N1_6 
REMARK    3  A    between atoms: N1_6  and  C5_7 
REMARK    4  A    between atoms: C8_12  and  N4_13 
REMARK    5  A    between atoms: N4_13  and  C9_14 
REMARK    6  A    between atoms: N5_23  and  C15_24 
ROOT
HETATM    1  C5  UNL     1      21.776   1.664  49.742  1.00  0.00     0.724 A 
HETATM    2  N2  UNL     1      22.652   2.503  49.148  1.00  0.00    -0.073 NA
HETATM    3  C6  UNL     1      23.815   2.851  49.768  1.00  0.00     0.172 A 
HETATM    4  C7  UNL     1      24.104   2.343  51.016  1.00  0.00     0.141 A 
HETATM    5  N3  UNL     1      25.108   2.434  51.933  1.00  0.00    -0.059 NA
HETATM    6  C8  UNL     1      24.798   1.661  53.018  1.00  0.00     0.710 A 
HETATM    7  N5  UNL     1      23.613   1.060  52.842  1.00  0.00    -0.154 N 
HETATM    8  C19 UNL     1      23.210   1.483  51.631  1.00  0.00     0.196 A 
HETATM    9  N6  UNL     1      22.094   1.190  50.958  1.00  0.00    -0.042 NA
ENDROOT
BRANCH   6  10
HETATM   10  N4  UNL     1      25.673   1.570  54.141  1.00  0.00    -0.183 N 
HETATM   11  H10 UNL     1      25.701   1.977  55.099  1.00  0.00     0.184 HD
BRANCH  10  12
HETATM   12  C9  UNL     1      26.777   0.712  53.885  1.00  0.00     0.126 A 
HETATM   13  C10 UNL     1      27.937   1.494  53.833  1.00  0.00     0.149 A 
HETATM   14  F1  UNL     1      28.030   2.857  53.996  1.00  0.00    -0.203 F 
HETATM   15  C11 UNL     1      29.174   0.921  53.594  1.00  0.00     0.087 A 
HETATM   16  C12 UNL     1      29.307  -0.458  53.399  1.00  0.00     0.122 A 
HETATM   17  F2  UNL     1      30.464  -1.113  53.162  1.00  0.00    -0.206 F 
HETATM   18  C13 UNL     1      28.144  -1.207  53.457  1.00  0.00     0.087 A 
HETATM   19  C14 UNL     1      26.911  -0.643  53.694  1.00  0.00     0.149 A 
HETATM   20  F3  UNL     1      25.714  -1.269  53.776  1.00  0.00    -0.203 F 
ENDBRANCH  10  12
ENDBRANCH   6  10
BRANCH   7  21
HETATM   21  C15 UNL     1      22.912   0.172  53.728  1.00  0.00     0.135 C 
HETATM   22  C16 UNL     1      21.448   0.614  53.889  1.00  0.00     0.055 C 
HETATM   23  C17 UNL     1      20.793  -0.728  54.145  1.00  0.00     0.169 C 
HETATM   24  O2  UNL     1      21.743  -1.715  53.972  1.00  0.00    -0.389 OA
HETATM   25  C18 UNL     1      22.673  -1.187  53.083  1.00  0.00     0.194 C 
ENDBRANCH   7  21
BRANCH   1  26
HETATM   26  N1  UNL     1      20.554   1.266  49.124  1.00  0.00    -0.218 N 
HETATM   27  H8  UNL     1      20.625   0.837  48.171  1.00  0.00     0.178 HD
BRANCH  26  28
HETATM   28  C4  UNL     1      19.261   1.418  49.715  1.00  0.00     0.099 C 
HETATM   29  C3  UNL     1      19.044   2.771  50.306  1.00  0.00     0.028 C 
HETATM   30  C2  UNL     1      17.898   2.781  51.302  1.00  0.00     0.034 C 
HETATM   31  C1  UNL     1      16.929   1.649  51.007  1.00  0.00     0.118 C 
HETATM   32  C21 UNL     1      17.629   0.338  51.248  1.00  0.00     0.034 C 
HETATM   33  C20 UNL     1      19.095   0.404  50.830  1.00  0.00     0.028 C 
BRANCH  31  34
HETATM   34  O1  UNL     1      15.841   1.702  51.859  1.00  0.00    -0.396 OA
HETATM   35  H1  UNL     1      16.114   1.794  52.823  1.00  0.00     0.210 HD
ENDBRANCH  31  34
ENDBRANCH  26  28
ENDBRANCH   1  26
TORSDOF 6
ENDMDL
MODEL 6
REMARK VINA RESULT:      -9.0      2.801      5.161
REMARK  6 active torsions:
REMARK  status: ('A' for Active; 'I' for Inactive)
REMARK    1  A    between atoms: O1_1  and  C1_2 
REMARK    2  A    between atoms: C4_5  and  N1_6 
REMARK    3  A    between atoms: N1_6  and  C5_7 
REMARK    4  A    between atoms: C8_12  and  N4_13 
REMARK    5  A    between atoms: N4_13  and  C9_14 
REMARK    6  A    between atoms: N5_23  and  C15_24 
ROOT
HETATM    1  C5  UNL     1      23.069   3.887  50.116  1.00  0.00     0.724 A 
HETATM    2  N2  UNL     1      24.360   4.280  50.059  1.00  0.00    -0.073 NA
HETATM    3  C6  UNL     1      25.339   3.547  50.662  1.00  0.00     0.172 A 
HETATM    4  C7  UNL     1      25.011   2.392  51.338  1.00  0.00     0.141 A 
HETATM    5  N3  UNL     1      25.656   1.418  52.040  1.00  0.00    -0.059 NA
HETATM    6  C8  UNL     1      24.742   0.500  52.480  1.00  0.00     0.710 A 
HETATM    7  N5  UNL     1      23.508   0.843  52.087  1.00  0.00    -0.154 N 
HETATM    8  C19 UNL     1      23.689   1.984  51.399  1.00  0.00     0.196 A 
HETATM    9  N6  UNL     1      22.790   2.756  50.783  1.00  0.00    -0.042 NA
ENDROOT
BRANCH   6  10
HETATM   10  N4  UNL     1      25.137  -0.632  53.252  1.00  0.00    -0.183 N 
HETATM   11  H10 UNL     1      24.664  -1.477  53.632  1.00  0.00     0.184 HD
BRANCH  10  12
HETATM   12  C9  UNL     1      26.520  -0.593  53.582  1.00  0.00     0.126 A 
HETATM   13  C10 UNL     1      27.185  -1.540  52.794  1.00  0.00     0.149 A 
HETATM   14  F1  UNL     1      26.632  -2.378  51.854  1.00  0.00    -0.203 F 
HETATM   15  C11 UNL     1      28.552  -1.725  52.904  1.00  0.00     0.087 A 
HETATM   16  C12 UNL     1      29.315  -0.972  53.804  1.00  0.00     0.122 A 
HETATM   17  F2  UNL     1      30.649  -1.075  53.987  1.00  0.00    -0.206 F 
HETATM   18  C13 UNL     1      28.631  -0.043  54.569  1.00  0.00     0.087 A 
HETATM   19  C14 UNL     1      27.271   0.146  54.465  1.00  0.00     0.149 A 
HETATM   20  F3  UNL     1      26.500   1.019  55.152  1.00  0.00    -0.203 F 
ENDBRANCH  10  12
ENDBRANCH   6  10
BRANCH   7  21
HETATM   21  C15 UNL     1      22.263   0.167  52.333  1.00  0.00     0.135 C 
HETATM   22  C16 UNL     1      21.469   0.884  53.437  1.00  0.00     0.055 C 
HETATM   23  C17 UNL     1      20.055   0.551  53.006  1.00  0.00     0.169 C 
HETATM   24  O2  UNL     1      20.114  -0.088  51.783  1.00  0.00    -0.389 OA
HETATM   25  C18 UNL     1      21.284   0.362  51.182  1.00  0.00     0.194 C 
ENDBRANCH   7  21
BRANCH   1  26
HETATM   26  N1  UNL     1      22.016   4.618  49.490  1.00  0.00    -0.218 N 
HETATM   27  H8  UNL     1      21.437   5.234  50.107  1.00  0.00     0.178 HD
BRANCH  26  28
HETATM   28  C4  UNL     1      21.707   4.558  48.095  1.00  0.00     0.099 C 
HETATM   29  C3  UNL     1      22.020   3.233  47.483  1.00  0.00     0.028 C 
HETATM   30  C2  UNL     1      22.125   3.314  45.971  1.00  0.00     0.034 C 
HETATM   31  C1  UNL     1      21.331   4.497  45.446  1.00  0.00     0.118 C 
HETATM   32  C21 UNL     1      21.972   5.767  45.939  1.00  0.00     0.034 C 
HETATM   33  C20 UNL     1      22.520   5.602  47.354  1.00  0.00     0.028 C 
BRANCH  31  34
HETATM   34  O1  UNL     1      21.356   4.528  44.064  1.00  0.00    -0.396 OA
HETATM   35  H1  UNL     1      21.117   5.435  43.698  1.00  0.00     0.210 HD
ENDBRANCH  31  34
ENDBRANCH  26  28
ENDBRANCH   1  26
TORSDOF 6
ENDMDL
MODEL 7
REMARK VINA RESULT:      -8.9      4.291      8.741
REMARK  6 active torsions:
REMARK  status: ('A' for Active; 'I' for Inactive)
REMARK    1  A    between atoms: O1_1  and  C1_2 
REMARK    2  A    between atoms: C4_5  and  N1_6 
REMARK    3  A    between atoms: N1_6  and  C5_7 
REMARK    4  A    between atoms: C8_12  and  N4_13 
REMARK    5  A    between atoms: N4_13  and  C9_14 
REMARK    6  A    between atoms: N5_23  and  C15_24 
ROOT
HETATM    1  C5  UNL     1      22.342  -0.542  53.167  1.00  0.00     0.724 A 
HETATM    2  N2  UNL     1      21.489  -1.155  54.016  1.00  0.00    -0.073 NA
HETATM    3  C6  UNL     1      20.140  -1.046  53.848  1.00  0.00     0.172 A 
HETATM    4  C7  UNL     1      19.638  -0.302  52.803  1.00  0.00     0.141 A 
HETATM    5  N3  UNL     1      18.416   0.040  52.306  1.00  0.00    -0.059 NA
HETATM    6  C8  UNL     1      18.585   0.830  51.202  1.00  0.00     0.710 A 
HETATM    7  N5  UNL     1      19.889   1.018  50.955  1.00  0.00    -0.154 N 
HETATM    8  C19 UNL     1      20.508   0.329  51.929  1.00  0.00     0.196 A 
HETATM    9  N6  UNL     1      21.814   0.173  52.160  1.00  0.00    -0.042 NA
ENDROOT
BRANCH   6  10
HETATM   10  N4  UNL     1      17.469   1.343  50.477  1.00  0.00    -0.183 N 
HETATM   11  H10 UNL     1      17.169   1.355  49.480  1.00  0.00     0.184 HD
BRANCH  10  12
HETATM   12  C9  UNL     1      16.540   2.001  51.329  1.00  0.00     0.126 A 
HETATM   13  C10 UNL     1      16.927   3.341  51.447  1.00  0.00     0.149 A 
HETATM   14  F1  UNL     1      18.009   3.951  50.855  1.00  0.00    -0.203 F 
HETATM   15  C11 UNL     1      16.201   4.227  52.224  1.00  0.00     0.087 A 
HETATM   16  C12 UNL     1      15.057   3.814  52.916  1.00  0.00     0.122 A 
HETATM   17  F2  UNL     1      14.282   4.597  53.697  1.00  0.00    -0.206 F 
HETATM   18  C13 UNL     1      14.698   2.485  52.780  1.00  0.00     0.087 A 
HETATM   19  C14 UNL     1      15.415   1.598  52.010  1.00  0.00     0.149 A 
HETATM   20  F3  UNL     1      15.162   0.285  51.800  1.00  0.00    -0.203 F 
ENDBRANCH  10  12
ENDBRANCH   6  10
BRANCH   7  21
HETATM   21  C15 UNL     1      20.507   1.780  49.904  1.00  0.00     0.135 C 
HETATM   22  C16 UNL     1      21.628   2.667  50.468  1.00  0.00     0.055 C 
HETATM   23  C17 UNL     1      22.548   2.729  49.266  1.00  0.00     0.169 C 
HETATM   24  O2  UNL     1      22.058   1.870  48.301  1.00  0.00    -0.389 OA
HETATM   25  C18 UNL     1      21.349   0.895  48.995  1.00  0.00     0.194 C 
ENDBRANCH   7  21
BRANCH   1  26
HETATM   26  N1  UNL     1      23.759  -0.639  53.299  1.00  0.00    -0.218 N 
HETATM   27  H8  UNL     1      24.126  -1.420  53.893  1.00  0.00     0.178 HD
BRANCH  26  28
HETATM   28  C4  UNL     1      24.693   0.252  52.683  1.00  0.00     0.099 C 
HETATM   29  C3  UNL     1      26.102  -0.235  52.758  1.00  0.00     0.028 C 
HETATM   30  C2  UNL     1      27.103   0.883  52.530  1.00  0.00     0.034 C 
HETATM   31  C1  UNL     1      26.473   2.005  51.724  1.00  0.00     0.118 C 
HETATM   32  C21 UNL     1      25.381   2.637  52.546  1.00  0.00     0.034 C 
HETATM   33  C20 UNL     1      24.640   1.597  53.382  1.00  0.00     0.028 C 
BRANCH  31  34
HETATM   34  O1  UNL     1      27.404   2.988  51.442  1.00  0.00    -0.396 OA
HETATM   35  H1  UNL     1      28.070   3.108  52.187  1.00  0.00     0.210 HD
ENDBRANCH  31  34
ENDBRANCH  26  28
ENDBRANCH   1  26
TORSDOF 6
ENDMDL
MODEL 8
REMARK VINA RESULT:      -8.9      3.925      8.907
REMARK  6 active torsions:
REMARK  status: ('A' for Active; 'I' for Inactive)
REMARK    1  A    between atoms: O1_1  and  C1_2 
REMARK    2  A    between atoms: C4_5  and  N1_6 
REMARK    3  A    between atoms: N1_6  and  C5_7 
REMARK    4  A    between atoms: C8_12  and  N4_13 
REMARK    5  A    between atoms: N4_13  and  C9_14 
REMARK    6  A    between atoms: N5_23  and  C15_24 
ROOT
HETATM    1  C5  UNL     1      25.076   2.460  52.433  1.00  0.00     0.724 A 
HETATM    2  N2  UNL     1      25.257   3.213  51.327  1.00  0.00    -0.073 NA
HETATM    3  C6  UNL     1      24.361   3.172  50.300  1.00  0.00     0.172 A 
HETATM    4  C7  UNL     1      23.256   2.353  50.389  1.00  0.00     0.141 A 
HETATM    5  N3  UNL     1      22.174   2.036  49.624  1.00  0.00    -0.059 NA
HETATM    6  C8  UNL     1      21.404   1.123  50.291  1.00  0.00     0.710 A 
HETATM    7  N5  UNL     1      21.951   0.827  51.478  1.00  0.00    -0.154 N 
HETATM    8  C19 UNL     1      23.065   1.578  51.520  1.00  0.00     0.196 A 
HETATM    9  N6  UNL     1      23.987   1.675  52.481  1.00  0.00    -0.042 NA
ENDROOT
BRANCH   6  10
HETATM   10  N4  UNL     1      20.203   0.605  49.722  1.00  0.00    -0.183 N 
HETATM   11  H10 UNL     1      19.952  -0.207  49.121  1.00  0.00     0.184 HD
BRANCH  10  12
HETATM   12  C9  UNL     1      19.072   1.398  50.059  1.00  0.00     0.126 A 
HETATM   13  C10 UNL     1      18.259   0.655  50.923  1.00  0.00     0.149 A 
HETATM   14  F1  UNL     1      18.483  -0.620  51.388  1.00  0.00    -0.203 F 
HETATM   15  C11 UNL     1      17.076   1.179  51.417  1.00  0.00     0.087 A 
HETATM   16  C12 UNL     1      16.656   2.468  51.070  1.00  0.00     0.122 A 
HETATM   17  F2  UNL     1      15.524   3.070  51.496  1.00  0.00    -0.206 F 
HETATM   18  C13 UNL     1      17.479   3.179  50.215  1.00  0.00     0.087 A 
HETATM   19  C14 UNL     1      18.656   2.664  49.720  1.00  0.00     0.149 A 
HETATM   20  F3  UNL     1      19.538   3.261  48.886  1.00  0.00    -0.203 F 
ENDBRANCH  10  12
ENDBRANCH   6  10
BRANCH   7  21
HETATM   21  C15 UNL     1      21.478  -0.081  52.488  1.00  0.00     0.135 C 
HETATM   22  C16 UNL     1      22.654  -0.841  53.123  1.00  0.00     0.055 C 
HETATM   23  C17 UNL     1      22.097  -1.077  54.512  1.00  0.00     0.169 C 
HETATM   24  O2  UNL     1      20.900  -0.396  54.621  1.00  0.00    -0.389 OA
HETATM   25  C18 UNL     1      20.990   0.663  53.723  1.00  0.00     0.194 C 
ENDBRANCH   7  21
BRANCH   1  26
HETATM   26  N1  UNL     1      25.983   2.481  53.534  1.00  0.00    -0.218 N 
HETATM   27  H8  UNL     1      25.884   3.273  54.212  1.00  0.00     0.178 HD
BRANCH  26  28
HETATM   28  C4  UNL     1      27.004   1.506  53.761  1.00  0.00     0.099 C 
HETATM   29  C3  UNL     1      28.379   2.086  53.750  1.00  0.00     0.028 C 
HETATM   30  C2  UNL     1      29.443   1.025  53.534  1.00  0.00     0.034 C 
HETATM   31  C1  UNL     1      28.933  -0.336  53.974  1.00  0.00     0.118 C 
HETATM   32  C21 UNL     1      27.801  -0.745  53.069  1.00  0.00     0.034 C 
HETATM   33  C20 UNL     1      26.946   0.455  52.670  1.00  0.00     0.028 C 
BRANCH  31  34
HETATM   34  O1  UNL     1      29.925  -1.292  53.857  1.00  0.00    -0.396 OA
HETATM   35  H1  UNL     1      29.558  -2.196  53.609  1.00  0.00     0.210 HD
ENDBRANCH  31  34
ENDBRANCH  26  28
ENDBRANCH   1  26
TORSDOF 6
ENDMDL
MODEL 9
REMARK VINA RESULT:      -8.8      4.545      8.695
REMARK  6 active torsions:
REMARK  status: ('A' for Active; 'I' for Inactive)
REMARK    1  A    between atoms: O1_1  and  C1_2 
REMARK    2  A    between atoms: C4_5  and  N1_6 
REMARK    3  A    between atoms: N1_6  and  C5_7 
REMARK    4  A    between atoms: C8_12  and  N4_13 
REMARK    5  A    between atoms: N4_13  and  C9_14 
REMARK    6  A    between atoms: N5_23  and  C15_24 
ROOT
HETATM    1  C5  UNL     1      25.883   2.072  52.286  1.00  0.00     0.724 A 
HETATM    2  N2  UNL     1      26.880   2.559  51.516  1.00  0.00    -0.073 NA
HETATM    3  C6  UNL     1      26.604   3.289  50.398  1.00  0.00     0.172 A 
HETATM    4  C7  UNL     1      25.295   3.534  50.047  1.00  0.00     0.141 A 
HETATM    5  N3  UNL     1      24.623   4.188  49.058  1.00  0.00    -0.059 NA
HETATM    6  C8  UNL     1      23.277   4.067  49.272  1.00  0.00     0.710 A 
HETATM    7  N5  UNL     1      23.042   3.348  50.379  1.00  0.00    -0.154 N 
HETATM    8  C19 UNL     1      24.268   3.037  50.832  1.00  0.00     0.196 A 
HETATM    9  N6  UNL     1      24.621   2.332  51.911  1.00  0.00    -0.042 NA
ENDROOT
BRANCH   6  10
HETATM   10  N4  UNL     1      22.327   4.652  48.384  1.00  0.00    -0.183 N 
HETATM   11  H10 UNL     1      21.869   4.372  47.491  1.00  0.00     0.184 HD
BRANCH  10  12
HETATM   12  C9  UNL     1      21.903   5.933  48.830  1.00  0.00     0.126 A 
HETATM   13  C10 UNL     1      20.548   5.850  49.175  1.00  0.00     0.149 A 
HETATM   14  F1  UNL     1      19.738   4.740  49.109  1.00  0.00    -0.203 F 
HETATM   15  C11 UNL     1      19.863   6.958  49.645  1.00  0.00     0.087 A 
HETATM   16  C12 UNL     1      20.500   8.194  49.791  1.00  0.00     0.122 A 
HETATM   17  F2  UNL     1      19.924   9.331  50.240  1.00  0.00    -0.206 F 
HETATM   18  C13 UNL     1      21.839   8.247  49.444  1.00  0.00     0.087 A 
HETATM   19  C14 UNL     1      22.526   7.150  48.976  1.00  0.00     0.149 A 
HETATM   20  F3  UNL     1      23.827   7.079  48.610  1.00  0.00    -0.203 F 
ENDBRANCH  10  12
ENDBRANCH   6  10
BRANCH   7  21
HETATM   21  C15 UNL     1      21.781   2.979  50.963  1.00  0.00     0.135 C 
HETATM   22  C16 UNL     1      21.877   1.594  51.623  1.00  0.00     0.055 C 
HETATM   23  C17 UNL     1      20.851   1.754  52.726  1.00  0.00     0.169 C 
HETATM   24  O2  UNL     1      20.425   3.068  52.734  1.00  0.00    -0.389 OA
HETATM   25  C18 UNL     1      21.479   3.806  52.206  1.00  0.00     0.194 C 
ENDBRANCH   7  21
BRANCH   1  26
HETATM   26  N1  UNL     1      26.128   1.313  53.469  1.00  0.00    -0.218 N 
HETATM   27  H8  UNL     1      25.829   1.743  54.376  1.00  0.00     0.178 HD
BRANCH  26  28
HETATM   28  C4  UNL     1      26.751   0.026  53.492  1.00  0.00     0.099 C 
HETATM   29  C3  UNL     1      28.226   0.094  53.705  1.00  0.00     0.028 C 
HETATM   30  C2  UNL     1      28.923  -1.186  53.280  1.00  0.00     0.034 C 
HETATM   31  C1  UNL     1      27.957  -2.357  53.325  1.00  0.00     0.118 C 
HETATM   32  C21 UNL     1      26.889  -2.143  52.285  1.00  0.00     0.034 C 
HETATM   33  C20 UNL     1      26.517  -0.668  52.164  1.00  0.00     0.028 C 
BRANCH  31  34
HETATM   34  O1  UNL     1      28.606  -3.539  53.019  1.00  0.00    -0.396 OA
HETATM   35  H1  UNL     1      29.218  -3.842  53.759  1.00  0.00     0.210 HD
ENDBRANCH  31  34
ENDBRANCH  26  28
ENDBRANCH   1  26
TORSDOF 6
ENDMDL
