MODEL 1
REMARK VINA RESULT:      -7.7      0.000      0.000
REMARK  2 active torsions:
REMARK  status: ('A' for Active; 'I' for Inactive)
REMARK    1  A    between atoms: O1_2  and  C2_3 
REMARK    2  A    between atoms: C6_9  and  N3_10 
ROOT
HETATM    1  C2  UNL     1      26.430   0.487  52.874  1.00  0.00     0.076 A 
HETATM    2  C3  UNL     1      27.042   1.403  52.020  1.00  0.00     0.070 A 
HETATM    3  C4  UNL     1      26.266   2.284  51.296  1.00  0.00     0.074 A 
HETATM    4  N1  UNL     1      26.785   3.192  50.455  1.00  0.00    -0.241 NA
HETATM    5  C5  UNL     1      25.983   4.031  49.768  1.00  0.00     0.236 A 
HETATM    6  N2  UNL     1      24.648   3.966  49.921  1.00  0.00    -0.224 NA
HETATM    7  C6  UNL     1      24.048   3.095  50.735  1.00  0.00     0.140 A 
HETATM    8  C13 UNL     1      24.875   2.242  51.432  1.00  0.00     0.039 A 
HETATM    9  C14 UNL     1      24.285   1.328  52.282  1.00  0.00     0.027 A 
HETATM   10  C15 UNL     1      25.050   0.435  53.018  1.00  0.00    -0.028 A 
HETATM   11  C16 UNL     1      24.381  -0.530  53.920  1.00  0.00     0.051 C 
ENDROOT
BRANCH   7  12
HETATM   12  N3  UNL     1      22.644   3.120  50.812  1.00  0.00    -0.355 N 
HETATM   13  C7  UNL     1      21.862   3.413  51.993  1.00  0.00     0.153 C 
HETATM   14  C8  UNL     1      20.996   2.232  52.334  1.00  0.00     0.012 C 
HETATM   15  C9  UNL     1      20.617   1.090  51.774  1.00  0.00     0.011 C 
HETATM   16 BR1  UNL     1      19.447  -0.084  52.712  1.00  0.00    -0.051 Br
HETATM   17  C10 UNL     1      21.075   0.702  50.445  1.00  0.00     0.058 C 
HETATM   18  C11 UNL     1      21.680   1.374  49.474  1.00  0.00     0.113 C 
HETATM   19  F1  UNL     1      21.941   0.630  48.371  1.00  0.00    -0.209 F 
HETATM   20  C12 UNL     1      22.064   2.809  49.519  1.00  0.00     0.195 C 
ENDBRANCH   7  12
BRANCH   1  21
HETATM   21  O1  UNL     1      27.143  -0.425  53.632  1.00  0.00    -0.355 OA
HETATM   22  C1  UNL     1      28.259  -0.132  54.411  1.00  0.00     0.210 C 
ENDBRANCH   1  21
TORSDOF 2
ENDMDL
MODEL 2
REMARK VINA RESULT:      -7.6      2.911      4.357
REMARK  2 active torsions:
REMARK  status: ('A' for Active; 'I' for Inactive)
REMARK    1  A    between atoms: O1_2  and  C2_3 
REMARK    2  A    between atoms: C6_9  and  N3_10 
ROOT
HETATM    1  C2  UNL     1      26.202  -0.129  53.627  1.00  0.00     0.076 A 
HETATM    2  C3  UNL     1      25.069  -0.708  54.196  1.00  0.00     0.070 A 
HETATM    3  C4  UNL     1      23.817  -0.300  53.787  1.00  0.00     0.074 A 
HETATM    4  N1  UNL     1      22.682  -0.811  54.290  1.00  0.00    -0.241 NA
HETATM    5  C5  UNL     1      21.481  -0.377  53.857  1.00  0.00     0.236 A 
HETATM    6  N2  UNL     1      21.408   0.578  52.912  1.00  0.00    -0.224 NA
HETATM    7  C6  UNL     1      22.484   1.140  52.358  1.00  0.00     0.140 A 
HETATM    8  C13 UNL     1      23.706   0.691  52.806  1.00  0.00     0.039 A 
HETATM    9  C14 UNL     1      24.839   1.254  52.254  1.00  0.00     0.027 A 
HETATM   10  C15 UNL     1      26.107   0.855  52.653  1.00  0.00    -0.028 A 
HETATM   11  C16 UNL     1      27.298   1.481  52.037  1.00  0.00     0.051 C 
ENDROOT
BRANCH   7  12
HETATM   12  N3  UNL     1      22.283   2.130  51.379  1.00  0.00    -0.355 N 
HETATM   13  C7  UNL     1      22.593   2.009  49.972  1.00  0.00     0.153 C 
HETATM   14  C8  UNL     1      23.602   3.053  49.581  1.00  0.00     0.012 C 
HETATM   15  C9  UNL     1      24.145   4.145  50.104  1.00  0.00     0.011 C 
HETATM   16 BR1  UNL     1      25.440   5.129  49.110  1.00  0.00    -0.051 Br
HETATM   17  C10 UNL     1      23.778   4.622  51.432  1.00  0.00     0.058 C 
HETATM   18  C11 UNL     1      22.780   4.313  52.250  1.00  0.00     0.113 C 
HETATM   19  F1  UNL     1      22.796   4.999  53.420  1.00  0.00    -0.209 F 
HETATM   20  C12 UNL     1      21.708   3.320  51.977  1.00  0.00     0.195 C 
ENDBRANCH   7  12
BRANCH   1  21
HETATM   21  O1  UNL     1      27.489  -0.490  53.987  1.00  0.00    -0.355 OA
HETATM   22  C1  UNL     1      28.216   0.053  55.043  1.00  0.00     0.210 C 
ENDBRANCH   1  21
TORSDOF 2
ENDMDL
MODEL 3
REMARK VINA RESULT:      -7.4      4.171      6.882
REMARK  2 active torsions:
REMARK  status: ('A' for Active; 'I' for Inactive)
REMARK    1  A    between atoms: O1_2  and  C2_3 
REMARK    2  A    between atoms: C6_9  and  N3_10 
ROOT
HETATM    1  C2  UNL     1      20.023  -0.010  52.161  1.00  0.00     0.076 A 
HETATM    2  C3  UNL     1      20.216  -0.517  53.445  1.00  0.00     0.070 A 
HETATM    3  C4  UNL     1      21.497  -0.709  53.917  1.00  0.00     0.074 A 
HETATM    4  N1  UNL     1      21.760  -1.193  55.141  1.00  0.00    -0.241 NA
HETATM    5  C5  UNL     1      23.032  -1.363  55.555  1.00  0.00     0.236 A 
HETATM    6  N2  UNL     1      24.055  -1.047  54.742  1.00  0.00    -0.224 NA
HETATM    7  C6  UNL     1      23.886  -0.560  53.511  1.00  0.00     0.140 A 
HETATM    8  C13 UNL     1      22.584  -0.390  53.096  1.00  0.00     0.039 A 
HETATM    9  C14 UNL     1      22.374   0.111  51.827  1.00  0.00     0.027 A 
HETATM   10  C15 UNL     1      21.092   0.311  51.336  1.00  0.00    -0.028 A 
HETATM   11  C16 UNL     1      20.908   0.851  49.970  1.00  0.00     0.051 C 
ENDROOT
BRANCH   7  12
HETATM   12  N3  UNL     1      25.033  -0.266  52.752  1.00  0.00    -0.355 N 
HETATM   13  C7  UNL     1      25.933  -1.232  52.163  1.00  0.00     0.153 C 
HETATM   14  C8  UNL     1      27.315  -1.048  52.725  1.00  0.00     0.012 C 
HETATM   15  C9  UNL     1      27.973  -0.158  53.458  1.00  0.00     0.011 C 
HETATM   16 BR1  UNL     1      29.805  -0.454  53.891  1.00  0.00    -0.051 Br
HETATM   17  C10 UNL     1      27.329   1.054  53.948  1.00  0.00     0.058 C 
HETATM   18  C11 UNL     1      26.183   1.647  53.639  1.00  0.00     0.113 C 
HETATM   19  F1  UNL     1      25.946   2.784  54.340  1.00  0.00    -0.209 F 
HETATM   20  C12 UNL     1      25.201   1.170  52.630  1.00  0.00     0.195 C 
ENDBRANCH   7  12
BRANCH   1  21
HETATM   21  O1  UNL     1      18.767   0.210  51.622  1.00  0.00    -0.355 OA
HETATM   22  C1  UNL     1      18.082   1.422  51.635  1.00  0.00     0.210 C 
ENDBRANCH   1  21
TORSDOF 2
ENDMDL
MODEL 4
REMARK VINA RESULT:      -7.4      2.378      3.501
REMARK  2 active torsions:
REMARK  status: ('A' for Active; 'I' for Inactive)
REMARK    1  A    between atoms: O1_2  and  C2_3 
REMARK    2  A    between atoms: C6_9  and  N3_10 
ROOT
HETATM    1  C2  UNL     1      27.340   0.374  54.088  1.00  0.00     0.076 A 
HETATM    2  C3  UNL     1      26.163  -0.373  54.060  1.00  0.00     0.070 A 
HETATM    3  C4  UNL     1      25.019   0.178  53.522  1.00  0.00     0.074 A 
HETATM    4  N1  UNL     1      23.850  -0.480  53.461  1.00  0.00    -0.241 NA
HETATM    5  C5  UNL     1      22.759   0.104  52.925  1.00  0.00     0.236 A 
HETATM    6  N2  UNL     1      22.832   1.358  52.443  1.00  0.00    -0.224 NA
HETATM    7  C6  UNL     1      23.952   2.084  52.462  1.00  0.00     0.140 A 
HETATM    8  C13 UNL     1      25.061   1.480  53.012  1.00  0.00     0.039 A 
HETATM    9  C14 UNL     1      26.235   2.205  53.048  1.00  0.00     0.027 A 
HETATM   10  C15 UNL     1      27.395   1.666  53.586  1.00  0.00    -0.028 A 
HETATM   11  C16 UNL     1      28.635   2.475  53.606  1.00  0.00     0.051 C 
ENDROOT
BRANCH   7  12
HETATM   12  N3  UNL     1      23.906   3.384  51.929  1.00  0.00    -0.355 N 
HETATM   13  C7  UNL     1      23.345   4.550  52.577  1.00  0.00     0.153 C 
HETATM   14  C8  UNL     1      22.221   5.102  51.745  1.00  0.00     0.012 C 
HETATM   15  C9  UNL     1      21.722   4.938  50.526  1.00  0.00     0.011 C 
HETATM   16 BR1  UNL     1      20.207   5.956  49.978  1.00  0.00    -0.051 Br
HETATM   17  C10 UNL     1      22.303   3.992  49.582  1.00  0.00     0.058 C 
HETATM   18  C11 UNL     1      23.453   3.330  49.571  1.00  0.00     0.113 C 
HETATM   19  F1  UNL     1      23.616   2.530  48.488  1.00  0.00    -0.209 F 
HETATM   20  C12 UNL     1      24.512   3.409  50.611  1.00  0.00     0.195 C 
ENDBRANCH   7  12
BRANCH   1  21
HETATM   21  O1  UNL     1      28.525  -0.114  54.612  1.00  0.00    -0.355 OA
HETATM   22  C1  UNL     1      29.439  -0.915  53.934  1.00  0.00     0.210 C 
ENDBRANCH   1  21
TORSDOF 2
ENDMDL
MODEL 5
REMARK VINA RESULT:      -7.0      2.022      2.491
REMARK  2 active torsions:
REMARK  status: ('A' for Active; 'I' for Inactive)
REMARK    1  A    between atoms: O1_2  and  C2_3 
REMARK    2  A    between atoms: C6_9  and  N3_10 
ROOT
HETATM    1  C2  UNL     1      26.968   0.385  53.426  1.00  0.00     0.076 A 
HETATM    2  C3  UNL     1      27.434   1.337  52.522  1.00  0.00     0.070 A 
HETATM    3  C4  UNL     1      26.538   2.015  51.723  1.00  0.00     0.074 A 
HETATM    4  N1  UNL     1      26.914   2.944  50.830  1.00  0.00    -0.241 NA
HETATM    5  C5  UNL     1      25.997   3.580  50.071  1.00  0.00     0.236 A 
HETATM    6  N2  UNL     1      24.691   3.287  50.203  1.00  0.00    -0.224 NA
HETATM    7  C6  UNL     1      24.229   2.379  51.065  1.00  0.00     0.140 A 
HETATM    8  C13 UNL     1      25.172   1.735  51.836  1.00  0.00     0.039 A 
HETATM    9  C14 UNL     1      24.728   0.788  52.737  1.00  0.00     0.027 A 
HETATM   10  C15 UNL     1      25.615   0.097  53.548  1.00  0.00    -0.028 A 
HETATM   11  C16 UNL     1      25.100  -0.910  54.503  1.00  0.00     0.051 C 
ENDROOT
BRANCH   7  12
HETATM   12  N3  UNL     1      22.842   2.158  51.114  1.00  0.00    -0.355 N 
HETATM   13  C7  UNL     1      22.105   1.198  50.322  1.00  0.00     0.153 C 
HETATM   14  C8  UNL     1      21.088   1.911  49.475  1.00  0.00     0.012 C 
HETATM   15  C9  UNL     1      20.560   3.125  49.378  1.00  0.00     0.011 C 
HETATM   16 BR1  UNL     1      19.242   3.482  48.048  1.00  0.00    -0.051 Br
HETATM   17  C10 UNL     1      20.963   4.207  50.267  1.00  0.00     0.058 C 
HETATM   18  C11 UNL     1      21.653   4.225  51.400  1.00  0.00     0.113 C 
HETATM   19  F1  UNL     1      21.813   5.466  51.926  1.00  0.00    -0.209 F 
HETATM   20  C12 UNL     1      22.226   3.039  52.089  1.00  0.00     0.195 C 
ENDBRANCH   7  12
BRANCH   1  21
HETATM   21  O1  UNL     1      27.808  -0.333  54.260  1.00  0.00    -0.355 OA
HETATM   22  C1  UNL     1      29.079  -0.792  53.926  1.00  0.00     0.210 C 
ENDBRANCH   1  21
TORSDOF 2
ENDMDL
MODEL 6
REMARK VINA RESULT:      -6.9      2.158      3.193
REMARK  2 active torsions:
REMARK  status: ('A' for Active; 'I' for Inactive)
REMARK    1  A    between atoms: O1_2  and  C2_3 
REMARK    2  A    between atoms: C6_9  and  N3_10 
ROOT
HETATM    1  C2  UNL     1      23.068  -0.223  53.375  1.00  0.00     0.076 A 
HETATM    2  C3  UNL     1      24.457  -0.216  53.264  1.00  0.00     0.070 A 
HETATM    3  C4  UNL     1      25.081   0.805  52.578  1.00  0.00     0.074 A 
HETATM    4  N1  UNL     1      26.413   0.876  52.429  1.00  0.00    -0.241 NA
HETATM    5  C5  UNL     1      26.975   1.896  51.748  1.00  0.00     0.236 A 
HETATM    6  N2  UNL     1      26.202   2.857  51.210  1.00  0.00    -0.224 NA
HETATM    7  C6  UNL     1      24.871   2.864  51.310  1.00  0.00     0.140 A 
HETATM    8  C13 UNL     1      24.306   1.819  52.006  1.00  0.00     0.039 A 
HETATM    9  C14 UNL     1      22.931   1.796  52.126  1.00  0.00     0.027 A 
HETATM   10  C15 UNL     1      22.287   0.777  52.813  1.00  0.00    -0.028 A 
HETATM   11  C16 UNL     1      20.810   0.789  52.921  1.00  0.00     0.051 C 
ENDROOT
BRANCH   7  12
HETATM   12  N3  UNL     1      24.168   3.921  50.704  1.00  0.00    -0.355 N 
HETATM   13  C7  UNL     1      23.479   4.989  51.394  1.00  0.00     0.153 C 
HETATM   14  C8  UNL     1      22.018   4.962  51.041  1.00  0.00     0.012 C 
HETATM   15  C9  UNL     1      21.226   4.366  50.159  1.00  0.00     0.011 C 
HETATM   16 BR1  UNL     1      19.354   4.723  50.172  1.00  0.00    -0.051 Br
HETATM   17  C10 UNL     1      21.749   3.433  49.169  1.00  0.00     0.058 C 
HETATM   18  C11 UNL     1      22.982   3.161  48.759  1.00  0.00     0.113 C 
HETATM   19  F1  UNL     1      23.042   2.206  47.798  1.00  0.00    -0.209 F 
HETATM   20  C12 UNL     1      24.226   3.801  49.260  1.00  0.00     0.195 C 
ENDBRANCH   7  12
BRANCH   1  21
HETATM   21  O1  UNL     1      22.374  -1.213  54.049  1.00  0.00    -0.355 OA
HETATM   22  C1  UNL     1      22.657  -1.668  55.334  1.00  0.00     0.210 C 
ENDBRANCH   1  21
TORSDOF 2
ENDMDL
MODEL 7
REMARK VINA RESULT:      -6.8      2.163      3.363
REMARK  2 active torsions:
REMARK  status: ('A' for Active; 'I' for Inactive)
REMARK    1  A    between atoms: O1_2  and  C2_3 
REMARK    2  A    between atoms: C6_9  and  N3_10 
ROOT
HETATM    1  C2  UNL     1      26.151   0.254  53.053  1.00  0.00     0.076 A 
HETATM    2  C3  UNL     1      25.191  -0.518  53.706  1.00  0.00     0.070 A 
HETATM    3  C4  UNL     1      23.856  -0.200  53.574  1.00  0.00     0.074 A 
HETATM    4  N1  UNL     1      22.877  -0.897  54.173  1.00  0.00    -0.241 NA
HETATM    5  C5  UNL     1      21.585  -0.545  54.012  1.00  0.00     0.236 A 
HETATM    6  N2  UNL     1      21.263   0.512  53.246  1.00  0.00    -0.224 NA
HETATM    7  C6  UNL     1      22.170   1.260  52.614  1.00  0.00     0.140 A 
HETATM    8  C13 UNL     1      23.487   0.893  52.784  1.00  0.00     0.039 A 
HETATM    9  C14 UNL     1      24.451   1.647  52.145  1.00  0.00     0.027 A 
HETATM   10  C15 UNL     1      25.798   1.342  52.266  1.00  0.00    -0.028 A 
HETATM   11  C16 UNL     1      26.803   2.173  51.564  1.00  0.00     0.051 C 
ENDROOT
BRANCH   7  12
HETATM   12  N3  UNL     1      21.714   2.342  51.841  1.00  0.00    -0.355 N 
HETATM   13  C7  UNL     1      20.968   3.481  52.329  1.00  0.00     0.153 C 
HETATM   14  C8  UNL     1      19.633   3.547  51.642  1.00  0.00     0.012 C 
HETATM   15  C9  UNL     1      19.024   2.977  50.609  1.00  0.00     0.011 C 
HETATM   16 BR1  UNL     1      17.235   3.468  50.174  1.00  0.00    -0.051 Br
HETATM   17  C10 UNL     1      19.690   1.974  49.788  1.00  0.00     0.058 C 
HETATM   18  C11 UNL     1      20.959   1.599  49.685  1.00  0.00     0.113 C 
HETATM   19  F1  UNL     1      21.167   0.607  48.783  1.00  0.00    -0.209 F 
HETATM   20  C12 UNL     1      22.098   2.166  50.453  1.00  0.00     0.195 C 
ENDBRANCH   7  12
BRANCH   1  21
HETATM   21  O1  UNL     1      27.508  -0.006  53.139  1.00  0.00    -0.355 OA
HETATM   22  C1  UNL     1      28.254  -0.029  54.314  1.00  0.00     0.210 C 
ENDBRANCH   1  21
TORSDOF 2
ENDMDL
MODEL 8
REMARK VINA RESULT:      -6.7      3.716      5.718
REMARK  2 active torsions:
REMARK  status: ('A' for Active; 'I' for Inactive)
REMARK    1  A    between atoms: O1_2  and  C2_3 
REMARK    2  A    between atoms: C6_9  and  N3_10 
ROOT
HETATM    1  C2  UNL     1      27.317   7.497  48.979  1.00  0.00     0.076 A 
HETATM    2  C3  UNL     1      26.202   8.079  49.580  1.00  0.00     0.070 A 
HETATM    3  C4  UNL     1      25.185   7.277  50.053  1.00  0.00     0.074 A 
HETATM    4  N1  UNL     1      24.082   7.767  50.641  1.00  0.00    -0.241 NA
HETATM    5  C5  UNL     1      23.115   6.939  51.087  1.00  0.00     0.236 A 
HETATM    6  N2  UNL     1      23.247   5.608  50.945  1.00  0.00    -0.224 NA
HETATM    7  C6  UNL     1      24.308   5.036  50.372  1.00  0.00     0.140 A 
HETATM    8  C13 UNL     1      25.291   5.889  49.920  1.00  0.00     0.039 A 
HETATM    9  C14 UNL     1      26.402   5.329  49.322  1.00  0.00     0.027 A 
HETATM   10  C15 UNL     1      27.434   6.120  48.842  1.00  0.00    -0.028 A 
HETATM   11  C16 UNL     1      28.610   5.483  48.208  1.00  0.00     0.051 C 
ENDROOT
BRANCH   7  12
HETATM   12  N3  UNL     1      24.334   3.633  50.279  1.00  0.00    -0.355 N 
HETATM   13  C7  UNL     1      23.585   2.829  49.339  1.00  0.00     0.153 C 
HETATM   14  C8  UNL     1      22.668   1.899  50.083  1.00  0.00     0.012 C 
HETATM   15  C9  UNL     1      22.480   1.485  51.330  1.00  0.00     0.011 C 
HETATM   16 BR1  UNL     1      21.097   0.233  51.716  1.00  0.00    -0.051 Br
HETATM   17  C10 UNL     1      23.310   1.965  52.428  1.00  0.00     0.058 C 
HETATM   18  C11 UNL     1      24.458   2.630  52.459  1.00  0.00     0.113 C 
HETATM   19  F1  UNL     1      24.909   2.891  53.711  1.00  0.00    -0.209 F 
HETATM   20  C12 UNL     1      25.234   3.080  51.273  1.00  0.00     0.195 C 
ENDBRANCH   7  12
BRANCH   1  21
HETATM   21  O1  UNL     1      28.375   8.238  48.483  1.00  0.00    -0.355 OA
HETATM   22  C1  UNL     1      29.087   9.204  49.189  1.00  0.00     0.210 C 
ENDBRANCH   1  21
TORSDOF 2
ENDMDL
MODEL 9
REMARK VINA RESULT:      -6.7      3.251      5.314
REMARK  2 active torsions:
REMARK  status: ('A' for Active; 'I' for Inactive)
REMARK    1  A    between atoms: O1_2  and  C2_3 
REMARK    2  A    between atoms: C6_9  and  N3_10 
ROOT
HETATM    1  C2  UNL     1      19.794   0.270  52.621  1.00  0.00     0.076 A 
HETATM    2  C3  UNL     1      20.825  -0.558  53.061  1.00  0.00     0.070 A 
HETATM    3  C4  UNL     1      22.121  -0.087  53.070  1.00  0.00     0.074 A 
HETATM    4  N1  UNL     1      23.164  -0.827  53.479  1.00  0.00    -0.241 NA
HETATM    5  C5  UNL     1      24.414  -0.319  53.469  1.00  0.00     0.236 A 
HETATM    6  N2  UNL     1      24.628   0.940  53.046  1.00  0.00    -0.224 NA
HETATM    7  C6  UNL     1      23.651   1.744  52.623  1.00  0.00     0.140 A 
HETATM    8  C13 UNL     1      22.378   1.218  52.637  1.00  0.00     0.039 A 
HETATM    9  C14 UNL     1      21.345   2.024  52.204  1.00  0.00     0.027 A 
HETATM   10  C15 UNL     1      20.035   1.567  52.189  1.00  0.00    -0.028 A 
HETATM   11  C16 UNL     1      18.954   2.461  51.719  1.00  0.00     0.051 C 
ENDROOT
BRANCH   7  12
HETATM   12  N3  UNL     1      23.997   3.041  52.204  1.00  0.00    -0.355 N 
HETATM   13  C7  UNL     1      23.743   4.266  52.931  1.00  0.00     0.153 C 
HETATM   14  C8  UNL     1      22.865   5.170  52.113  1.00  0.00     0.012 C 
HETATM   15  C9  UNL     1      22.410   5.244  50.868  1.00  0.00     0.011 C 
HETATM   16 BR1  UNL     1      21.270   6.683  50.359  1.00  0.00    -0.051 Br
HETATM   17  C10 UNL     1      22.760   4.246  49.866  1.00  0.00     0.058 C 
HETATM   18  C11 UNL     1      23.682   3.292  49.836  1.00  0.00     0.113 C 
HETATM   19  F1  UNL     1      23.679   2.561  48.693  1.00  0.00    -0.209 F 
HETATM   20  C12 UNL     1      24.660   2.994  50.915  1.00  0.00     0.195 C 
ENDBRANCH   7  12
BRANCH   1  21
HETATM   21  O1  UNL     1      18.471  -0.134  52.585  1.00  0.00    -0.355 OA
HETATM   22  C1  UNL     1      17.960  -1.284  53.181  1.00  0.00     0.210 C 
ENDBRANCH   1  21
TORSDOF 2
ENDMDL
