MODEL 1
REMARK VINA RESULT:      -9.0      0.000      0.000
REMARK  5 active torsions:
REMARK  status: ('A' for Active; 'I' for Inactive)
REMARK    1  A    between atoms: C2_2  and  C3_3 
REMARK    2  A    between atoms: C6_6  and  C7_7 
REMARK    3  A    between atoms: C7_7  and  N1_8 
REMARK    4  A    between atoms: N1_8  and  C8_9 
REMARK    5  A    between atoms: C19_23  and  N4_24 
ROOT
HETATM    1  N1  UNL     1      26.192   3.114  51.600  1.00  0.00    -0.353 N 
HETATM    2  H8  UNL     1      26.188   4.096  51.898  1.00  0.00     0.158 HD
ENDROOT
BRANCH   1   3
HETATM    3  C7  UNL     1      25.985   2.960  50.210  1.00  0.00     0.146 C 
BRANCH   3   4
HETATM    4  C6  UNL     1      26.879   3.878  49.474  1.00  0.00    -0.000 C 
HETATM    5  C5  UNL     1      27.104   5.072  48.981  1.00  0.00    -0.056 C 
HETATM    6  C4  UNL     1      28.364   5.280  48.284  1.00  0.00     0.016 C 
HETATM    7  C17 UNL     1      26.101   6.137  49.212  1.00  0.00     0.067 C 
HETATM    8  C3  UNL     1      28.788   6.496  48.022  1.00  0.00    -0.029 C 
HETATM    9  C19 UNL     1      27.931   7.622  48.345  1.00  0.00     0.058 C 
HETATM   10  C18 UNL     1      26.738   7.441  48.879  1.00  0.00     0.010 C 
BRANCH   8  11
HETATM   11  C2  UNL     1      30.047   6.733  47.335  1.00  0.00     0.006 C 
HETATM   12  C1  UNL     1      31.245   7.112  47.717  1.00  0.00     0.039 C 
ENDBRANCH   8  11
BRANCH   9  13
HETATM   13  N4  UNL     1      28.150   9.021  48.206  1.00  0.00    -0.272 NA
HETATM   14  C20 UNL     1      28.502   9.675  49.252  1.00  0.00     0.149 C 
ENDBRANCH   9  13
ENDBRANCH   3   4
ENDBRANCH   1   3
BRANCH   1  15
HETATM   15  C8  UNL     1      25.599   2.221  52.518  1.00  0.00     0.532 A 
HETATM   16  N2  UNL     1      24.705   2.625  53.508  1.00  0.00     0.428 N 
HETATM   17  C9  UNL     1      26.096   2.206  53.822  1.00  0.00     0.467 A 
HETATM   18  O1  UNL     1      27.401   1.832  54.258  1.00  0.00    -0.298 OA
HETATM   19  C10 UNL     1      27.858   0.533  53.827  1.00  0.00     0.080 A 
HETATM   20  C11 UNL     1      29.166   0.370  54.175  1.00  0.00     0.037 A 
HETATM   21  C15 UNL     1      27.111  -0.465  53.146  1.00  0.00     0.003 A 
HETATM   22  C12 UNL     1      29.845  -0.802  53.870  1.00  0.00     0.003 A 
HETATM   23  C13 UNL     1      29.118  -1.780  53.205  1.00  0.00     0.001 A 
HETATM   24  C14 UNL     1      27.803  -1.646  52.844  1.00  0.00     0.012 A 
HETATM   25  C16 UNL     1      25.686  -0.204  52.833  1.00  0.00     0.317 C 
HETATM   26  N3  UNL     1      25.434   0.880  51.922  1.00  0.00     0.157 N 
HETATM   27  H15 UNL     1      26.001   0.826  51.053  1.00  0.00     0.322 HD
ENDBRANCH   1  15
TORSDOF 5
ENDMDL
MODEL 2
REMARK VINA RESULT:      -8.5      3.361      7.595
REMARK  5 active torsions:
REMARK  status: ('A' for Active; 'I' for Inactive)
REMARK    1  A    between atoms: C2_2  and  C3_3 
REMARK    2  A    between atoms: C6_6  and  C7_7 
REMARK    3  A    between atoms: C7_7  and  N1_8 
REMARK    4  A    between atoms: N1_8  and  C8_9 
REMARK    5  A    between atoms: C19_23  and  N4_24 
ROOT
HETATM    1  N1  UNL     1      25.859   4.800  50.436  1.00  0.00    -0.353 N 
HETATM    2  H8  UNL     1      26.634   5.471  50.445  1.00  0.00     0.158 HD
ENDROOT
BRANCH   1   3
HETATM    3  C7  UNL     1      26.230   3.537  49.918  1.00  0.00     0.146 C 
BRANCH   3   4
HETATM    4  C6  UNL     1      26.791   2.705  51.003  1.00  0.00    -0.000 C 
HETATM    5  C5  UNL     1      26.595   1.982  52.079  1.00  0.00    -0.056 C 
HETATM    6  C4  UNL     1      27.767   1.391  52.707  1.00  0.00     0.016 C 
HETATM    7  C17 UNL     1      25.207   1.764  52.547  1.00  0.00     0.067 C 
HETATM    8  C3  UNL     1      27.634   0.433  53.598  1.00  0.00    -0.029 C 
HETATM    9  C19 UNL     1      26.299   0.047  54.019  1.00  0.00     0.058 C 
HETATM   10  C18 UNL     1      25.230   0.650  53.535  1.00  0.00     0.010 C 
BRANCH   8  11
HETATM   11  C2  UNL     1      28.787  -0.180  54.235  1.00  0.00     0.006 C 
HETATM   12  C1  UNL     1      29.768  -0.947  53.818  1.00  0.00     0.039 C 
ENDBRANCH   8  11
BRANCH   9  13
HETATM   13  N4  UNL     1      25.871  -0.964  54.922  1.00  0.00    -0.272 NA
HETATM   14  C20 UNL     1      24.614  -1.057  55.159  1.00  0.00     0.149 C 
ENDBRANCH   9  13
ENDBRANCH   3   4
ENDBRANCH   1   3
BRANCH   1  15
HETATM   15  C8  UNL     1      24.601   5.361  50.128  1.00  0.00     0.532 A 
HETATM   16  N2  UNL     1      24.091   6.489  50.770  1.00  0.00     0.428 N 
HETATM   17  C9  UNL     1      23.550   5.126  51.017  1.00  0.00     0.467 A 
HETATM   18  O1  UNL     1      22.945   3.878  51.346  1.00  0.00    -0.298 OA
HETATM   19  C10 UNL     1      22.476   3.095  50.229  1.00  0.00     0.080 A 
HETATM   20  C11 UNL     1      22.069   1.870  50.668  1.00  0.00     0.037 A 
HETATM   21  C15 UNL     1      22.418   3.482  48.863  1.00  0.00     0.003 A 
HETATM   22  C12 UNL     1      21.572   0.923  49.782  1.00  0.00     0.003 A 
HETATM   23  C13 UNL     1      21.515   1.298  48.447  1.00  0.00     0.001 A 
HETATM   24  C14 UNL     1      21.914   2.521  47.976  1.00  0.00     0.012 A 
HETATM   25  C16 UNL     1      22.861   4.846  48.487  1.00  0.00     0.317 C 
HETATM   26  N3  UNL     1      24.252   5.136  48.712  1.00  0.00     0.157 N 
HETATM   27  H15 UNL     1      24.890   4.417  48.318  1.00  0.00     0.322 HD
ENDBRANCH   1  15
TORSDOF 5
ENDMDL
MODEL 3
REMARK VINA RESULT:      -8.5      2.406      7.808
REMARK  5 active torsions:
REMARK  status: ('A' for Active; 'I' for Inactive)
REMARK    1  A    between atoms: C2_2  and  C3_3 
REMARK    2  A    between atoms: C6_6  and  C7_7 
REMARK    3  A    between atoms: C7_7  and  N1_8 
REMARK    4  A    between atoms: N1_8  and  C8_9 
REMARK    5  A    between atoms: C19_23  and  N4_24 
ROOT
HETATM    1  N1  UNL     1      23.547   5.017  51.785  1.00  0.00    -0.353 N 
HETATM    2  H8  UNL     1      24.473   5.349  52.075  1.00  0.00     0.158 HD
ENDROOT
BRANCH   1   3
HETATM    3  C7  UNL     1      23.107   3.898  52.528  1.00  0.00     0.146 C 
BRANCH   3   4
HETATM    4  C6  UNL     1      24.277   3.135  53.011  1.00  0.00    -0.000 C 
HETATM    5  C5  UNL     1      24.809   1.982  53.338  1.00  0.00    -0.056 C 
HETATM    6  C4  UNL     1      26.191   1.990  53.792  1.00  0.00     0.016 C 
HETATM    7  C17 UNL     1      24.000   0.753  53.170  1.00  0.00     0.067 C 
HETATM    8  C3  UNL     1      26.878   0.871  53.857  1.00  0.00    -0.029 C 
HETATM    9  C19 UNL     1      26.205  -0.382  53.569  1.00  0.00     0.058 C 
HETATM   10  C18 UNL     1      24.923  -0.414  53.260  1.00  0.00     0.010 C 
BRANCH   8  11
HETATM   11  C2  UNL     1      28.262   0.851  54.299  1.00  0.00     0.006 C 
HETATM   12  C1  UNL     1      29.407   0.565  53.723  1.00  0.00     0.039 C 
ENDBRANCH   8  11
BRANCH   9  13
HETATM   13  N4  UNL     1      26.705  -1.713  53.529  1.00  0.00    -0.272 NA
HETATM   14  C20 UNL     1      26.980  -2.211  52.379  1.00  0.00     0.149 C 
ENDBRANCH   9  13
ENDBRANCH   3   4
ENDBRANCH   1   3
BRANCH   1  15
HETATM   15  C8  UNL     1      23.303   5.099  50.397  1.00  0.00     0.532 A 
HETATM   16  N2  UNL     1      22.370   4.299  49.738  1.00  0.00     0.428 N 
HETATM   17  C9  UNL     1      23.835   4.096  49.584  1.00  0.00     0.467 A 
HETATM   18  O1  UNL     1      25.208   3.794  49.353  1.00  0.00    -0.298 OA
HETATM   19  C10 UNL     1      26.029   4.898  48.918  1.00  0.00     0.080 A 
HETATM   20  C11 UNL     1      27.336   4.512  48.888  1.00  0.00     0.037 A 
HETATM   21  C15 UNL     1      25.602   6.204  48.558  1.00  0.00     0.003 A 
HETATM   22  C12 UNL     1      28.333   5.398  48.501  1.00  0.00     0.003 A 
HETATM   23  C13 UNL     1      27.920   6.675  48.150  1.00  0.00     0.001 A 
HETATM   24  C14 UNL     1      26.615   7.092  48.167  1.00  0.00     0.012 A 
HETATM   25  C16 UNL     1      24.155   6.522  48.598  1.00  0.00     0.317 C 
HETATM   26  N3  UNL     1      23.538   6.468  49.897  1.00  0.00     0.157 N 
HETATM   27  H15 UNL     1      24.056   7.005  50.619  1.00  0.00     0.322 HD
ENDBRANCH   1  15
TORSDOF 5
ENDMDL
MODEL 4
REMARK VINA RESULT:      -8.3      3.313      6.802
REMARK  5 active torsions:
REMARK  status: ('A' for Active; 'I' for Inactive)
REMARK    1  A    between atoms: C2_2  and  C3_3 
REMARK    2  A    between atoms: C6_6  and  C7_7 
REMARK    3  A    between atoms: C7_7  and  N1_8 
REMARK    4  A    between atoms: N1_8  and  C8_9 
REMARK    5  A    between atoms: C19_23  and  N4_24 
ROOT
HETATM    1  N1  UNL     1      25.517   5.062  50.424  1.00  0.00    -0.353 N 
HETATM    2  H8  UNL     1      26.053   5.933  50.354  1.00  0.00     0.158 HD
ENDROOT
BRANCH   1   3
HETATM    3  C7  UNL     1      25.986   4.056  49.548  1.00  0.00     0.146 C 
BRANCH   3   4
HETATM    4  C6  UNL     1      26.160   2.793  50.295  1.00  0.00    -0.000 C 
HETATM    5  C5  UNL     1      26.682   2.154  51.315  1.00  0.00    -0.056 C 
HETATM    6  C4  UNL     1      26.392   0.733  51.430  1.00  0.00     0.016 C 
HETATM    7  C17 UNL     1      27.473   2.920  52.304  1.00  0.00     0.067 C 
HETATM    8  C3  UNL     1      26.627   0.094  52.554  1.00  0.00    -0.029 C 
HETATM    9  C19 UNL     1      27.274   0.804  53.642  1.00  0.00     0.058 C 
HETATM   10  C18 UNL     1      27.640   2.064  53.513  1.00  0.00     0.010 C 
BRANCH   8  11
HETATM   11  C2  UNL     1      26.339  -1.323  52.700  1.00  0.00     0.006 C 
HETATM   12  C1  UNL     1      26.853  -2.422  52.195  1.00  0.00     0.039 C 
ENDBRANCH   8  11
BRANCH   9  13
HETATM   13  N4  UNL     1      27.608   0.376  54.957  1.00  0.00    -0.272 NA
HETATM   14  C20 UNL     1      28.794  -0.068  55.155  1.00  0.00     0.149 C 
ENDBRANCH   9  13
ENDBRANCH   3   4
ENDBRANCH   1   3
BRANCH   1  15
HETATM   15  C8  UNL     1      24.134   5.240  50.638  1.00  0.00     0.532 A 
HETATM   16  N2  UNL     1      23.589   6.401  51.186  1.00  0.00     0.428 N 
HETATM   17  C9  UNL     1      23.659   5.124  51.946  1.00  0.00     0.467 A 
HETATM   18  O1  UNL     1      23.668   3.970  52.781  1.00  0.00    -0.298 OA
HETATM   19  C10 UNL     1      23.072   2.783  52.219  1.00  0.00     0.080 A 
HETATM   20  C11 UNL     1      23.289   1.724  53.050  1.00  0.00     0.037 A 
HETATM   21  C15 UNL     1      22.355   2.670  50.998  1.00  0.00     0.003 A 
HETATM   22  C12 UNL     1      22.812   0.459  52.733  1.00  0.00     0.003 A 
HETATM   23  C13 UNL     1      22.113   0.345  51.540  1.00  0.00     0.001 A 
HETATM   24  C14 UNL     1      21.877   1.390  50.686  1.00  0.00     0.012 A 
HETATM   25  C16 UNL     1      22.150   3.885  50.173  1.00  0.00     0.317 C 
HETATM   26  N3  UNL     1      23.342   4.490  49.643  1.00  0.00     0.157 N 
HETATM   27  H15 UNL     1      23.964   3.814  49.158  1.00  0.00     0.322 HD
ENDBRANCH   1  15
TORSDOF 5
ENDMDL
MODEL 5
REMARK VINA RESULT:      -8.2      3.949      8.059
REMARK  5 active torsions:
REMARK  status: ('A' for Active; 'I' for Inactive)
REMARK    1  A    between atoms: C2_2  and  C3_3 
REMARK    2  A    between atoms: C6_6  and  C7_7 
REMARK    3  A    between atoms: C7_7  and  N1_8 
REMARK    4  A    between atoms: N1_8  and  C8_9 
REMARK    5  A    between atoms: C19_23  and  N4_24 
ROOT
HETATM    1  N1  UNL     1      24.180   5.639  51.178  1.00  0.00    -0.353 N 
HETATM    2  H8  UNL     1      24.616   6.514  51.488  1.00  0.00     0.158 HD
ENDROOT
BRANCH   1   3
HETATM    3  C7  UNL     1      25.123   4.665  50.778  1.00  0.00     0.146 C 
BRANCH   3   4
HETATM    4  C6  UNL     1      24.797   3.372  51.416  1.00  0.00    -0.000 C 
HETATM    5  C5  UNL     1      25.155   2.148  51.719  1.00  0.00    -0.056 C 
HETATM    6  C4  UNL     1      24.197   1.336  52.454  1.00  0.00     0.016 C 
HETATM    7  C17 UNL     1      26.515   1.693  51.352  1.00  0.00     0.067 C 
HETATM    8  C3  UNL     1      24.577   0.223  53.041  1.00  0.00    -0.029 C 
HETATM    9  C19 UNL     1      25.943  -0.235  52.857  1.00  0.00     0.058 C 
HETATM   10  C18 UNL     1      26.792   0.437  52.104  1.00  0.00     0.010 C 
BRANCH   8  11
HETATM   11  C2  UNL     1      23.644  -0.603  53.788  1.00  0.00     0.006 C 
HETATM   12  C1  UNL     1      22.366  -0.882  53.671  1.00  0.00     0.039 C 
ENDBRANCH   8  11
BRANCH   9  13
HETATM   13  N4  UNL     1      26.620  -1.363  53.396  1.00  0.00    -0.272 NA
HETATM   14  C20 UNL     1      27.061  -2.242  52.572  1.00  0.00     0.149 C 
ENDBRANCH   9  13
ENDBRANCH   3   4
ENDBRANCH   1   3
BRANCH   1  15
HETATM   15  C8  UNL     1      22.974   5.807  50.464  1.00  0.00     0.532 A 
HETATM   16  N2  UNL     1      22.100   6.872  50.680  1.00  0.00     0.428 N 
HETATM   17  C9  UNL     1      21.783   5.487  51.117  1.00  0.00     0.467 A 
HETATM   18  O1  UNL     1      21.359   4.210  51.588  1.00  0.00    -0.298 OA
HETATM   19  C10 UNL     1      21.377   3.145  50.615  1.00  0.00     0.080 A 
HETATM   20  C11 UNL     1      21.105   1.959  51.231  1.00  0.00     0.037 A 
HETATM   21  C15 UNL     1      21.629   3.250  49.221  1.00  0.00     0.003 A 
HETATM   22  C12 UNL     1      21.064   0.773  50.508  1.00  0.00     0.003 A 
HETATM   23  C13 UNL     1      21.310   0.873  49.146  1.00  0.00     0.001 A 
HETATM   24  C14 UNL     1      21.584   2.049  48.500  1.00  0.00     0.012 A 
HETATM   25  C16 UNL     1      21.891   4.589  48.640  1.00  0.00     0.317 C 
HETATM   26  N3  UNL     1      23.082   5.249  49.102  1.00  0.00     0.157 N 
HETATM   27  H15 UNL     1      23.930   4.650  49.050  1.00  0.00     0.322 HD
ENDBRANCH   1  15
TORSDOF 5
ENDMDL
MODEL 6
REMARK VINA RESULT:      -8.2      2.577      8.327
REMARK  5 active torsions:
REMARK  status: ('A' for Active; 'I' for Inactive)
REMARK    1  A    between atoms: C2_2  and  C3_3 
REMARK    2  A    between atoms: C6_6  and  C7_7 
REMARK    3  A    between atoms: C7_7  and  N1_8 
REMARK    4  A    between atoms: N1_8  and  C8_9 
REMARK    5  A    between atoms: C19_23  and  N4_24 
ROOT
HETATM    1  N1  UNL     1      24.460   5.344  51.572  1.00  0.00    -0.353 N 
HETATM    2  H8  UNL     1      25.338   4.864  51.796  1.00  0.00     0.158 HD
ENDROOT
BRANCH   1   3
HETATM    3  C7  UNL     1      23.429   5.066  52.499  1.00  0.00     0.146 C 
BRANCH   3   4
HETATM    4  C6  UNL     1      23.329   3.605  52.701  1.00  0.00    -0.000 C 
HETATM    5  C5  UNL     1      23.916   2.433  52.731  1.00  0.00    -0.056 C 
HETATM    6  C4  UNL     1      23.084   1.279  53.035  1.00  0.00     0.016 C 
HETATM    7  C17 UNL     1      25.379   2.364  52.516  1.00  0.00     0.067 C 
HETATM    8  C3  UNL     1      23.632   0.131  53.368  1.00  0.00    -0.029 C 
HETATM    9  C19 UNL     1      25.077   0.006  53.326  1.00  0.00     0.058 C 
HETATM   10  C18 UNL     1      25.839   1.015  52.948  1.00  0.00     0.010 C 
BRANCH   8  11
HETATM   11  C2  UNL     1      22.825  -1.036  53.684  1.00  0.00     0.006 C 
HETATM   12  C1  UNL     1      22.062  -1.379  54.697  1.00  0.00     0.039 C 
ENDBRANCH   8  11
BRANCH   9  13
HETATM   13  N4  UNL     1      25.921  -1.087  53.664  1.00  0.00    -0.272 NA
HETATM   14  C20 UNL     1      26.913  -1.336  52.889  1.00  0.00     0.149 C 
ENDBRANCH   9  13
ENDBRANCH   3   4
ENDBRANCH   1   3
BRANCH   1  15
HETATM   15  C8  UNL     1      24.179   5.437  50.192  1.00  0.00     0.532 A 
HETATM   16  N2  UNL     1      23.249   4.624  49.545  1.00  0.00     0.428 N 
HETATM   17  C9  UNL     1      24.714   4.458  49.353  1.00  0.00     0.467 A 
HETATM   18  O1  UNL     1      26.088   4.191  49.084  1.00  0.00    -0.298 OA
HETATM   19  C10 UNL     1      26.872   5.319  48.643  1.00  0.00     0.080 A 
HETATM   20  C11 UNL     1      28.187   4.964  48.577  1.00  0.00     0.037 A 
HETATM   21  C15 UNL     1      26.406   6.619  48.311  1.00  0.00     0.003 A 
HETATM   22  C12 UNL     1      29.153   5.878  48.176  1.00  0.00     0.003 A 
HETATM   23  C13 UNL     1      28.702   7.150  47.852  1.00  0.00     0.001 A 
HETATM   24  C14 UNL     1      27.388   7.535  47.907  1.00  0.00     0.012 A 
HETATM   25  C16 UNL     1      24.953   6.902  48.391  1.00  0.00     0.317 C 
HETATM   26  N3  UNL     1      24.371   6.817  49.704  1.00  0.00     0.157 N 
HETATM   27  H15 UNL     1      24.894   7.358  50.420  1.00  0.00     0.322 HD
ENDBRANCH   1  15
TORSDOF 5
ENDMDL
MODEL 7
REMARK VINA RESULT:      -8.2      2.427      8.428
REMARK  5 active torsions:
REMARK  status: ('A' for Active; 'I' for Inactive)
REMARK    1  A    between atoms: C2_2  and  C3_3 
REMARK    2  A    between atoms: C6_6  and  C7_7 
REMARK    3  A    between atoms: C7_7  and  N1_8 
REMARK    4  A    between atoms: N1_8  and  C8_9 
REMARK    5  A    between atoms: C19_23  and  N4_24 
ROOT
HETATM    1  N1  UNL     1      25.885   5.640  50.381  1.00  0.00    -0.353 N 
HETATM    2  H8  UNL     1      26.634   5.565  51.078  1.00  0.00     0.158 HD
ENDROOT
BRANCH   1   3
HETATM    3  C7  UNL     1      25.793   4.501  49.548  1.00  0.00     0.146 C 
BRANCH   3   4
HETATM    4  C6  UNL     1      26.043   3.284  50.348  1.00  0.00    -0.000 C 
HETATM    5  C5  UNL     1      25.656   2.463  51.294  1.00  0.00    -0.056 C 
HETATM    6  C4  UNL     1      26.519   1.329  51.588  1.00  0.00     0.016 C 
HETATM    7  C17 UNL     1      24.352   2.702  51.954  1.00  0.00     0.067 C 
HETATM    8  C3  UNL     1      26.073   0.318  52.301  1.00  0.00    -0.029 C 
HETATM    9  C19 UNL     1      24.743   0.399  52.875  1.00  0.00     0.058 C 
HETATM   10  C18 UNL     1      23.989   1.468  52.706  1.00  0.00     0.010 C 
BRANCH   8  11
HETATM   11  C2  UNL     1      26.911  -0.830  52.602  1.00  0.00     0.006 C 
HETATM   12  C1  UNL     1      28.100  -0.985  53.138  1.00  0.00     0.039 C 
ENDBRANCH   8  11
BRANCH   9  13
HETATM   13  N4  UNL     1      24.008  -0.547  53.643  1.00  0.00    -0.272 NA
HETATM   14  C20 UNL     1      22.837  -0.868  53.230  1.00  0.00     0.149 C 
ENDBRANCH   9  13
ENDBRANCH   3   4
ENDBRANCH   1   3
BRANCH   1  15
HETATM   15  C8  UNL     1      25.707   6.935  49.849  1.00  0.00     0.532 A 
HETATM   16  N2  UNL     1      24.552   7.331  49.175  1.00  0.00     0.428 N 
HETATM   17  C9  UNL     1      25.839   7.093  48.468  1.00  0.00     0.467 A 
HETATM   18  O1  UNL     1      27.005   6.897  47.673  1.00  0.00    -0.298 OA
HETATM   19  C10 UNL     1      28.182   7.614  48.097  1.00  0.00     0.080 A 
HETATM   20  C11 UNL     1      29.253   7.216  47.352  1.00  0.00     0.037 A 
HETATM   21  C15 UNL     1      28.276   8.596  49.119  1.00  0.00     0.003 A 
HETATM   22  C12 UNL     1      30.513   7.761  47.566  1.00  0.00     0.003 A 
HETATM   23  C13 UNL     1      30.608   8.719  48.565  1.00  0.00     0.001 A 
HETATM   24  C14 UNL     1      29.551   9.141  49.327  1.00  0.00     0.012 A 
HETATM   25  C16 UNL     1      27.050   8.980  49.858  1.00  0.00     0.317 C 
HETATM   26  N3  UNL     1      26.440   7.940  50.643  1.00  0.00     0.157 N 
HETATM   27  H15 UNL     1      27.111   7.452  51.268  1.00  0.00     0.322 HD
ENDBRANCH   1  15
TORSDOF 5
ENDMDL
MODEL 8
REMARK VINA RESULT:      -8.1      3.876      5.222
REMARK  5 active torsions:
REMARK  status: ('A' for Active; 'I' for Inactive)
REMARK    1  A    between atoms: C2_2  and  C3_3 
REMARK    2  A    between atoms: C6_6  and  C7_7 
REMARK    3  A    between atoms: C7_7  and  N1_8 
REMARK    4  A    between atoms: N1_8  and  C8_9 
REMARK    5  A    between atoms: C19_23  and  N4_24 
ROOT
HETATM    1  N1  UNL     1      20.035   2.202  49.655  1.00  0.00    -0.353 N 
HETATM    2  H8  UNL     1      19.150   2.479  49.218  1.00  0.00     0.158 HD
ENDROOT
BRANCH   1   3
HETATM    3  C7  UNL     1      20.945   1.626  48.738  1.00  0.00     0.146 C 
BRANCH   3   4
HETATM    4  C6  UNL     1      22.256   2.296  48.859  1.00  0.00    -0.000 C 
HETATM    5  C5  UNL     1      22.941   3.397  49.052  1.00  0.00    -0.056 C 
HETATM    6  C4  UNL     1      24.392   3.292  49.034  1.00  0.00     0.016 C 
HETATM    7  C17 UNL     1      22.207   4.652  49.333  1.00  0.00     0.067 C 
HETATM    8  C3  UNL     1      25.138   4.269  49.501  1.00  0.00    -0.029 C 
HETATM    9  C19 UNL     1      24.494   5.494  49.938  1.00  0.00     0.058 C 
HETATM   10  C18 UNL     1      23.186   5.644  49.859  1.00  0.00     0.010 C 
BRANCH   8  11
HETATM   11  C2  UNL     1      26.589   4.187  49.502  1.00  0.00     0.006 C 
HETATM   12  C1  UNL     1      27.539   4.689  48.747  1.00  0.00     0.039 C 
ENDBRANCH   8  11
BRANCH   9  13
HETATM   13  N4  UNL     1      25.044   6.675  50.509  1.00  0.00    -0.272 NA
HETATM   14  C20 UNL     1      24.281   7.701  50.606  1.00  0.00     0.149 C 
ENDBRANCH   9  13
ENDBRANCH   3   4
ENDBRANCH   1   3
BRANCH   1  15
HETATM   15  C8  UNL     1      19.907   1.683  50.961  1.00  0.00     0.532 A 
HETATM   16  N2  UNL     1      18.793   1.913  51.768  1.00  0.00     0.428 N 
HETATM   17  C9  UNL     1      20.106   2.560  52.029  1.00  0.00     0.467 A 
HETATM   18  O1  UNL     1      21.303   3.244  52.388  1.00  0.00    -0.298 OA
HETATM   19  C10 UNL     1      22.474   2.417  52.553  1.00  0.00     0.080 A 
HETATM   20  C11 UNL     1      23.570   3.208  52.736  1.00  0.00     0.037 A 
HETATM   21  C15 UNL     1      22.540   0.998  52.540  1.00  0.00     0.003 A 
HETATM   22  C12 UNL     1      24.829   2.651  52.918  1.00  0.00     0.003 A 
HETATM   23  C13 UNL     1      24.897   1.265  52.905  1.00  0.00     0.001 A 
HETATM   24  C14 UNL     1      23.815   0.445  52.726  1.00  0.00     0.012 A 
HETATM   25  C16 UNL     1      21.289   0.225  52.358  1.00  0.00     0.317 C 
HETATM   26  N3  UNL     1      20.623   0.399  51.095  1.00  0.00     0.157 N 
HETATM   27  H15 UNL     1      21.254   0.280  50.278  1.00  0.00     0.322 HD
ENDBRANCH   1  15
TORSDOF 5
ENDMDL
MODEL 9
REMARK VINA RESULT:      -8.1      4.680      8.098
REMARK  5 active torsions:
REMARK  status: ('A' for Active; 'I' for Inactive)
REMARK    1  A    between atoms: C2_2  and  C3_3 
REMARK    2  A    between atoms: C6_6  and  C7_7 
REMARK    3  A    between atoms: C7_7  and  N1_8 
REMARK    4  A    between atoms: N1_8  and  C8_9 
REMARK    5  A    between atoms: C19_23  and  N4_24 
ROOT
HETATM    1  N1  UNL     1      19.990  -0.141  52.230  1.00  0.00    -0.353 N 
HETATM    2  H8  UNL     1      19.397  -0.978  52.259  1.00  0.00     0.158 HD
ENDROOT
BRANCH   1   3
HETATM    3  C7  UNL     1      20.753   0.032  53.407  1.00  0.00     0.146 C 
BRANCH   3   4
HETATM    4  C6  UNL     1      22.143   0.381  53.046  1.00  0.00    -0.000 C 
HETATM    5  C5  UNL     1      23.428   0.269  53.286  1.00  0.00    -0.056 C 
HETATM    6  C4  UNL     1      24.335   0.990  52.407  1.00  0.00     0.016 C 
HETATM    7  C17 UNL     1      23.871  -0.620  54.384  1.00  0.00     0.067 C 
HETATM    8  C3  UNL     1      25.619   0.705  52.394  1.00  0.00    -0.029 C 
HETATM    9  C19 UNL     1      26.130  -0.267  53.344  1.00  0.00     0.058 C 
HETATM   10  C18 UNL     1      25.334  -0.849  54.220  1.00  0.00     0.010 C 
BRANCH   8  11
HETATM   11  C2  UNL     1      26.546   1.404  51.521  1.00  0.00     0.006 C 
HETATM   12  C1  UNL     1      26.730   2.662  51.193  1.00  0.00     0.039 C 
ENDBRANCH   8  11
BRANCH   9  13
HETATM   13  N4  UNL     1      27.443  -0.782  53.523  1.00  0.00    -0.272 NA
HETATM   14  C20 UNL     1      28.225  -0.155  54.323  1.00  0.00     0.149 C 
ENDBRANCH   9  13
ENDBRANCH   3   4
ENDBRANCH   1   3
BRANCH   1  15
HETATM   15  C8  UNL     1      19.407   0.968  51.581  1.00  0.00     0.532 A 
HETATM   16  N2  UNL     1      18.227   0.888  50.843  1.00  0.00     0.428 N 
HETATM   17  C9  UNL     1      19.555   1.062  50.196  1.00  0.00     0.467 A 
HETATM   18  O1  UNL     1      20.760   1.225  49.454  1.00  0.00    -0.298 OA
HETATM   19  C10 UNL     1      21.593   2.337  49.846  1.00  0.00     0.080 A 
HETATM   20  C11 UNL     1      22.776   2.283  49.170  1.00  0.00     0.037 A 
HETATM   21  C15 UNL     1      21.285   3.361  50.781  1.00  0.00     0.003 A 
HETATM   22  C12 UNL     1      23.756   3.245  49.370  1.00  0.00     0.003 A 
HETATM   23  C13 UNL     1      23.459   4.247  50.283  1.00  0.00     0.001 A 
HETATM   24  C14 UNL     1      22.280   4.329  50.976  1.00  0.00     0.012 A 
HETATM   25  C16 UNL     1      19.961   3.348  51.448  1.00  0.00     0.317 C 
HETATM   26  N3  UNL     1      19.703   2.221  52.304  1.00  0.00     0.157 N 
HETATM   27  H15 UNL     1      20.465   2.043  52.988  1.00  0.00     0.322 HD
ENDBRANCH   1  15
TORSDOF 5
ENDMDL
