MODEL 1
REMARK VINA RESULT:      -7.9      0.000      0.000
REMARK  8 active torsions:
REMARK  status: ('A' for Active; 'I' for Inactive)
REMARK    1  A    between atoms: O1_2  and  C2_3 
REMARK    2  A    between atoms: C5_6  and  O2_7 
REMARK    3  A    between atoms: O2_7  and  C6_8 
REMARK    4  A    between atoms: C6_8  and  N1_9 
REMARK    5  A    between atoms: C7_10  and  C8_11 
REMARK    6  A    between atoms: C10_13  and  N2_14 
REMARK    7  A    between atoms: N2_14  and  C11_15 
REMARK    8  A    between atoms: C18_24  and  N4_25 
ROOT
HETATM    1  C8  UNL     1      24.970   5.187  49.866  1.00  0.00     0.048 C 
HETATM    2  C9  UNL     1      24.450   4.012  49.537  1.00  0.00     0.057 C 
HETATM    3  C10 UNL     1      23.571   3.539  50.640  1.00  0.00     0.290 C 
HETATM    4  C17 UNL     1      22.314   4.337  50.524  1.00  0.00     0.157 C 
HETATM    5  N3  UNL     1      22.746   5.541  50.616  1.00  0.00    -0.228 NA
HETATM    6  C18 UNL     1      24.133   5.555  51.015  1.00  0.00     0.473 C 
HETATM    7  N5  UNL     1      24.178   4.269  51.745  1.00  0.00     0.189 N 
HETATM    8  H19 UNL     1      25.191   4.040  51.880  1.00  0.00     0.326 HD
ENDROOT
BRANCH   1   9
HETATM    9  C7  UNL     1      26.083   5.797  49.159  1.00  0.00     0.013 A 
HETATM   10  C5  UNL     1      26.130   7.059  48.673  1.00  0.00     0.082 A 
HETATM   11  C4  UNL     1      27.242   7.556  48.014  1.00  0.00     0.040 A 
HETATM   12  C3  UNL     1      28.376   6.800  47.809  1.00  0.00     0.039 A 
HETATM   13  C2  UNL     1      28.332   5.513  48.303  1.00  0.00     0.069 A 
HETATM   14  C19 UNL     1      27.211   5.033  48.958  1.00  0.00     0.051 A 
BRANCH  10  15
HETATM   15  O2  UNL     1      25.040   7.894  48.829  1.00  0.00    -0.321 OA
BRANCH  15  16
HETATM   16  C6  UNL     1      24.104   8.057  47.801  1.00  0.00     0.441 C 
BRANCH  16  17
HETATM   17  N1  UNL     1      22.794   7.572  48.193  1.00  0.00     0.101 N 
HETATM   18  H8  UNL     1      22.434   8.185  48.945  1.00  0.00     0.315 HD
HETATM   19  H9  UNL     1      22.141   7.556  47.384  1.00  0.00     0.315 HD
ENDBRANCH  16  17
ENDBRANCH  15  16
ENDBRANCH  10  15
BRANCH  13  20
HETATM   20  O1  UNL     1      29.491   4.777  48.079  1.00  0.00    -0.356 OA
HETATM   21  C1  UNL     1      30.704   5.501  47.888  1.00  0.00     0.210 C 
ENDBRANCH  13  20
ENDBRANCH   1   9
BRANCH   6  22
HETATM   22  N4  UNL     1      24.509   6.654  51.796  1.00  0.00     0.146 N 
HETATM   23  H17 UNL     1      25.295   7.176  51.337  1.00  0.00     0.319 HD
HETATM   24  H18 UNL     1      23.717   7.299  51.936  1.00  0.00     0.319 HD
ENDBRANCH   6  22
BRANCH   3  25
HETATM   25  N2  UNL     1      23.448   2.168  50.814  1.00  0.00    -0.348 N 
HETATM   26  H11 UNL     1      22.852   1.698  50.071  1.00  0.00     0.163 HD
BRANCH  25  27
HETATM   27  C11 UNL     1      23.970   1.309  51.789  1.00  0.00     0.031 A 
HETATM   28  C12 UNL     1      25.312   1.061  51.994  1.00  0.00     0.029 A 
HETATM   29  C13 UNL     1      25.749   0.207  52.966  1.00  0.00     0.004 A 
HETATM   30  C14 UNL     1      24.821  -0.436  53.780  1.00  0.00     0.019 A 
HETATM   31  C15 UNL     1      23.467  -0.217  53.611  1.00  0.00     0.013 A 
HETATM   32 BR1  UNL     1      22.279  -1.139  54.768  1.00  0.00    -0.051 Br
HETATM   33  C16 UNL     1      23.056   0.656  52.612  1.00  0.00     0.048 A 
ENDBRANCH  25  27
ENDBRANCH   3  25
TORSDOF 8
ENDMDL
MODEL 2
REMARK VINA RESULT:      -7.7      4.078      8.342
REMARK  8 active torsions:
REMARK  status: ('A' for Active; 'I' for Inactive)
REMARK    1  A    between atoms: O1_2  and  C2_3 
REMARK    2  A    between atoms: C5_6  and  O2_7 
REMARK    3  A    between atoms: O2_7  and  C6_8 
REMARK    4  A    between atoms: C6_8  and  N1_9 
REMARK    5  A    between atoms: C7_10  and  C8_11 
REMARK    6  A    between atoms: C10_13  and  N2_14 
REMARK    7  A    between atoms: N2_14  and  C11_15 
REMARK    8  A    between atoms: C18_24  and  N4_25 
ROOT
HETATM    1  C8  UNL     1      24.435   1.456  52.460  1.00  0.00     0.048 C 
HETATM    2  C9  UNL     1      24.349   1.689  51.157  1.00  0.00     0.057 C 
HETATM    3  C10 UNL     1      25.200   2.860  50.813  1.00  0.00     0.290 C 
HETATM    4  C17 UNL     1      26.605   2.352  50.819  1.00  0.00     0.157 C 
HETATM    5  N3  UNL     1      26.724   1.892  52.010  1.00  0.00    -0.228 NA
HETATM    6  C18 UNL     1      25.594   2.281  52.820  1.00  0.00     0.473 C 
HETATM    7  N5  UNL     1      25.215   3.522  52.110  1.00  0.00     0.189 N 
HETATM    8  H19 UNL     1      24.257   3.777  52.450  1.00  0.00     0.326 HD
ENDROOT
BRANCH   1   9
HETATM    9  C7  UNL     1      23.524   0.580  53.178  1.00  0.00     0.013 A 
HETATM   10  C5  UNL     1      23.868  -0.381  54.067  1.00  0.00     0.082 A 
HETATM   11  C4  UNL     1      22.925  -1.165  54.708  1.00  0.00     0.040 A 
HETATM   12  C3  UNL     1      21.572  -1.022  54.486  1.00  0.00     0.039 A 
HETATM   13  C2  UNL     1      21.217  -0.044  53.580  1.00  0.00     0.069 A 
HETATM   14  C19 UNL     1      22.174   0.731  52.949  1.00  0.00     0.051 A 
BRANCH  10  15
HETATM   15  O2  UNL     1      25.202  -0.601  54.355  1.00  0.00    -0.321 OA
BRANCH  15  16
HETATM   16  C6  UNL     1      26.019  -1.319  53.475  1.00  0.00     0.441 C 
BRANCH  16  17
HETATM   17  N1  UNL     1      27.395  -0.863  53.536  1.00  0.00     0.101 N 
HETATM   18  H8  UNL     1      27.558  -0.449  54.470  1.00  0.00     0.315 HD
HETATM   19  H9  UNL     1      28.059  -1.642  53.355  1.00  0.00     0.315 HD
ENDBRANCH  16  17
ENDBRANCH  15  16
ENDBRANCH  10  15
BRANCH  13  20
HETATM   20  O1  UNL     1      19.846   0.075  53.379  1.00  0.00    -0.356 OA
HETATM   21  C1  UNL     1      19.391   0.294  52.047  1.00  0.00     0.210 C 
ENDBRANCH  13  20
ENDBRANCH   1   9
BRANCH   6  22
HETATM   22  N4  UNL     1      25.882   2.479  54.175  1.00  0.00     0.146 N 
HETATM   23  H17 UNL     1      26.716   3.107  54.284  1.00  0.00     0.319 HD
HETATM   24  H18 UNL     1      25.080   2.902  54.667  1.00  0.00     0.319 HD
ENDBRANCH   6  22
BRANCH   3  25
HETATM   25  N2  UNL     1      24.804   3.641  49.736  1.00  0.00    -0.348 N 
HETATM   26  H11 UNL     1      23.922   3.292  49.260  1.00  0.00     0.163 HD
BRANCH  25  27
HETATM   27  C11 UNL     1      25.364   4.798  49.179  1.00  0.00     0.031 A 
HETATM   28  C12 UNL     1      24.657   5.924  48.810  1.00  0.00     0.029 A 
HETATM   29  C13 UNL     1      25.271   7.018  48.270  1.00  0.00     0.004 A 
HETATM   30  C14 UNL     1      26.650   7.006  48.083  1.00  0.00     0.019 A 
HETATM   31  C15 UNL     1      27.398   5.900  48.440  1.00  0.00     0.013 A 
HETATM   32 BR1  UNL     1      29.272   5.978  48.147  1.00  0.00    -0.051 Br
HETATM   33  C16 UNL     1      26.742   4.804  48.985  1.00  0.00     0.048 A 
ENDBRANCH  25  27
ENDBRANCH   3  25
TORSDOF 8
ENDMDL
MODEL 3
REMARK VINA RESULT:      -7.6      1.617      2.120
REMARK  8 active torsions:
REMARK  status: ('A' for Active; 'I' for Inactive)
REMARK    1  A    between atoms: O1_2  and  C2_3 
REMARK    2  A    between atoms: C5_6  and  O2_7 
REMARK    3  A    between atoms: O2_7  and  C6_8 
REMARK    4  A    between atoms: C6_8  and  N1_9 
REMARK    5  A    between atoms: C7_10  and  C8_11 
REMARK    6  A    between atoms: C10_13  and  N2_14 
REMARK    7  A    between atoms: N2_14  and  C11_15 
REMARK    8  A    between atoms: C18_24  and  N4_25 
ROOT
HETATM    1  C8  UNL     1      25.318   4.680  49.493  1.00  0.00     0.048 C 
HETATM    2  C9  UNL     1      25.460   3.774  50.452  1.00  0.00     0.057 C 
HETATM    3  C10 UNL     1      24.118   3.398  50.972  1.00  0.00     0.290 C 
HETATM    4  C17 UNL     1      23.528   2.490  49.945  1.00  0.00     0.157 C 
HETATM    5  N3  UNL     1      23.545   3.221  48.892  1.00  0.00    -0.228 NA
HETATM    6  C18 UNL     1      23.878   4.585  49.226  1.00  0.00     0.473 C 
HETATM    7  N5  UNL     1      23.389   4.609  50.622  1.00  0.00     0.189 N 
HETATM    8  H19 UNL     1      23.790   5.470  51.062  1.00  0.00     0.326 HD
ENDROOT
BRANCH   1   9
HETATM    9  C7  UNL     1      26.419   5.471  48.969  1.00  0.00     0.013 A 
HETATM   10  C5  UNL     1      26.404   6.801  48.722  1.00  0.00     0.082 A 
HETATM   11  C4  UNL     1      27.508   7.473  48.226  1.00  0.00     0.040 A 
HETATM   12  C3  UNL     1      28.698   6.833  47.949  1.00  0.00     0.039 A 
HETATM   13  C2  UNL     1      28.716   5.476  48.199  1.00  0.00     0.069 A 
HETATM   14  C19 UNL     1      27.602   4.822  48.696  1.00  0.00     0.051 A 
BRANCH  10  15
HETATM   15  O2  UNL     1      25.255   7.530  48.967  1.00  0.00    -0.321 OA
BRANCH  15  16
HETATM   16  C6  UNL     1      25.195   8.445  50.025  1.00  0.00     0.441 C 
BRANCH  16  17
HETATM   17  N1  UNL     1      24.517   7.882  51.176  1.00  0.00     0.101 N 
HETATM   18  H8  UNL     1      24.503   8.596  51.926  1.00  0.00     0.315 HD
HETATM   19  H9  UNL     1      23.551   7.581  50.935  1.00  0.00     0.315 HD
ENDBRANCH  16  17
ENDBRANCH  15  16
ENDBRANCH  10  15
BRANCH  13  20
HETATM   20  O1  UNL     1      29.930   4.861  47.910  1.00  0.00    -0.356 OA
HETATM   21  C1  UNL     1      31.122   5.551  48.276  1.00  0.00     0.210 C 
ENDBRANCH  13  20
ENDBRANCH   1   9
BRANCH   6  22
HETATM   22  N4  UNL     1      23.282   5.553  48.410  1.00  0.00     0.146 N 
HETATM   23  H17 UNL     1      23.759   5.590  47.476  1.00  0.00     0.319 HD
HETATM   24  H18 UNL     1      22.281   5.350  48.263  1.00  0.00     0.319 HD
ENDBRANCH   6  22
BRANCH   3  25
HETATM   25  N2  UNL     1      24.038   3.003  52.301  1.00  0.00    -0.348 N 
HETATM   26  H11 UNL     1      23.657   3.756  52.945  1.00  0.00     0.163 HD
BRANCH  25  27
HETATM   27  C11 UNL     1      24.369   1.795  52.927  1.00  0.00     0.031 A 
HETATM   28  C12 UNL     1      23.502   0.741  53.130  1.00  0.00     0.029 A 
HETATM   29  C13 UNL     1      23.896  -0.410  53.752  1.00  0.00     0.004 A 
HETATM   30  C14 UNL     1      25.209  -0.532  54.197  1.00  0.00     0.019 A 
HETATM   31  C15 UNL     1      26.111   0.498  54.014  1.00  0.00     0.013 A 
HETATM   32 BR1  UNL     1      27.879   0.238  54.655  1.00  0.00    -0.051 Br
HETATM   33  C16 UNL     1      25.678   1.654  53.379  1.00  0.00     0.048 A 
ENDBRANCH  25  27
ENDBRANCH   3  25
TORSDOF 8
ENDMDL
MODEL 4
REMARK VINA RESULT:      -7.5      3.971      7.430
REMARK  8 active torsions:
REMARK  status: ('A' for Active; 'I' for Inactive)
REMARK    1  A    between atoms: O1_2  and  C2_3 
REMARK    2  A    between atoms: C5_6  and  O2_7 
REMARK    3  A    between atoms: O2_7  and  C6_8 
REMARK    4  A    between atoms: C6_8  and  N1_9 
REMARK    5  A    between atoms: C7_10  and  C8_11 
REMARK    6  A    between atoms: C10_13  and  N2_14 
REMARK    7  A    between atoms: N2_14  and  C11_15 
REMARK    8  A    between atoms: C18_24  and  N4_25 
ROOT
HETATM    1  C8  UNL     1      23.869   2.839  52.495  1.00  0.00     0.048 C 
HETATM    2  C9  UNL     1      23.895   4.079  52.966  1.00  0.00     0.057 C 
HETATM    3  C10 UNL     1      23.406   5.012  51.916  1.00  0.00     0.290 C 
HETATM    4  C17 UNL     1      21.922   4.853  51.895  1.00  0.00     0.157 C 
HETATM    5  N3  UNL     1      21.785   3.601  51.653  1.00  0.00    -0.228 NA
HETATM    6  C18 UNL     1      23.052   3.013  51.288  1.00  0.00     0.473 C 
HETATM    7  N5  UNL     1      23.717   4.214  50.738  1.00  0.00     0.189 N 
HETATM    8  H19 UNL     1      24.735   3.980  50.659  1.00  0.00     0.326 HD
ENDROOT
BRANCH   1   9
HETATM    9  C7  UNL     1      24.539   1.723  53.139  1.00  0.00     0.013 A 
HETATM   10  C5  UNL     1      24.034   0.480  53.322  1.00  0.00     0.082 A 
HETATM   11  C4  UNL     1      24.753  -0.525  53.945  1.00  0.00     0.040 A 
HETATM   12  C3  UNL     1      26.031  -0.330  54.424  1.00  0.00     0.039 A 
HETATM   13  C2  UNL     1      26.549   0.935  54.241  1.00  0.00     0.069 A 
HETATM   14  C19 UNL     1      25.815   1.928  53.615  1.00  0.00     0.051 A 
BRANCH  10  15
HETATM   15  O2  UNL     1      22.758   0.188  52.876  1.00  0.00    -0.321 OA
BRANCH  15  16
HETATM   16  C6  UNL     1      21.665   0.224  53.749  1.00  0.00     0.441 C 
BRANCH  16  17
HETATM   17  N1  UNL     1      20.662   1.173  53.305  1.00  0.00     0.101 N 
HETATM   18  H8  UNL     1      20.369   0.910  52.348  1.00  0.00     0.315 HD
HETATM   19  H9  UNL     1      19.846   1.188  53.950  1.00  0.00     0.315 HD
ENDBRANCH  16  17
ENDBRANCH  15  16
ENDBRANCH  10  15
BRANCH  13  20
HETATM   20  O1  UNL     1      27.839   1.098  54.734  1.00  0.00    -0.356 OA
HETATM   21  C1  UNL     1      28.710  -0.029  54.687  1.00  0.00     0.210 C 
ENDBRANCH  13  20
ENDBRANCH   1   9
BRANCH   6  22
HETATM   22  N4  UNL     1      22.968   1.955  50.376  1.00  0.00     0.146 N 
HETATM   23  H17 UNL     1      23.896   1.797  49.912  1.00  0.00     0.319 HD
HETATM   24  H18 UNL     1      22.677   1.083  50.844  1.00  0.00     0.319 HD
ENDBRANCH   6  22
BRANCH   3  25
HETATM   25  N2  UNL     1      23.914   6.304  51.926  1.00  0.00    -0.348 N 
HETATM   26  H11 UNL     1      24.127   6.669  52.900  1.00  0.00     0.163 HD
BRANCH  25  27
HETATM   27  C11 UNL     1      24.189   7.197  50.882  1.00  0.00     0.031 A 
HETATM   28  C12 UNL     1      23.248   7.949  50.211  1.00  0.00     0.029 A 
HETATM   29  C13 UNL     1      23.591   8.801  49.199  1.00  0.00     0.004 A 
HETATM   30  C14 UNL     1      24.927   8.920  48.828  1.00  0.00     0.019 A 
HETATM   31  C15 UNL     1      25.904   8.186  49.475  1.00  0.00     0.013 A 
HETATM   32 BR1  UNL     1      27.697   8.416  48.899  1.00  0.00    -0.051 Br
HETATM   33  C16 UNL     1      25.520   7.329  50.498  1.00  0.00     0.048 A 
ENDBRANCH  25  27
ENDBRANCH   3  25
TORSDOF 8
ENDMDL
MODEL 5
REMARK VINA RESULT:      -7.4      1.828      3.227
REMARK  8 active torsions:
REMARK  status: ('A' for Active; 'I' for Inactive)
REMARK    1  A    between atoms: O1_2  and  C2_3 
REMARK    2  A    between atoms: C5_6  and  O2_7 
REMARK    3  A    between atoms: O2_7  and  C6_8 
REMARK    4  A    between atoms: C6_8  and  N1_9 
REMARK    5  A    between atoms: C7_10  and  C8_11 
REMARK    6  A    between atoms: C10_13  and  N2_14 
REMARK    7  A    between atoms: N2_14  and  C11_15 
REMARK    8  A    between atoms: C18_24  and  N4_25 
ROOT
HETATM    1  C8  UNL     1      24.097   5.026  50.422  1.00  0.00     0.048 C 
HETATM    2  C9  UNL     1      23.150   4.163  50.078  1.00  0.00     0.057 C 
HETATM    3  C10 UNL     1      22.127   4.103  51.157  1.00  0.00     0.290 C 
HETATM    4  C17 UNL     1      21.311   5.345  51.008  1.00  0.00     0.157 C 
HETATM    5  N3  UNL     1      22.195   6.267  51.113  1.00  0.00    -0.228 NA
HETATM    6  C18 UNL     1      23.456   5.716  51.548  1.00  0.00     0.473 C 
HETATM    7  N5  UNL     1      22.953   4.532  52.278  1.00  0.00     0.189 N 
HETATM    8  H19 UNL     1      23.779   3.909  52.440  1.00  0.00     0.326 HD
ENDROOT
BRANCH   1   9
HETATM    9  C7  UNL     1      25.379   5.119  49.745  1.00  0.00     0.013 A 
HETATM   10  C5  UNL     1      26.291   4.128  49.613  1.00  0.00     0.082 A 
HETATM   11  C4  UNL     1      27.489   4.311  48.943  1.00  0.00     0.040 A 
HETATM   12  C3  UNL     1      27.835   5.513  48.365  1.00  0.00     0.039 A 
HETATM   13  C2  UNL     1      26.908   6.527  48.498  1.00  0.00     0.069 A 
HETATM   14  C19 UNL     1      25.716   6.326  49.172  1.00  0.00     0.051 A 
BRANCH  10  15
HETATM   15  O2  UNL     1      26.034   2.885  50.160  1.00  0.00    -0.321 OA
BRANCH  15  16
HETATM   16  C6  UNL     1      26.734   2.436  51.286  1.00  0.00     0.441 C 
BRANCH  16  17
HETATM   17  N1  UNL     1      26.090   2.857  52.515  1.00  0.00     0.101 N 
HETATM   18  H8  UNL     1      26.821   3.198  53.164  1.00  0.00     0.315 HD
HETATM   19  H9  UNL     1      25.382   3.598  52.335  1.00  0.00     0.315 HD
ENDBRANCH  16  17
ENDBRANCH  15  16
ENDBRANCH  10  15
BRANCH  13  20
HETATM   20  O1  UNL     1      27.287   7.726  47.904  1.00  0.00    -0.356 OA
HETATM   21  C1  UNL     1      28.129   8.596  48.654  1.00  0.00     0.210 C 
ENDBRANCH  13  20
ENDBRANCH   1   9
BRANCH   6  22
HETATM   22  N4  UNL     1      24.230   6.571  52.340  1.00  0.00     0.146 N 
HETATM   23  H17 UNL     1      23.772   6.723  53.271  1.00  0.00     0.319 HD
HETATM   24  H18 UNL     1      25.174   6.183  52.493  1.00  0.00     0.319 HD
ENDBRANCH   6  22
BRANCH   3  25
HETATM   25  N2  UNL     1      21.449   2.904  51.326  1.00  0.00    -0.348 N 
HETATM   26  H11 UNL     1      20.681   2.746  50.609  1.00  0.00     0.163 HD
BRANCH  25  27
HETATM   27  C11 UNL     1      21.602   1.880  52.268  1.00  0.00     0.031 A 
HETATM   28  C12 UNL     1      20.606   1.406  53.097  1.00  0.00     0.029 A 
HETATM   29  C13 UNL     1      20.830   0.402  53.995  1.00  0.00     0.004 A 
HETATM   30  C14 UNL     1      22.097  -0.167  54.084  1.00  0.00     0.019 A 
HETATM   31  C15 UNL     1      23.125   0.276  53.273  1.00  0.00     0.013 A 
HETATM   32 BR1  UNL     1      24.817  -0.561  53.467  1.00  0.00    -0.051 Br
HETATM   33  C16 UNL     1      22.863   1.299  52.372  1.00  0.00     0.048 A 
ENDBRANCH  25  27
ENDBRANCH   3  25
TORSDOF 8
ENDMDL
MODEL 6
REMARK VINA RESULT:      -7.4      1.702      2.355
REMARK  8 active torsions:
REMARK  status: ('A' for Active; 'I' for Inactive)
REMARK    1  A    between atoms: O1_2  and  C2_3 
REMARK    2  A    between atoms: C5_6  and  O2_7 
REMARK    3  A    between atoms: O2_7  and  C6_8 
REMARK    4  A    between atoms: C6_8  and  N1_9 
REMARK    5  A    between atoms: C7_10  and  C8_11 
REMARK    6  A    between atoms: C10_13  and  N2_14 
REMARK    7  A    between atoms: N2_14  and  C11_15 
REMARK    8  A    between atoms: C18_24  and  N4_25 
ROOT
HETATM    1  C8  UNL     1      26.596   6.284  48.906  1.00  0.00     0.048 C 
HETATM    2  C9  UNL     1      25.798   5.254  48.656  1.00  0.00     0.057 C 
HETATM    3  C10 UNL     1      24.769   5.162  49.727  1.00  0.00     0.290 C 
HETATM    4  C17 UNL     1      23.780   6.240  49.427  1.00  0.00     0.157 C 
HETATM    5  N3  UNL     1      24.513   7.292  49.431  1.00  0.00    -0.228 NA
HETATM    6  C18 UNL     1      25.830   6.992  49.939  1.00  0.00     0.473 C 
HETATM    7  N5  UNL     1      25.491   5.836  50.797  1.00  0.00     0.189 N 
HETATM    8  H19 UNL     1      26.397   5.368  51.037  1.00  0.00     0.326 HD
ENDROOT
BRANCH   1   9
HETATM    9  C7  UNL     1      27.867   6.493  48.233  1.00  0.00     0.013 A 
HETATM   10  C5  UNL     1      28.143   7.453  47.320  1.00  0.00     0.082 A 
HETATM   11  C4  UNL     1      29.391   7.578  46.734  1.00  0.00     0.040 A 
HETATM   12  C3  UNL     1      30.438   6.735  47.041  1.00  0.00     0.039 A 
HETATM   13  C2  UNL     1      30.160   5.754  47.971  1.00  0.00     0.069 A 
HETATM   14  C19 UNL     1      28.906   5.645  48.546  1.00  0.00     0.051 A 
BRANCH  10  15
HETATM   15  O2  UNL     1      27.157   8.346  46.946  1.00  0.00    -0.321 OA
BRANCH  15  16
HETATM   16  C6  UNL     1      27.110   9.635  47.491  1.00  0.00     0.441 C 
BRANCH  16  17
HETATM   17  N1  UNL     1      25.764   9.989  47.901  1.00  0.00     0.101 N 
HETATM   18  H8  UNL     1      25.109   9.689  47.157  1.00  0.00     0.315 HD
HETATM   19  H9  UNL     1      25.519   9.548  48.810  1.00  0.00     0.315 HD
ENDBRANCH  16  17
ENDBRANCH  15  16
ENDBRANCH  10  15
BRANCH  13  20
HETATM   20  O1  UNL     1      31.236   4.921  48.258  1.00  0.00    -0.356 OA
HETATM   21  C1  UNL     1      31.799   4.176  47.182  1.00  0.00     0.210 C 
ENDBRANCH  13  20
ENDBRANCH   1   9
BRANCH   6  22
HETATM   22  N4  UNL     1      26.447   8.039  50.632  1.00  0.00     0.146 N 
HETATM   23  H17 UNL     1      27.459   7.821  50.800  1.00  0.00     0.319 HD
HETATM   24  H18 UNL     1      26.380   8.923  50.104  1.00  0.00     0.319 HD
ENDBRANCH   6  22
BRANCH   3  25
HETATM   25  N2  UNL     1      24.273   3.901  50.028  1.00  0.00    -0.348 N 
HETATM   26  H11 UNL     1      23.312   3.713  49.617  1.00  0.00     0.163 HD
BRANCH  25  27
HETATM   27  C11 UNL     1      24.819   2.847  50.771  1.00  0.00     0.031 A 
HETATM   28  C12 UNL     1      26.161   2.533  50.837  1.00  0.00     0.029 A 
HETATM   29  C13 UNL     1      26.622   1.486  51.584  1.00  0.00     0.004 A 
HETATM   30  C14 UNL     1      25.719   0.708  52.303  1.00  0.00     0.019 A 
HETATM   31  C15 UNL     1      24.366   0.987  52.266  1.00  0.00     0.013 A 
HETATM   32 BR1  UNL     1      23.214  -0.130  53.279  1.00  0.00    -0.051 Br
HETATM   33  C16 UNL     1      23.931   2.057  51.496  1.00  0.00     0.048 A 
ENDBRANCH  25  27
ENDBRANCH   3  25
TORSDOF 8
ENDMDL
MODEL 7
REMARK VINA RESULT:      -7.3      1.702      2.423
REMARK  8 active torsions:
REMARK  status: ('A' for Active; 'I' for Inactive)
REMARK    1  A    between atoms: O1_2  and  C2_3 
REMARK    2  A    between atoms: C5_6  and  O2_7 
REMARK    3  A    between atoms: O2_7  and  C6_8 
REMARK    4  A    between atoms: C6_8  and  N1_9 
REMARK    5  A    between atoms: C7_10  and  C8_11 
REMARK    6  A    between atoms: C10_13  and  N2_14 
REMARK    7  A    between atoms: N2_14  and  C11_15 
REMARK    8  A    between atoms: C18_24  and  N4_25 
ROOT
HETATM    1  C8  UNL     1      24.270   4.218  49.607  1.00  0.00     0.048 C 
HETATM    2  C9  UNL     1      24.312   3.372  50.628  1.00  0.00     0.057 C 
HETATM    3  C10 UNL     1      22.942   2.854  50.890  1.00  0.00     0.290 C 
HETATM    4  C17 UNL     1      22.682   1.844  49.821  1.00  0.00     0.157 C 
HETATM    5  N3  UNL     1      22.836   2.533  48.751  1.00  0.00    -0.228 NA
HETATM    6  C18 UNL     1      22.937   3.939  49.061  1.00  0.00     0.473 C 
HETATM    7  N5  UNL     1      22.170   3.954  50.327  1.00  0.00     0.189 N 
HETATM    8  H19 UNL     1      22.372   4.873  50.786  1.00  0.00     0.326 HD
ENDROOT
BRANCH   1   9
HETATM    9  C7  UNL     1      25.360   5.119  49.269  1.00  0.00     0.013 A 
HETATM   10  C5  UNL     1      25.301   6.470  49.228  1.00  0.00     0.082 A 
HETATM   11  C4  UNL     1      26.398   7.248  48.899  1.00  0.00     0.040 A 
HETATM   12  C3  UNL     1      27.625   6.699  48.589  1.00  0.00     0.039 A 
HETATM   13  C2  UNL     1      27.688   5.321  48.629  1.00  0.00     0.069 A 
HETATM   14  C19 UNL     1      26.581   4.561  48.960  1.00  0.00     0.051 A 
BRANCH  10  15
HETATM   15  O2  UNL     1      24.113   7.112  49.523  1.00  0.00    -0.321 OA
BRANCH  15  16
HETATM   16  C6  UNL     1      23.946   7.799  50.730  1.00  0.00     0.441 C 
BRANCH  16  17
HETATM   17  N1  UNL     1      24.421   7.017  51.856  1.00  0.00     0.101 N 
HETATM   18  H8  UNL     1      25.358   6.646  51.620  1.00  0.00     0.315 HD
HETATM   19  H9  UNL     1      24.458   7.589  52.724  1.00  0.00     0.315 HD
ENDBRANCH  16  17
ENDBRANCH  15  16
ENDBRANCH  10  15
BRANCH  13  20
HETATM   20  O1  UNL     1      28.939   4.801  48.312  1.00  0.00    -0.356 OA
HETATM   21  C1  UNL     1      29.969   5.723  47.969  1.00  0.00     0.210 C 
ENDBRANCH  13  20
ENDBRANCH   1   9
BRANCH   6  22
HETATM   22  N4  UNL     1      22.418   4.797  48.085  1.00  0.00     0.146 N 
HETATM   23  H17 UNL     1      21.430   5.061  48.318  1.00  0.00     0.319 HD
HETATM   24  H18 UNL     1      22.984   5.656  48.007  1.00  0.00     0.319 HD
ENDBRANCH   6  22
BRANCH   3  25
HETATM   25  N2  UNL     1      22.633   2.501  52.196  1.00  0.00    -0.348 N 
HETATM   26  H11 UNL     1      22.666   3.316  52.875  1.00  0.00     0.163 HD
BRANCH  25  27
HETATM   27  C11 UNL     1      22.288   1.268  52.763  1.00  0.00     0.031 A 
HETATM   28  C12 UNL     1      23.170   0.398  53.371  1.00  0.00     0.029 A 
HETATM   29  C13 UNL     1      22.760  -0.792  53.902  1.00  0.00     0.004 A 
HETATM   30  C14 UNL     1      21.416  -1.146  53.834  1.00  0.00     0.019 A 
HETATM   31  C15 UNL     1      20.497  -0.304  53.235  1.00  0.00     0.013 A 
HETATM   32 BR1  UNL     1      18.687  -0.873  53.191  1.00  0.00    -0.051 Br
HETATM   33  C16 UNL     1      20.947   0.897  52.704  1.00  0.00     0.048 A 
ENDBRANCH  25  27
ENDBRANCH   3  25
TORSDOF 8
ENDMDL
MODEL 8
REMARK VINA RESULT:      -7.3      2.832      4.247
REMARK  8 active torsions:
REMARK  status: ('A' for Active; 'I' for Inactive)
REMARK    1  A    between atoms: O1_2  and  C2_3 
REMARK    2  A    between atoms: C5_6  and  O2_7 
REMARK    3  A    between atoms: O2_7  and  C6_8 
REMARK    4  A    between atoms: C6_8  and  N1_9 
REMARK    5  A    between atoms: C7_10  and  C8_11 
REMARK    6  A    between atoms: C10_13  and  N2_14 
REMARK    7  A    between atoms: N2_14  and  C11_15 
REMARK    8  A    between atoms: C18_24  and  N4_25 
ROOT
HETATM    1  C8  UNL     1      27.444   7.561  48.977  1.00  0.00     0.048 C 
HETATM    2  C9  UNL     1      26.395   6.840  48.604  1.00  0.00     0.057 C 
HETATM    3  C10 UNL     1      25.284   7.056  49.570  1.00  0.00     0.290 C 
HETATM    4  C17 UNL     1      24.716   8.396  49.238  1.00  0.00     0.157 C 
HETATM    5  N3  UNL     1      25.736   9.163  49.363  1.00  0.00    -0.228 NA
HETATM    6  C18 UNL     1      26.835   8.453  49.972  1.00  0.00     0.473 C 
HETATM    7  N5  UNL     1      26.067   7.445  50.735  1.00  0.00     0.189 N 
HETATM    8  H19 UNL     1      26.753   6.711  51.031  1.00  0.00     0.326 HD
ENDROOT
BRANCH   1   9
HETATM    9  C7  UNL     1      28.779   7.373  48.434  1.00  0.00     0.013 A 
HETATM   10  C5  UNL     1      29.632   8.349  48.045  1.00  0.00     0.082 A 
HETATM   11  C4  UNL     1      30.892   8.072  47.543  1.00  0.00     0.040 A 
HETATM   12  C3  UNL     1      31.364   6.784  47.405  1.00  0.00     0.039 A 
HETATM   13  C2  UNL     1      30.497   5.786  47.800  1.00  0.00     0.069 A 
HETATM   14  C19 UNL     1      29.241   6.083  48.299  1.00  0.00     0.051 A 
BRANCH  10  15
HETATM   15  O2  UNL     1      29.247   9.673  48.145  1.00  0.00    -0.321 OA
BRANCH  15  16
HETATM   16  C6  UNL     1      30.146  10.652  48.586  1.00  0.00     0.441 C 
BRANCH  16  17
HETATM   17  N1  UNL     1      29.455  11.766  49.206  1.00  0.00     0.101 N 
HETATM   18  H8  UNL     1      28.497  11.458  49.451  1.00  0.00     0.315 HD
HETATM   19  H9  UNL     1      29.962  12.102  50.050  1.00  0.00     0.315 HD
ENDBRANCH  16  17
ENDBRANCH  15  16
ENDBRANCH  10  15
BRANCH  13  20
HETATM   20  O1  UNL     1      31.003   4.500  47.648  1.00  0.00    -0.356 OA
HETATM   21  C1  UNL     1      32.408   4.364  47.451  1.00  0.00     0.210 C 
ENDBRANCH  13  20
ENDBRANCH   1   9
BRANCH   6  22
HETATM   22  N4  UNL     1      27.673   9.238  50.771  1.00  0.00     0.146 N 
HETATM   23  H17 UNL     1      28.544   8.708  51.019  1.00  0.00     0.319 HD
HETATM   24  H18 UNL     1      27.940  10.109  50.286  1.00  0.00     0.319 HD
ENDBRANCH   6  22
BRANCH   3  25
HETATM   25  N2  UNL     1      24.392   6.009  49.759  1.00  0.00    -0.348 N 
HETATM   26  H11 UNL     1      23.642   5.950  49.010  1.00  0.00     0.163 HD
BRANCH  25  27
HETATM   27  C11 UNL     1      24.316   5.029  50.757  1.00  0.00     0.031 A 
HETATM   28  C12 UNL     1      23.426   5.037  51.812  1.00  0.00     0.029 A 
HETATM   29  C13 UNL     1      23.410   4.046  52.751  1.00  0.00     0.004 A 
HETATM   30  C14 UNL     1      24.313   2.992  52.649  1.00  0.00     0.019 A 
HETATM   31  C15 UNL     1      25.221   2.943  51.608  1.00  0.00     0.013 A 
HETATM   32 BR1  UNL     1      26.412   1.466  51.554  1.00  0.00    -0.051 Br
HETATM   33  C16 UNL     1      25.211   3.968  50.672  1.00  0.00     0.048 A 
ENDBRANCH  25  27
ENDBRANCH   3  25
TORSDOF 8
ENDMDL
MODEL 9
REMARK VINA RESULT:      -7.2      3.787      7.516
REMARK  8 active torsions:
REMARK  status: ('A' for Active; 'I' for Inactive)
REMARK    1  A    between atoms: O1_2  and  C2_3 
REMARK    2  A    between atoms: C5_6  and  O2_7 
REMARK    3  A    between atoms: O2_7  and  C6_8 
REMARK    4  A    between atoms: C6_8  and  N1_9 
REMARK    5  A    between atoms: C7_10  and  C8_11 
REMARK    6  A    between atoms: C10_13  and  N2_14 
REMARK    7  A    between atoms: N2_14  and  C11_15 
REMARK    8  A    between atoms: C18_24  and  N4_25 
ROOT
HETATM    1  C8  UNL     1      23.705   2.355  51.647  1.00  0.00     0.048 C 
HETATM    2  C9  UNL     1      24.109   3.606  51.828  1.00  0.00     0.057 C 
HETATM    3  C10 UNL     1      23.690   4.428  50.661  1.00  0.00     0.290 C 
HETATM    4  C17 UNL     1      22.229   4.676  50.847  1.00  0.00     0.157 C 
HETATM    5  N3  UNL     1      21.755   3.486  50.903  1.00  0.00    -0.228 NA
HETATM    6  C18 UNL     1      22.762   2.520  50.534  1.00  0.00     0.473 C 
HETATM    7  N5  UNL     1      23.595   3.375  49.660  1.00  0.00     0.189 N 
HETATM    8  H19 UNL     1      24.498   2.863  49.518  1.00  0.00     0.326 HD
ENDROOT
BRANCH   1   9
HETATM    9  C7  UNL     1      24.184   1.236  52.441  1.00  0.00     0.013 A 
HETATM   10  C5  UNL     1      25.468   0.823  52.554  1.00  0.00     0.082 A 
HETATM   11  C4  UNL     1      25.831  -0.255  53.342  1.00  0.00     0.040 A 
HETATM   12  C3  UNL     1      24.910  -0.983  54.065  1.00  0.00     0.039 A 
HETATM   13  C2  UNL     1      23.600  -0.566  53.952  1.00  0.00     0.069 A 
HETATM   14  C19 UNL     1      23.256   0.515  53.159  1.00  0.00     0.051 A 
BRANCH  10  15
HETATM   15  O2  UNL     1      26.464   1.490  51.865  1.00  0.00    -0.321 OA
BRANCH  15  16
HETATM   16  C6  UNL     1      27.540   2.075  52.542  1.00  0.00     0.441 C 
BRANCH  16  17
HETATM   17  N1  UNL     1      27.111   2.707  53.775  1.00  0.00     0.101 N 
HETATM   18  H8  UNL     1      26.931   1.965  54.474  1.00  0.00     0.315 HD
HETATM   19  H9  UNL     1      27.825   3.378  54.124  1.00  0.00     0.315 HD
ENDBRANCH  16  17
ENDBRANCH  15  16
ENDBRANCH  10  15
BRANCH  13  20
HETATM   20  O1  UNL     1      22.697  -1.321  54.694  1.00  0.00    -0.356 OA
HETATM   21  C1  UNL     1      21.335  -0.903  54.698  1.00  0.00     0.210 C 
ENDBRANCH  13  20
ENDBRANCH   1   9
BRANCH   6  22
HETATM   22  N4  UNL     1      22.273   1.376  49.893  1.00  0.00     0.146 N 
HETATM   23  H17 UNL     1      22.491   0.519  50.458  1.00  0.00     0.319 HD
HETATM   24  H18 UNL     1      21.252   1.435  49.757  1.00  0.00     0.319 HD
ENDBRANCH   6  22
BRANCH   3  25
HETATM   25  N2  UNL     1      24.489   5.514  50.328  1.00  0.00    -0.348 N 
HETATM   26  H11 UNL     1      24.101   6.444  50.660  1.00  0.00     0.163 HD
BRANCH  25  27
HETATM   27  C11 UNL     1      25.704   5.588  49.636  1.00  0.00     0.031 A 
HETATM   28  C12 UNL     1      26.536   4.519  49.373  1.00  0.00     0.029 A 
HETATM   29  C13 UNL     1      27.710   4.668  48.692  1.00  0.00     0.004 A 
HETATM   30  C14 UNL     1      28.088   5.931  48.246  1.00  0.00     0.019 A 
HETATM   31  C15 UNL     1      27.285   7.030  48.487  1.00  0.00     0.013 A 
HETATM   32 BR1  UNL     1      27.884   8.711  47.840  1.00  0.00    -0.051 Br
HETATM   33  C16 UNL     1      26.098   6.844  49.183  1.00  0.00     0.048 A 
ENDBRANCH  25  27
ENDBRANCH   3  25
TORSDOF 8
ENDMDL
