MODEL 1
REMARK VINA RESULT:      -6.7      0.000      0.000
REMARK  7 active torsions:
REMARK  status: ('A' for Active; 'I' for Inactive)
REMARK    1  A    between atoms: C3_3  and  C4_4 
REMARK    2  A    between atoms: C3_3  and  N4_18 
REMARK    3  A    between atoms: C4_4  and  C5_5 
REMARK    4  A    between atoms: C5_5  and  N1_6 
REMARK    5  A    between atoms: C6_7  and  N2_8 
REMARK    6  A    between atoms: C7_9  and  N3_10 
REMARK    7  A    between atoms: N3_10  and  C8_11 
REMARK       I    between atoms: N4_18  and  C14_19 
REMARK       I    between atoms: C14_19  and  N5_20 
ROOT
HETATM    1  N1  UNL     1      22.664   1.718  50.668  1.00  0.00    -0.282 NA
HETATM    2  C6  UNL     1      21.718   1.575  51.551  1.00  0.00     0.227 C 
ENDROOT
BRANCH   1   3
HETATM    3  C5  UNL     1      22.631   2.730  49.630  1.00  0.00     0.156 C 
BRANCH   3   4
HETATM    4  C4  UNL     1      23.987   3.286  49.327  1.00  0.00     0.078 C 
BRANCH   4   5
HETATM    5  C3  UNL     1      24.797   3.299  50.549  1.00  0.00     0.011 C 
HETATM    6  C2  UNL     1      25.917   2.558  50.632  1.00  0.00    -0.006 C 
HETATM    7  C1  UNL     1      26.978   2.297  51.643  1.00  0.00     0.038 C 
BRANCH   5   8
HETATM    8  N4  UNL     1      24.754   3.934  51.814  1.00  0.00    -0.313 N 
HETATM    9  C14 UNL     1      23.721   4.793  52.279  1.00  0.00     0.318 C 
HETATM   10  N5  UNL     1      23.698   5.422  53.551  1.00  0.00    -0.352 N 
HETATM   11  O1  UNL     1      22.623   5.322  51.973  1.00  0.00    -0.247 OA
HETATM   12  H17 UNL     1      24.091   6.287  54.006  1.00  0.00     0.160 HD
HETATM   13  H18 UNL     1      23.234   5.168  54.473  1.00  0.00     0.160 HD
HETATM   14  H16 UNL     1      25.507   3.830  52.558  1.00  0.00     0.170 HD
ENDBRANCH   5   8
ENDBRANCH   4   5
ENDBRANCH   3   4
ENDBRANCH   1   3
BRANCH   2  15
HETATM   15  N2  UNL     1      22.404   0.486  52.162  1.00  0.00    -0.238 NA
HETATM   16  C7  UNL     1      23.305   0.822  53.054  1.00  0.00     0.208 C 
BRANCH  16  17
HETATM   17  N3  UNL     1      23.986  -0.239  53.661  1.00  0.00    -0.351 N 
HETATM   18  H11 UNL     1      23.437  -1.029  54.117  1.00  0.00     0.166 HD
BRANCH  17  19
HETATM   19  C8  UNL     1      25.393  -0.344  53.721  1.00  0.00     0.033 A 
HETATM   20  C9  UNL     1      26.220   0.289  54.618  1.00  0.00     0.031 A 
HETATM   21  C10 UNL     1      27.588   0.175  54.653  1.00  0.00     0.021 A 
HETATM   22  C11 UNL     1      28.222  -0.631  53.734  1.00  0.00     0.011 A 
HETATM   23 BR1  UNL     1      30.100  -0.826  53.736  1.00  0.00    -0.051 Br
HETATM   24  C12 UNL     1      27.468  -1.295  52.809  1.00  0.00     0.021 A 
HETATM   25  C13 UNL     1      26.101  -1.141  52.822  1.00  0.00     0.031 A 
ENDBRANCH  17  19
ENDBRANCH  16  17
ENDBRANCH   2  15
TORSDOF 7
ENDMDL
MODEL 2
REMARK VINA RESULT:      -6.6      3.187      3.737
REMARK  7 active torsions:
REMARK  status: ('A' for Active; 'I' for Inactive)
REMARK    1  A    between atoms: C3_3  and  C4_4 
REMARK    2  A    between atoms: C3_3  and  N4_18 
REMARK    3  A    between atoms: C4_4  and  C5_5 
REMARK    4  A    between atoms: C5_5  and  N1_6 
REMARK    5  A    between atoms: C6_7  and  N2_8 
REMARK    6  A    between atoms: C7_9  and  N3_10 
REMARK    7  A    between atoms: N3_10  and  C8_11 
REMARK       I    between atoms: N4_18  and  C14_19 
REMARK       I    between atoms: C14_19  and  N5_20 
ROOT
HETATM    1  N1  UNL     1      24.000   5.627  51.615  1.00  0.00    -0.282 NA
HETATM    2  C6  UNL     1      23.311   4.610  51.185  1.00  0.00     0.227 C 
ENDROOT
BRANCH   1   3
HETATM    3  C5  UNL     1      24.028   6.909  50.936  1.00  0.00     0.156 C 
BRANCH   3   4
HETATM    4  C4  UNL     1      24.429   6.788  49.499  1.00  0.00     0.078 C 
BRANCH   4   5
HETATM    5  C3  UNL     1      25.885   6.642  49.406  1.00  0.00     0.011 C 
HETATM    6  C2  UNL     1      26.426   5.537  48.860  1.00  0.00    -0.006 C 
HETATM    7  C1  UNL     1      27.793   5.015  48.586  1.00  0.00     0.038 C 
BRANCH   5   8
HETATM    8  N4  UNL     1      27.028   7.404  49.753  1.00  0.00    -0.313 N 
HETATM    9  C14 UNL     1      27.035   8.785  50.089  1.00  0.00     0.318 C 
HETATM   10  N5  UNL     1      28.193   9.532  50.432  1.00  0.00    -0.352 N 
HETATM   11  O1  UNL     1      26.311   9.801  50.234  1.00  0.00    -0.247 OA
HETATM   12  H17 UNL     1      28.971  10.044  49.940  1.00  0.00     0.160 HD
HETATM   13  H18 UNL     1      28.628   9.801  51.365  1.00  0.00     0.160 HD
HETATM   14  H16 UNL     1      28.015   7.010  49.795  1.00  0.00     0.170 HD
ENDBRANCH   5   8
ENDBRANCH   4   5
ENDBRANCH   3   4
ENDBRANCH   1   3
BRANCH   2  15
HETATM   15  N2  UNL     1      23.750   3.806  52.275  1.00  0.00    -0.238 NA
HETATM   16  C7  UNL     1      23.652   2.511  52.090  1.00  0.00     0.208 C 
BRANCH  16  17
HETATM   17  N3  UNL     1      24.082   1.709  53.154  1.00  0.00    -0.351 N 
HETATM   18  H11 UNL     1      23.453   1.574  54.003  1.00  0.00     0.166 HD
BRANCH  17  19
HETATM   19  C8  UNL     1      25.328   1.045  53.190  1.00  0.00     0.033 A 
HETATM   20  C9  UNL     1      25.705  -0.022  52.410  1.00  0.00     0.031 A 
HETATM   21  C10 UNL     1      26.923  -0.654  52.466  1.00  0.00     0.021 A 
HETATM   22  C11 UNL     1      27.872  -0.213  53.362  1.00  0.00     0.011 A 
HETATM   23 BR1  UNL     1      29.562  -1.045  53.482  1.00  0.00    -0.051 Br
HETATM   24  C12 UNL     1      27.572   0.843  54.173  1.00  0.00     0.021 A 
HETATM   25  C13 UNL     1      26.334   1.437  54.072  1.00  0.00     0.031 A 
ENDBRANCH  17  19
ENDBRANCH  16  17
ENDBRANCH   2  15
TORSDOF 7
ENDMDL
MODEL 3
REMARK VINA RESULT:      -6.3      3.797      6.390
REMARK  7 active torsions:
REMARK  status: ('A' for Active; 'I' for Inactive)
REMARK    1  A    between atoms: C3_3  and  C4_4 
REMARK    2  A    between atoms: C3_3  and  N4_18 
REMARK    3  A    between atoms: C4_4  and  C5_5 
REMARK    4  A    between atoms: C5_5  and  N1_6 
REMARK    5  A    between atoms: C6_7  and  N2_8 
REMARK    6  A    between atoms: C7_9  and  N3_10 
REMARK    7  A    between atoms: N3_10  and  C8_11 
REMARK       I    between atoms: N4_18  and  C14_19 
REMARK       I    between atoms: C14_19  and  N5_20 
ROOT
HETATM    1  N1  UNL     1      24.762   1.383  52.527  1.00  0.00    -0.282 NA
HETATM    2  C6  UNL     1      23.659   1.353  51.837  1.00  0.00     0.227 C 
ENDROOT
BRANCH   1   3
HETATM    3  C5  UNL     1      25.310   0.218  53.195  1.00  0.00     0.156 C 
BRANCH   3   4
HETATM    4  C4  UNL     1      26.266  -0.543  52.330  1.00  0.00     0.078 C 
BRANCH   4   5
HETATM    5  C3  UNL     1      27.559  -0.660  53.012  1.00  0.00     0.011 C 
HETATM    6  C2  UNL     1      28.280  -1.792  52.915  1.00  0.00    -0.006 C 
HETATM    7  C1  UNL     1      29.583  -2.301  53.426  1.00  0.00     0.038 C 
BRANCH   5   8
HETATM    8  N4  UNL     1      28.375   0.155  53.834  1.00  0.00    -0.313 N 
HETATM    9  C14 UNL     1      28.711   1.514  53.586  1.00  0.00     0.318 C 
HETATM   10  N5  UNL     1      29.534   2.314  54.422  1.00  0.00    -0.352 N 
HETATM   11  O1  UNL     1      28.551   2.473  52.790  1.00  0.00    -0.247 OA
HETATM   12  H17 UNL     1      30.561   2.492  54.573  1.00  0.00     0.160 HD
HETATM   13  H18 UNL     1      29.316   3.015  55.191  1.00  0.00     0.160 HD
HETATM   14  H16 UNL     1      28.831  -0.176  54.736  1.00  0.00     0.170 HD
ENDBRANCH   5   8
ENDBRANCH   4   5
ENDBRANCH   3   4
ENDBRANCH   1   3
BRANCH   2  15
HETATM   15  N2  UNL     1      23.771   2.739  51.528  1.00  0.00    -0.238 NA
HETATM   16  C7  UNL     1      24.392   3.012  50.405  1.00  0.00     0.208 C 
BRANCH  16  17
HETATM   17  N3  UNL     1      24.509   4.370  50.089  1.00  0.00    -0.351 N 
HETATM   18  H11 UNL     1      23.715   5.039  50.324  1.00  0.00     0.166 HD
BRANCH  17  19
HETATM   19  C8  UNL     1      25.638   4.941  49.460  1.00  0.00     0.033 A 
HETATM   20  C9  UNL     1      26.843   4.320  49.231  1.00  0.00     0.031 A 
HETATM   21  C10 UNL     1      27.929   4.897  48.619  1.00  0.00     0.021 A 
HETATM   22  C11 UNL     1      27.845   6.201  48.185  1.00  0.00     0.011 A 
HETATM   23 BR1  UNL     1      29.306   7.044  47.338  1.00  0.00    -0.051 Br
HETATM   24  C12 UNL     1      26.679   6.885  48.375  1.00  0.00     0.021 A 
HETATM   25  C13 UNL     1      25.624   6.255  48.995  1.00  0.00     0.031 A 
ENDBRANCH  17  19
ENDBRANCH  16  17
ENDBRANCH   2  15
TORSDOF 7
ENDMDL
MODEL 4
REMARK VINA RESULT:      -6.3      2.803      4.863
REMARK  7 active torsions:
REMARK  status: ('A' for Active; 'I' for Inactive)
REMARK    1  A    between atoms: C3_3  and  C4_4 
REMARK    2  A    between atoms: C3_3  and  N4_18 
REMARK    3  A    between atoms: C4_4  and  C5_5 
REMARK    4  A    between atoms: C5_5  and  N1_6 
REMARK    5  A    between atoms: C6_7  and  N2_8 
REMARK    6  A    between atoms: C7_9  and  N3_10 
REMARK    7  A    between atoms: N3_10  and  C8_11 
REMARK       I    between atoms: N4_18  and  C14_19 
REMARK       I    between atoms: C14_19  and  N5_20 
ROOT
HETATM    1  N1  UNL     1      22.234   2.893  52.203  1.00  0.00    -0.282 NA
HETATM    2  C6  UNL     1      22.251   4.110  51.743  1.00  0.00     0.227 C 
ENDROOT
BRANCH   1   3
HETATM    3  C5  UNL     1      21.020   2.109  52.325  1.00  0.00     0.156 C 
BRANCH   3   4
HETATM    4  C4  UNL     1      21.216   0.680  51.923  1.00  0.00     0.078 C 
BRANCH   4   5
HETATM    5  C3  UNL     1      21.076  -0.185  53.098  1.00  0.00     0.011 C 
HETATM    6  C2  UNL     1      22.150  -0.488  53.851  1.00  0.00    -0.006 C 
HETATM    7  C1  UNL     1      22.432  -1.294  55.071  1.00  0.00     0.038 C 
BRANCH   5   8
HETATM    8  N4  UNL     1      20.032  -0.874  53.760  1.00  0.00    -0.313 N 
HETATM    9  C14 UNL     1      18.715  -1.067  53.260  1.00  0.00     0.318 C 
HETATM   10  N5  UNL     1      17.680  -1.759  53.941  1.00  0.00    -0.352 N 
HETATM   11  O1  UNL     1      17.951  -0.836  52.290  1.00  0.00    -0.247 OA
HETATM   12  H17 UNL     1      16.954  -1.558  54.678  1.00  0.00     0.160 HD
HETATM   13  H18 UNL     1      17.324  -2.760  53.887  1.00  0.00     0.160 HD
HETATM   14  H16 UNL     1      20.129  -1.324  54.720  1.00  0.00     0.170 HD
ENDBRANCH   5   8
ENDBRANCH   4   5
ENDBRANCH   3   4
ENDBRANCH   1   3
BRANCH   2  15
HETATM   15  N2  UNL     1      23.662   4.195  51.916  1.00  0.00    -0.238 NA
HETATM   16  C7  UNL     1      24.315   3.069  51.747  1.00  0.00     0.208 C 
BRANCH  16  17
HETATM   17  N3  UNL     1      25.703   3.139  51.914  1.00  0.00    -0.351 N 
HETATM   18  H11 UNL     1      26.207   4.066  51.772  1.00  0.00     0.166 HD
BRANCH  17  19
HETATM   19  C8  UNL     1      26.513   2.037  52.266  1.00  0.00     0.033 A 
HETATM   20  C9  UNL     1      26.228   0.712  52.038  1.00  0.00     0.031 A 
HETATM   21  C10 UNL     1      27.030  -0.345  52.393  1.00  0.00     0.021 A 
HETATM   22  C11 UNL     1      28.226  -0.100  53.031  1.00  0.00     0.011 A 
HETATM   23 BR1  UNL     1      29.368  -1.513  53.542  1.00  0.00    -0.051 Br
HETATM   24  C12 UNL     1      28.580   1.192  53.293  1.00  0.00     0.021 A 
HETATM   25  C13 UNL     1      27.735   2.210  52.914  1.00  0.00     0.031 A 
ENDBRANCH  17  19
ENDBRANCH  16  17
ENDBRANCH   2  15
TORSDOF 7
ENDMDL
MODEL 5
REMARK VINA RESULT:      -6.2      1.559      2.424
REMARK  7 active torsions:
REMARK  status: ('A' for Active; 'I' for Inactive)
REMARK    1  A    between atoms: C3_3  and  C4_4 
REMARK    2  A    between atoms: C3_3  and  N4_18 
REMARK    3  A    between atoms: C4_4  and  C5_5 
REMARK    4  A    between atoms: C5_5  and  N1_6 
REMARK    5  A    between atoms: C6_7  and  N2_8 
REMARK    6  A    between atoms: C7_9  and  N3_10 
REMARK    7  A    between atoms: N3_10  and  C8_11 
REMARK       I    between atoms: N4_18  and  C14_19 
REMARK       I    between atoms: C14_19  and  N5_20 
ROOT
HETATM    1  N1  UNL     1      22.846   1.590  51.160  1.00  0.00    -0.282 NA
HETATM    2  C6  UNL     1      21.985   1.666  52.133  1.00  0.00     0.227 C 
ENDROOT
BRANCH   1   3
HETATM    3  C5  UNL     1      22.526   1.946  49.790  1.00  0.00     0.156 C 
BRANCH   3   4
HETATM    4  C4  UNL     1      23.482   2.948  49.219  1.00  0.00     0.078 C 
BRANCH   4   5
HETATM    5  C3  UNL     1      24.024   3.779  50.298  1.00  0.00     0.011 C 
HETATM    6  C2  UNL     1      23.668   5.073  50.404  1.00  0.00    -0.006 C 
HETATM    7  C1  UNL     1      23.973   6.215  51.310  1.00  0.00     0.038 C 
BRANCH   5   8
HETATM    8  N4  UNL     1      24.908   3.613  51.391  1.00  0.00    -0.313 N 
HETATM    9  C14 UNL     1      26.150   2.921  51.358  1.00  0.00     0.318 C 
HETATM   10  N5  UNL     1      27.022   2.762  52.467  1.00  0.00    -0.352 N 
HETATM   11  O1  UNL     1      26.935   2.275  50.621  1.00  0.00    -0.247 OA
HETATM   12  H17 UNL     1      27.129   2.122  53.296  1.00  0.00     0.160 HD
HETATM   13  H18 UNL     1      27.883   3.296  52.789  1.00  0.00     0.160 HD
HETATM   14  H16 UNL     1      24.728   3.995  52.367  1.00  0.00     0.170 HD
ENDBRANCH   5   8
ENDBRANCH   4   5
ENDBRANCH   3   4
ENDBRANCH   1   3
BRANCH   2  15
HETATM   15  N2  UNL     1      22.949   1.197  53.071  1.00  0.00    -0.238 NA
HETATM   16  C7  UNL     1      22.954  -0.101  53.266  1.00  0.00     0.208 C 
BRANCH  16  17
HETATM   17  N3  UNL     1      23.897  -0.574  54.185  1.00  0.00    -0.351 N 
HETATM   18  H11 UNL     1      23.573  -1.005  55.103  1.00  0.00     0.166 HD
BRANCH  17  19
HETATM   19  C8  UNL     1      25.294  -0.520  53.982  1.00  0.00     0.033 A 
HETATM   20  C9  UNL     1      25.974  -0.965  52.873  1.00  0.00     0.031 A 
HETATM   21  C10 UNL     1      27.335  -0.905  52.700  1.00  0.00     0.021 A 
HETATM   22  C11 UNL     1      28.118  -0.361  53.693  1.00  0.00     0.011 A 
HETATM   23 BR1  UNL     1      29.994  -0.253  53.508  1.00  0.00    -0.051 Br
HETATM   24  C12 UNL     1      27.517   0.104  54.826  1.00  0.00     0.021 A 
HETATM   25  C13 UNL     1      26.148   0.017  54.944  1.00  0.00     0.031 A 
ENDBRANCH  17  19
ENDBRANCH  16  17
ENDBRANCH   2  15
TORSDOF 7
ENDMDL
MODEL 6
REMARK VINA RESULT:      -6.2      4.452      7.131
REMARK  7 active torsions:
REMARK  status: ('A' for Active; 'I' for Inactive)
REMARK    1  A    between atoms: C3_3  and  C4_4 
REMARK    2  A    between atoms: C3_3  and  N4_18 
REMARK    3  A    between atoms: C4_4  and  C5_5 
REMARK    4  A    between atoms: C5_5  and  N1_6 
REMARK    5  A    between atoms: C6_7  and  N2_8 
REMARK    6  A    between atoms: C7_9  and  N3_10 
REMARK    7  A    between atoms: N3_10  and  C8_11 
REMARK       I    between atoms: N4_18  and  C14_19 
REMARK       I    between atoms: C14_19  and  N5_20 
ROOT
HETATM    1  N1  UNL     1      25.375   2.804  51.208  1.00  0.00    -0.282 NA
HETATM    2  C6  UNL     1      24.210   2.590  50.668  1.00  0.00     0.227 C 
ENDROOT
BRANCH   1   3
HETATM    3  C5  UNL     1      25.816   2.149  52.425  1.00  0.00     0.156 C 
BRANCH   3   4
HETATM    4  C4  UNL     1      26.105   0.694  52.222  1.00  0.00     0.078 C 
BRANCH   4   5
HETATM    5  C3  UNL     1      27.313   0.325  52.965  1.00  0.00     0.011 C 
HETATM    6  C2  UNL     1      28.071   1.273  53.548  1.00  0.00    -0.006 C 
HETATM    7  C1  UNL     1      29.319   1.323  54.358  1.00  0.00     0.038 C 
BRANCH   5   8
HETATM    8  N4  UNL     1      28.002  -0.867  53.299  1.00  0.00    -0.313 N 
HETATM    9  C14 UNL     1      27.714  -2.163  52.791  1.00  0.00     0.318 C 
HETATM   10  N5  UNL     1      28.415  -3.347  53.140  1.00  0.00    -0.352 N 
HETATM   11  O1  UNL     1      26.960  -2.811  52.023  1.00  0.00    -0.247 OA
HETATM   12  H17 UNL     1      28.404  -4.068  53.907  1.00  0.00     0.160 HD
HETATM   13  H18 UNL     1      29.214  -3.875  52.678  1.00  0.00     0.160 HD
HETATM   14  H16 UNL     1      28.819  -0.912  53.978  1.00  0.00     0.170 HD
ENDBRANCH   5   8
ENDBRANCH   4   5
ENDBRANCH   3   4
ENDBRANCH   1   3
BRANCH   2  15
HETATM   15  N2  UNL     1      24.491   3.505  49.613  1.00  0.00    -0.238 NA
HETATM   16  C7  UNL     1      24.951   4.673  49.994  1.00  0.00     0.208 C 
BRANCH  16  17
HETATM   17  N3  UNL     1      25.231   5.581  48.967  1.00  0.00    -0.351 N 
HETATM   18  H11 UNL     1      24.433   6.059  48.450  1.00  0.00     0.166 HD
BRANCH  17  19
HETATM   19  C8  UNL     1      26.537   5.921  48.547  1.00  0.00     0.033 A 
HETATM   20  C9  UNL     1      26.925   7.112  47.981  1.00  0.00     0.031 A 
HETATM   21  C10 UNL     1      28.202   7.419  47.577  1.00  0.00     0.021 A 
HETATM   22  C11 UNL     1      29.202   6.485  47.733  1.00  0.00     0.011 A 
HETATM   23 BR1  UNL     1      30.974   6.853  47.195  1.00  0.00    -0.051 Br
HETATM   24  C12 UNL     1      28.894   5.277  48.288  1.00  0.00     0.021 A 
HETATM   25  C13 UNL     1      27.597   5.025  48.675  1.00  0.00     0.031 A 
ENDBRANCH  17  19
ENDBRANCH  16  17
ENDBRANCH   2  15
TORSDOF 7
ENDMDL
MODEL 7
REMARK VINA RESULT:      -6.1      4.365      6.605
REMARK  7 active torsions:
REMARK  status: ('A' for Active; 'I' for Inactive)
REMARK    1  A    between atoms: C3_3  and  C4_4 
REMARK    2  A    between atoms: C3_3  and  N4_18 
REMARK    3  A    between atoms: C4_4  and  C5_5 
REMARK    4  A    between atoms: C5_5  and  N1_6 
REMARK    5  A    between atoms: C6_7  and  N2_8 
REMARK    6  A    between atoms: C7_9  and  N3_10 
REMARK    7  A    between atoms: N3_10  and  C8_11 
REMARK       I    between atoms: N4_18  and  C14_19 
REMARK       I    between atoms: C14_19  and  N5_20 
ROOT
HETATM    1  N1  UNL     1      23.987   2.988  50.767  1.00  0.00    -0.282 NA
HETATM    2  C6  UNL     1      23.335   2.798  49.656  1.00  0.00     0.227 C 
ENDROOT
BRANCH   1   3
HETATM    3  C5  UNL     1      24.017   2.016  51.843  1.00  0.00     0.156 C 
BRANCH   3   4
HETATM    4  C4  UNL     1      24.785   2.501  53.033  1.00  0.00     0.078 C 
BRANCH   4   5
HETATM    5  C3  UNL     1      25.877   1.567  53.327  1.00  0.00     0.011 C 
HETATM    6  C2  UNL     1      25.897   0.345  52.763  1.00  0.00    -0.006 C 
HETATM    7  C1  UNL     1      26.781  -0.853  52.792  1.00  0.00     0.038 C 
BRANCH   5   8
HETATM    8  N4  UNL     1      27.054   1.563  54.113  1.00  0.00    -0.313 N 
HETATM    9  C14 UNL     1      28.299   2.148  53.749  1.00  0.00     0.318 C 
HETATM   10  N5  UNL     1      29.470   2.130  54.551  1.00  0.00    -0.352 N 
HETATM   11  O1  UNL     1      28.898   2.788  52.849  1.00  0.00    -0.247 OA
HETATM   12  H17 UNL     1      30.275   1.481  54.750  1.00  0.00     0.160 HD
HETATM   13  H18 UNL     1      29.891   2.834  55.228  1.00  0.00     0.160 HD
HETATM   14  H16 UNL     1      27.129   1.111  55.073  1.00  0.00     0.170 HD
ENDBRANCH   5   8
ENDBRANCH   4   5
ENDBRANCH   3   4
ENDBRANCH   1   3
BRANCH   2  15
HETATM   15  N2  UNL     1      23.745   4.068  49.156  1.00  0.00    -0.238 NA
HETATM   16  C7  UNL     1      24.965   4.428  49.478  1.00  0.00     0.208 C 
BRANCH  16  17
HETATM   17  N3  UNL     1      25.379   5.674  48.993  1.00  0.00    -0.351 N 
HETATM   18  H11 UNL     1      24.686   6.480  48.943  1.00  0.00     0.166 HD
BRANCH  17  19
HETATM   19  C8  UNL     1      26.691   5.951  48.546  1.00  0.00     0.033 A 
HETATM   20  C9  UNL     1      27.771   5.104  48.616  1.00  0.00     0.031 A 
HETATM   21  C10 UNL     1      29.039   5.398  48.179  1.00  0.00     0.021 A 
HETATM   22  C11 UNL     1      29.291   6.630  47.618  1.00  0.00     0.011 A 
HETATM   23 BR1  UNL     1      31.015   7.087  46.999  1.00  0.00    -0.051 Br
HETATM   24  C12 UNL     1      28.268   7.527  47.513  1.00  0.00     0.021 A 
HETATM   25  C13 UNL     1      27.017   7.177  47.969  1.00  0.00     0.031 A 
ENDBRANCH  17  19
ENDBRANCH  16  17
ENDBRANCH   2  15
TORSDOF 7
ENDMDL
MODEL 8
REMARK VINA RESULT:      -5.9      6.133      7.471
REMARK  7 active torsions:
REMARK  status: ('A' for Active; 'I' for Inactive)
REMARK    1  A    between atoms: C3_3  and  C4_4 
REMARK    2  A    between atoms: C3_3  and  N4_18 
REMARK    3  A    between atoms: C4_4  and  C5_5 
REMARK    4  A    between atoms: C5_5  and  N1_6 
REMARK    5  A    between atoms: C6_7  and  N2_8 
REMARK    6  A    between atoms: C7_9  and  N3_10 
REMARK    7  A    between atoms: N3_10  and  C8_11 
REMARK       I    between atoms: N4_18  and  C14_19 
REMARK       I    between atoms: C14_19  and  N5_20 
ROOT
HETATM    1  N1  UNL     1      28.674   5.059  48.568  1.00  0.00    -0.282 NA
HETATM    2  C6  UNL     1      27.376   5.088  48.659  1.00  0.00     0.227 C 
ENDROOT
BRANCH   1   3
HETATM    3  C5  UNL     1      29.448   6.114  47.942  1.00  0.00     0.156 C 
BRANCH   3   4
HETATM    4  C4  UNL     1      30.742   6.374  48.648  1.00  0.00     0.078 C 
BRANCH   4   5
HETATM    5  C3  UNL     1      31.725   5.356  48.263  1.00  0.00     0.011 C 
HETATM    6  C2  UNL     1      31.553   4.634  47.140  1.00  0.00    -0.006 C 
HETATM    7  C1  UNL     1      32.280   3.553  46.420  1.00  0.00     0.038 C 
BRANCH   5   8
HETATM    8  N4  UNL     1      32.943   4.846  48.773  1.00  0.00    -0.313 N 
HETATM    9  C14 UNL     1      34.170   5.559  48.862  1.00  0.00     0.318 C 
HETATM   10  N5  UNL     1      35.383   5.029  49.374  1.00  0.00    -0.352 N 
HETATM   11  O1  UNL     1      34.725   6.663  48.633  1.00  0.00    -0.247 OA
HETATM   12  H17 UNL     1      36.192   4.449  49.032  1.00  0.00     0.160 HD
HETATM   13  H18 UNL     1      35.846   5.080  50.330  1.00  0.00     0.160 HD
HETATM   14  H16 UNL     1      33.066   3.858  49.146  1.00  0.00     0.170 HD
ENDBRANCH   5   8
ENDBRANCH   4   5
ENDBRANCH   3   4
ENDBRANCH   1   3
BRANCH   2  15
HETATM   15  N2  UNL     1      27.358   3.832  49.330  1.00  0.00    -0.238 NA
HETATM   16  C7  UNL     1      26.343   3.645  50.140  1.00  0.00     0.208 C 
BRANCH  16  17
HETATM   17  N3  UNL     1      26.315   2.414  50.805  1.00  0.00    -0.351 N 
HETATM   18  H11 UNL     1      27.180   1.794  50.810  1.00  0.00     0.166 HD
BRANCH  17  19
HETATM   19  C8  UNL     1      25.187   1.914  51.493  1.00  0.00     0.033 A 
HETATM   20  C9  UNL     1      23.875   2.249  51.256  1.00  0.00     0.031 A 
HETATM   21  C10 UNL     1      22.793   1.751  51.940  1.00  0.00     0.021 A 
HETATM   22  C11 UNL     1      22.996   0.839  52.953  1.00  0.00     0.011 A 
HETATM   23 BR1  UNL     1      21.546   0.122  53.927  1.00  0.00    -0.051 Br
HETATM   24  C12 UNL     1      24.273   0.456  53.248  1.00  0.00     0.021 A 
HETATM   25  C13 UNL     1      25.317   0.989  52.528  1.00  0.00     0.031 A 
ENDBRANCH  17  19
ENDBRANCH  16  17
ENDBRANCH   2  15
TORSDOF 7
ENDMDL
MODEL 9
REMARK VINA RESULT:      -5.9      2.741      4.236
REMARK  7 active torsions:
REMARK  status: ('A' for Active; 'I' for Inactive)
REMARK    1  A    between atoms: C3_3  and  C4_4 
REMARK    2  A    between atoms: C3_3  and  N4_18 
REMARK    3  A    between atoms: C4_4  and  C5_5 
REMARK    4  A    between atoms: C5_5  and  N1_6 
REMARK    5  A    between atoms: C6_7  and  N2_8 
REMARK    6  A    between atoms: C7_9  and  N3_10 
REMARK    7  A    between atoms: N3_10  and  C8_11 
REMARK       I    between atoms: N4_18  and  C14_19 
REMARK       I    between atoms: C14_19  and  N5_20 
ROOT
HETATM    1  N1  UNL     1      25.528   4.734  49.385  1.00  0.00    -0.282 NA
HETATM    2  C6  UNL     1      26.767   4.789  48.990  1.00  0.00     0.227 C 
ENDROOT
BRANCH   1   3
HETATM    3  C5  UNL     1      24.566   5.788  49.124  1.00  0.00     0.156 C 
BRANCH   3   4
HETATM    4  C4  UNL     1      23.436   5.333  48.254  1.00  0.00     0.078 C 
BRANCH   4   5
HETATM    5  C3  UNL     1      22.844   4.115  48.816  1.00  0.00     0.011 C 
HETATM    6  C2  UNL     1      22.603   3.050  48.029  1.00  0.00    -0.006 C 
HETATM    7  C1  UNL     1      22.039   1.681  48.192  1.00  0.00     0.038 C 
BRANCH   5   8
HETATM    8  N4  UNL     1      22.400   3.667  50.084  1.00  0.00    -0.313 N 
HETATM    9  C14 UNL     1      21.761   4.467  51.071  1.00  0.00     0.318 C 
HETATM   10  N5  UNL     1      21.326   3.999  52.339  1.00  0.00    -0.352 N 
HETATM   11  O1  UNL     1      21.349   5.624  51.332  1.00  0.00    -0.247 OA
HETATM   12  H17 UNL     1      21.734   3.830  53.295  1.00  0.00     0.160 HD
HETATM   13  H18 UNL     1      20.384   3.663  52.699  1.00  0.00     0.160 HD
HETATM   14  H16 UNL     1      22.505   2.668  50.433  1.00  0.00     0.170 HD
ENDBRANCH   5   8
ENDBRANCH   4   5
ENDBRANCH   3   4
ENDBRANCH   1   3
BRANCH   2  15
HETATM   15  N2  UNL     1      27.045   3.517  49.566  1.00  0.00    -0.238 NA
HETATM   16  C7  UNL     1      26.300   3.195  50.597  1.00  0.00     0.208 C 
BRANCH  16  17
HETATM   17  N3  UNL     1      26.563   1.947  51.172  1.00  0.00    -0.351 N 
HETATM   18  H11 UNL     1      27.514   1.488  51.031  1.00  0.00     0.166 HD
BRANCH  17  19
HETATM   19  C8  UNL     1      25.632   1.222  51.949  1.00  0.00     0.033 A 
HETATM   20  C9  UNL     1      25.903   0.125  52.731  1.00  0.00     0.031 A 
HETATM   21  C10 UNL     1      24.979  -0.567  53.476  1.00  0.00     0.021 A 
HETATM   22  C11 UNL     1      23.663  -0.158  53.467  1.00  0.00     0.011 A 
HETATM   23 BR1  UNL     1      22.351  -1.071  54.472  1.00  0.00    -0.051 Br
HETATM   24  C12 UNL     1      23.315   0.926  52.714  1.00  0.00     0.021 A 
HETATM   25  C13 UNL     1      24.285   1.579  51.988  1.00  0.00     0.031 A 
ENDBRANCH  17  19
ENDBRANCH  16  17
ENDBRANCH   2  15
TORSDOF 7
ENDMDL
