MODEL 1
REMARK VINA RESULT:      -8.8      0.000      0.000
REMARK  6 active torsions:
REMARK  status: ('A' for Active; 'I' for Inactive)
REMARK    1  A    between atoms: O1_2  and  C2_3 
REMARK    2  A    between atoms: N1_6  and  C5_7 
REMARK    3  A    between atoms: C13_18  and  C14_19 
REMARK    4  A    between atoms: C14_19  and  C15_20 
REMARK    5  A    between atoms: C15_20  and  N5_21 
REMARK    6  A    between atoms: N6_32  and  O5_33 
ROOT
HETATM    1  C5  UNL     1      24.241  -0.349  53.707  1.00  0.00     0.141 A 
HETATM    2  N2  UNL     1      24.441  -1.006  54.869  1.00  0.00    -0.224 NA
HETATM    3  C6  UNL     1      23.449  -1.457  55.656  1.00  0.00     0.236 A 
HETATM    4  N3  UNL     1      22.150  -1.279  55.332  1.00  0.00    -0.241 NA
HETATM    5  C7  UNL     1      21.875  -0.630  54.185  1.00  0.00     0.075 A 
HETATM    6  C8  UNL     1      20.541  -0.435  53.831  1.00  0.00     0.071 A 
HETATM    7  C9  UNL     1      20.214   0.234  52.649  1.00  0.00     0.097 A 
HETATM    8  C10 UNL     1      21.269   0.674  51.881  1.00  0.00     0.063 A 
HETATM    9  C11 UNL     1      22.573   0.479  52.233  1.00  0.00     0.049 A 
HETATM   10  C12 UNL     1      22.920  -0.168  53.377  1.00  0.00     0.041 A 
HETATM   11  N4  UNL     1      20.912   1.346  50.691  1.00  0.00    -0.381 N 
HETATM   12  C13 UNL     1      19.610   1.999  50.466  1.00  0.00     0.107 C 
HETATM   13  C20 UNL     1      18.529   1.500  51.344  1.00  0.00     0.200 C 
HETATM   14  O4  UNL     1      18.936   0.472  52.220  1.00  0.00    -0.347 OA
HETATM   15  H10 UNL     1      21.600   1.405  49.885  1.00  0.00     0.160 HD
ENDROOT
BRANCH   1  16
HETATM   16  N1  UNL     1      25.314   0.116  52.895  1.00  0.00    -0.338 N 
HETATM   17  C4  UNL     1      26.367  -0.758  52.390  1.00  0.00     0.158 C 
HETATM   18  C3  UNL     1      27.714  -0.281  52.869  1.00  0.00     0.051 C 
HETATM   19  C2  UNL     1      27.850   1.048  52.719  1.00  0.00     0.164 C 
HETATM   20  N6  UNL     1      26.792   1.857  52.159  1.00  0.00    -0.213 N 
HETATM   21  C21 UNL     1      25.416   1.518  52.519  1.00  0.00     0.214 C 
HETATM   22  C22 UNL     1      25.100   2.306  53.797  1.00  0.00     0.058 C 
BRANCH  19  23
HETATM   23  O1  UNL     1      29.051   1.638  53.121  1.00  0.00    -0.340 OA
HETATM   24  C1  UNL     1      29.417   1.424  54.484  1.00  0.00     0.211 C 
ENDBRANCH  19  23
BRANCH  20  25
HETATM   25  O5  UNL     1      27.168   2.856  51.351  1.00  0.00    -0.279 OA
HETATM   26  C23 UNL     1      26.330   3.119  50.301  1.00  0.00     0.238 C 
ENDBRANCH  20  25
ENDBRANCH   1  16
BRANCH  12  27
HETATM   27  C14 UNL     1      19.287   2.115  49.026  1.00  0.00     0.047 C 
BRANCH  27  28
HETATM   28  C15 UNL     1      20.362   2.473  48.082  1.00  0.00     0.128 C 
BRANCH  28  29
HETATM   29  N5  UNL     1      21.137   3.646  48.389  1.00  0.00    -0.348 N 
HETATM   30  C16 UNL     1      20.501   4.970  48.373  1.00  0.00     0.152 C 
HETATM   31  C17 UNL     1      20.970   5.810  49.528  1.00  0.00     0.188 C 
HETATM   32  O2  UNL     1      22.323   5.727  49.792  1.00  0.00    -0.380 OA
HETATM   33  C18 UNL     1      23.048   5.111  48.773  1.00  0.00     0.270 C 
HETATM   34  C19 UNL     1      22.540   3.705  48.729  1.00  0.00     0.243 C 
HETATM   35  O3  UNL     1      23.076   2.561  48.926  1.00  0.00    -0.271 OA
ENDBRANCH  28  29
ENDBRANCH  27  28
ENDBRANCH  12  27
TORSDOF 6
ENDMDL
MODEL 2
REMARK VINA RESULT:      -8.6      2.526      3.725
REMARK  6 active torsions:
REMARK  status: ('A' for Active; 'I' for Inactive)
REMARK    1  A    between atoms: O1_2  and  C2_3 
REMARK    2  A    between atoms: N1_6  and  C5_7 
REMARK    3  A    between atoms: C13_18  and  C14_19 
REMARK    4  A    between atoms: C14_19  and  C15_20 
REMARK    5  A    between atoms: C15_20  and  N5_21 
REMARK    6  A    between atoms: N6_32  and  O5_33 
ROOT
HETATM    1  C5  UNL     1      24.096   0.266  53.380  1.00  0.00     0.141 A 
HETATM    2  N2  UNL     1      23.499  -0.807  53.939  1.00  0.00    -0.224 NA
HETATM    3  C6  UNL     1      22.166  -0.980  53.994  1.00  0.00     0.236 A 
HETATM    4  N3  UNL     1      21.311  -0.068  53.482  1.00  0.00    -0.241 NA
HETATM    5  C7  UNL     1      21.838   1.030  52.909  1.00  0.00     0.075 A 
HETATM    6  C8  UNL     1      20.973   1.984  52.373  1.00  0.00     0.071 A 
HETATM    7  C9  UNL     1      21.481   3.138  51.770  1.00  0.00     0.097 A 
HETATM    8  C10 UNL     1      22.851   3.263  51.741  1.00  0.00     0.063 A 
HETATM    9  C11 UNL     1      23.692   2.325  52.266  1.00  0.00     0.049 A 
HETATM   10  C12 UNL     1      23.227   1.193  52.859  1.00  0.00     0.041 A 
HETATM   11  N4  UNL     1      23.339   4.437  51.125  1.00  0.00    -0.381 N 
HETATM   12  C13 UNL     1      22.557   5.675  50.965  1.00  0.00     0.107 C 
HETATM   13  C20 UNL     1      21.092   5.473  51.036  1.00  0.00     0.200 C 
HETATM   14  O4  UNL     1      20.712   4.127  51.219  1.00  0.00    -0.347 OA
HETATM   15  H10 UNL     1      24.328   4.466  50.741  1.00  0.00     0.160 HD
ENDROOT
BRANCH   1  16
HETATM   16  N1  UNL     1      25.510   0.419  53.337  1.00  0.00    -0.338 N 
HETATM   17  C4  UNL     1      26.294   0.246  52.118  1.00  0.00     0.158 C 
HETATM   18  C3  UNL     1      27.320  -0.841  52.309  1.00  0.00     0.051 C 
HETATM   19  C2  UNL     1      27.968  -0.709  53.480  1.00  0.00     0.164 C 
HETATM   20  N6  UNL     1      27.664   0.368  54.394  1.00  0.00    -0.213 N 
HETATM   21  C21 UNL     1      26.264   0.765  54.533  1.00  0.00     0.214 C 
HETATM   22  C22 UNL     1      25.678  -0.110  55.649  1.00  0.00     0.058 C 
BRANCH  19  23
HETATM   23  O1  UNL     1      28.953  -1.648  53.799  1.00  0.00    -0.340 OA
HETATM   24  C1  UNL     1      28.841  -2.907  53.138  1.00  0.00     0.211 C 
ENDBRANCH  19  23
BRANCH  20  25
HETATM   25  O5  UNL     1      28.702   0.914  55.040  1.00  0.00    -0.279 OA
HETATM   26  C23 UNL     1      29.390   1.878  54.353  1.00  0.00     0.238 C 
ENDBRANCH  20  25
ENDBRANCH   1  16
BRANCH  12  27
HETATM   27  C14 UNL     1      23.052   6.506  49.844  1.00  0.00     0.047 C 
BRANCH  27  28
HETATM   28  C15 UNL     1      23.764   5.849  48.732  1.00  0.00     0.128 C 
BRANCH  28  29
HETATM   29  N5  UNL     1      25.148   6.198  48.547  1.00  0.00    -0.348 N 
HETATM   30  C16 UNL     1      25.504   7.431  47.833  1.00  0.00     0.152 C 
HETATM   31  C17 UNL     1      26.647   8.138  48.506  1.00  0.00     0.188 C 
HETATM   32  O2  UNL     1      27.661   7.308  48.944  1.00  0.00    -0.380 OA
HETATM   33  C18 UNL     1      27.576   6.014  48.432  1.00  0.00     0.270 C 
HETATM   34  C19 UNL     1      26.306   5.457  48.990  1.00  0.00     0.243 C 
HETATM   35  O3  UNL     1      26.031   4.478  49.766  1.00  0.00    -0.271 OA
ENDBRANCH  28  29
ENDBRANCH  27  28
ENDBRANCH  12  27
TORSDOF 6
ENDMDL
MODEL 3
REMARK VINA RESULT:      -8.6      3.852      7.159
REMARK  6 active torsions:
REMARK  status: ('A' for Active; 'I' for Inactive)
REMARK    1  A    between atoms: O1_2  and  C2_3 
REMARK    2  A    between atoms: N1_6  and  C5_7 
REMARK    3  A    between atoms: C13_18  and  C14_19 
REMARK    4  A    between atoms: C14_19  and  C15_20 
REMARK    5  A    between atoms: C15_20  and  N5_21 
REMARK    6  A    between atoms: N6_32  and  O5_33 
ROOT
HETATM    1  C5  UNL     1      24.590   2.404  50.788  1.00  0.00     0.141 A 
HETATM    2  N2  UNL     1      23.416   1.744  50.702  1.00  0.00    -0.224 NA
HETATM    3  C6  UNL     1      22.355   2.188  50.005  1.00  0.00     0.236 A 
HETATM    4  N3  UNL     1      22.391   3.354  49.324  1.00  0.00    -0.241 NA
HETATM    5  C7  UNL     1      23.531   4.067  49.365  1.00  0.00     0.075 A 
HETATM    6  C8  UNL     1      23.591   5.274  48.669  1.00  0.00     0.071 A 
HETATM    7  C9  UNL     1      24.756   6.044  48.687  1.00  0.00     0.097 A 
HETATM    8  C10 UNL     1      25.811   5.542  49.416  1.00  0.00     0.063 A 
HETATM    9  C11 UNL     1      25.747   4.359  50.094  1.00  0.00     0.049 A 
HETATM   10  C12 UNL     1      24.626   3.591  50.095  1.00  0.00     0.041 A 
HETATM   11  N4  UNL     1      26.979   6.338  49.416  1.00  0.00    -0.381 N 
HETATM   12  C13 UNL     1      26.996   7.784  49.132  1.00  0.00     0.107 C 
HETATM   13  C20 UNL     1      25.819   8.260  48.372  1.00  0.00     0.200 C 
HETATM   14  O4  UNL     1      24.907   7.238  48.036  1.00  0.00    -0.347 OA
HETATM   15  H10 UNL     1      27.921   5.901  49.631  1.00  0.00     0.160 HD
ENDROOT
BRANCH   1  16
HETATM   16  N1  UNL     1      25.695   1.909  51.534  1.00  0.00    -0.338 N 
HETATM   17  C4  UNL     1      26.493   0.763  51.110  1.00  0.00     0.158 C 
HETATM   18  C3  UNL     1      26.454  -0.316  52.162  1.00  0.00     0.051 C 
HETATM   19  C2  UNL     1      26.649   0.187  53.394  1.00  0.00     0.164 C 
HETATM   20  N6  UNL     1      26.864   1.599  53.608  1.00  0.00    -0.213 N 
HETATM   21  C21 UNL     1      26.096   2.534  52.785  1.00  0.00     0.214 C 
HETATM   22  C22 UNL     1      24.789   2.799  53.544  1.00  0.00     0.058 C 
BRANCH  19  23
HETATM   23  O1  UNL     1      26.639  -0.697  54.477  1.00  0.00    -0.340 OA
HETATM   24  C1  UNL     1      25.388  -0.836  55.147  1.00  0.00     0.211 C 
ENDBRANCH  19  23
BRANCH  20  25
HETATM   25  O5  UNL     1      27.756   1.932  54.548  1.00  0.00    -0.279 OA
HETATM   26  C23 UNL     1      29.071   1.880  54.167  1.00  0.00     0.238 C 
ENDBRANCH  20  25
ENDBRANCH   1  16
BRANCH  12  27
HETATM   27  C14 UNL     1      28.319   8.241  48.650  1.00  0.00     0.047 C 
BRANCH  27  28
HETATM   28  C15 UNL     1      28.901   7.601  47.455  1.00  0.00     0.128 C 
BRANCH  28  29
HETATM   29  N5  UNL     1      30.125   6.867  47.638  1.00  0.00    -0.348 N 
HETATM   30  C16 UNL     1      31.417   7.554  47.512  1.00  0.00     0.152 C 
HETATM   31  C17 UNL     1      32.379   7.102  48.575  1.00  0.00     0.188 C 
HETATM   32  O2  UNL     1      32.371   5.742  48.820  1.00  0.00    -0.380 OA
HETATM   33  C18 UNL     1      31.690   5.010  47.849  1.00  0.00     0.270 C 
HETATM   34  C19 UNL     1      30.268   5.462  47.945  1.00  0.00     0.243 C 
HETATM   35  O3  UNL     1      29.168   4.879  48.237  1.00  0.00    -0.271 OA
ENDBRANCH  28  29
ENDBRANCH  27  28
ENDBRANCH  12  27
TORSDOF 6
ENDMDL
MODEL 4
REMARK VINA RESULT:      -8.3      2.301      7.249
REMARK  6 active torsions:
REMARK  status: ('A' for Active; 'I' for Inactive)
REMARK    1  A    between atoms: O1_2  and  C2_3 
REMARK    2  A    between atoms: N1_6  and  C5_7 
REMARK    3  A    between atoms: C13_18  and  C14_19 
REMARK    4  A    between atoms: C14_19  and  C15_20 
REMARK    5  A    between atoms: C15_20  and  N5_21 
REMARK    6  A    between atoms: N6_32  and  O5_33 
ROOT
HETATM    1  C5  UNL     1      24.437   4.259  49.767  1.00  0.00     0.141 A 
HETATM    2  N2  UNL     1      25.475   4.855  49.144  1.00  0.00    -0.224 NA
HETATM    3  C6  UNL     1      26.749   4.431  49.236  1.00  0.00     0.236 A 
HETATM    4  N3  UNL     1      27.085   3.354  49.977  1.00  0.00    -0.241 NA
HETATM    5  C7  UNL     1      26.100   2.709  50.628  1.00  0.00     0.075 A 
HETATM    6  C8  UNL     1      26.425   1.594  51.399  1.00  0.00     0.071 A 
HETATM    7  C9  UNL     1      25.431   0.898  52.091  1.00  0.00     0.097 A 
HETATM    8  C10 UNL     1      24.145   1.374  51.961  1.00  0.00     0.063 A 
HETATM    9  C11 UNL     1      23.833   2.466  51.204  1.00  0.00     0.049 A 
HETATM   10  C12 UNL     1      24.780   3.163  50.521  1.00  0.00     0.041 A 
HETATM   11  N4  UNL     1      23.158   0.652  52.668  1.00  0.00    -0.381 N 
HETATM   12  C13 UNL     1      23.434  -0.203  53.836  1.00  0.00     0.107 C 
HETATM   13  C20 UNL     1      24.840  -0.654  53.930  1.00  0.00     0.200 C 
HETATM   14  O4  UNL     1      25.655  -0.204  52.870  1.00  0.00    -0.347 OA
HETATM   15  H10 UNL     1      22.142   0.705  52.368  1.00  0.00     0.160 HD
ENDROOT
BRANCH   1  16
HETATM   16  N1  UNL     1      23.100   4.731  49.650  1.00  0.00    -0.338 N 
HETATM   17  C4  UNL     1      22.391   5.399  50.737  1.00  0.00     0.158 C 
HETATM   18  C3  UNL     1      21.138   4.638  51.086  1.00  0.00     0.051 C 
HETATM   19  C2  UNL     1      20.450   4.288  49.985  1.00  0.00     0.164 C 
HETATM   20  N6  UNL     1      20.914   4.633  48.662  1.00  0.00    -0.213 N 
HETATM   21  C21 UNL     1      22.354   4.568  48.411  1.00  0.00     0.214 C 
HETATM   22  C22 UNL     1      22.645   3.136  47.947  1.00  0.00     0.058 C 
BRANCH  19  23
HETATM   23  O1  UNL     1      19.259   3.574  50.151  1.00  0.00    -0.340 OA
HETATM   24  C1  UNL     1      18.439   3.990  51.242  1.00  0.00     0.211 C 
ENDBRANCH  19  23
BRANCH  20  25
HETATM   25  O5  UNL     1      19.978   4.985  47.772  1.00  0.00    -0.279 OA
HETATM   26  C23 UNL     1      19.494   6.261  47.892  1.00  0.00     0.238 C 
ENDBRANCH  20  25
ENDBRANCH   1  16
BRANCH  12  27
HETATM   27  C14 UNL     1      22.396  -1.241  54.024  1.00  0.00     0.047 C 
BRANCH  27  28
HETATM   28  C15 UNL     1      21.081  -0.843  54.560  1.00  0.00     0.128 C 
BRANCH  28  29
HETATM   29  N5  UNL     1      19.988  -0.776  53.626  1.00  0.00    -0.348 N 
HETATM   30  C16 UNL     1      19.048  -1.899  53.515  1.00  0.00     0.152 C 
HETATM   31  C17 UNL     1      17.633  -1.411  53.382  1.00  0.00     0.188 C 
HETATM   32  O2  UNL     1      17.472  -0.326  52.543  1.00  0.00    -0.380 OA
HETATM   33  C18 UNL     1      18.593  -0.064  51.757  1.00  0.00     0.270 C 
HETATM   34  C19 UNL     1      19.670   0.309  52.726  1.00  0.00     0.243 C 
HETATM   35  O3  UNL     1      20.357   1.368  52.925  1.00  0.00    -0.271 OA
ENDBRANCH  28  29
ENDBRANCH  27  28
ENDBRANCH  12  27
TORSDOF 6
ENDMDL
MODEL 5
REMARK VINA RESULT:      -8.3      5.000      9.247
REMARK  6 active torsions:
REMARK  status: ('A' for Active; 'I' for Inactive)
REMARK    1  A    between atoms: O1_2  and  C2_3 
REMARK    2  A    between atoms: N1_6  and  C5_7 
REMARK    3  A    between atoms: C13_18  and  C14_19 
REMARK    4  A    between atoms: C14_19  and  C15_20 
REMARK    5  A    between atoms: C15_20  and  N5_21 
REMARK    6  A    between atoms: N6_32  and  O5_33 
ROOT
HETATM    1  C5  UNL     1      26.626   8.443  47.357  1.00  0.00     0.141 A 
HETATM    2  N2  UNL     1      25.853   9.286  46.641  1.00  0.00    -0.224 NA
HETATM    3  C6  UNL     1      24.523   9.148  46.499  1.00  0.00     0.236 A 
HETATM    4  N3  UNL     1      23.850   8.130  47.079  1.00  0.00    -0.241 NA
HETATM    5  C7  UNL     1      24.557   7.249  47.809  1.00  0.00     0.075 A 
HETATM    6  C8  UNL     1      23.883   6.191  48.417  1.00  0.00     0.071 A 
HETATM    7  C9  UNL     1      24.581   5.254  49.183  1.00  0.00     0.097 A 
HETATM    8  C10 UNL     1      25.940   5.444  49.295  1.00  0.00     0.063 A 
HETATM    9  C11 UNL     1      26.595   6.482  48.698  1.00  0.00     0.049 A 
HETATM   10  C12 UNL     1      25.941   7.408  47.947  1.00  0.00     0.041 A 
HETATM   11  N4  UNL     1      26.623   4.485  50.076  1.00  0.00    -0.381 N 
HETATM   12  C13 UNL     1      26.118   3.128  50.351  1.00  0.00     0.107 C 
HETATM   13  C20 UNL     1      24.654   2.987  50.183  1.00  0.00     0.200 C 
HETATM   14  O4  UNL     1      24.006   4.185  49.815  1.00  0.00    -0.347 OA
HETATM   15  H10 UNL     1      27.563   4.721  50.509  1.00  0.00     0.160 HD
ENDROOT
BRANCH   1  16
HETATM   16  N1  UNL     1      28.032   8.616  47.489  1.00  0.00    -0.338 N 
HETATM   17  C4  UNL     1      29.006   7.832  46.736  1.00  0.00     0.158 C 
HETATM   18  C3  UNL     1      29.917   7.089  47.680  1.00  0.00     0.051 C 
HETATM   19  C2  UNL     1      30.355   7.884  48.671  1.00  0.00     0.164 C 
HETATM   20  N6  UNL     1      29.960   9.271  48.759  1.00  0.00    -0.213 N 
HETATM   21  C21 UNL     1      28.583   9.608  48.400  1.00  0.00     0.214 C 
HETATM   22  C22 UNL     1      27.760   9.476  49.689  1.00  0.00     0.058 C 
BRANCH  19  23
HETATM   23  O1  UNL     1      31.212   7.334  49.628  1.00  0.00    -0.340 OA
HETATM   24  C1  UNL     1      32.372   6.681  49.113  1.00  0.00     0.211 C 
ENDBRANCH  19  23
BRANCH  20  25
HETATM   25  O5  UNL     1      30.899  10.136  49.164  1.00  0.00    -0.279 OA
HETATM   26  C23 UNL     1      31.112  11.210  48.342  1.00  0.00     0.238 C 
ENDBRANCH  20  25
ENDBRANCH   1  16
BRANCH  12  27
HETATM   27  C14 UNL     1      26.695   2.559  51.590  1.00  0.00     0.047 C 
BRANCH  27  28
HETATM   28  C15 UNL     1      26.453   1.138  51.900  1.00  0.00     0.128 C 
BRANCH  28  29
HETATM   29  N5  UNL     1      27.482   0.444  52.629  1.00  0.00    -0.348 N 
HETATM   30  C16 UNL     1      28.564   1.203  53.270  1.00  0.00     0.152 C 
HETATM   31  C17 UNL     1      28.883   0.650  54.631  1.00  0.00     0.188 C 
HETATM   32  O2  UNL     1      28.906  -0.730  54.703  1.00  0.00    -0.380 OA
HETATM   33  C18 UNL     1      28.914  -1.348  53.454  1.00  0.00     0.270 C 
HETATM   34  C19 UNL     1      27.606  -0.981  52.829  1.00  0.00     0.243 C 
HETATM   35  O3  UNL     1      26.589  -1.651  52.439  1.00  0.00    -0.271 OA
ENDBRANCH  28  29
ENDBRANCH  27  28
ENDBRANCH  12  27
TORSDOF 6
ENDMDL
MODEL 6
REMARK VINA RESULT:      -8.3      2.645      4.852
REMARK  6 active torsions:
REMARK  status: ('A' for Active; 'I' for Inactive)
REMARK    1  A    between atoms: O1_2  and  C2_3 
REMARK    2  A    between atoms: N1_6  and  C5_7 
REMARK    3  A    between atoms: C13_18  and  C14_19 
REMARK    4  A    between atoms: C14_19  and  C15_20 
REMARK    5  A    between atoms: C15_20  and  N5_21 
REMARK    6  A    between atoms: N6_32  and  O5_33 
ROOT
HETATM    1  C5  UNL     1      24.573   2.237  52.185  1.00  0.00     0.141 A 
HETATM    2  N2  UNL     1      25.794   1.999  52.708  1.00  0.00    -0.224 NA
HETATM    3  C6  UNL     1      26.074   0.963  53.520  1.00  0.00     0.236 A 
HETATM    4  N3  UNL     1      25.128   0.067  53.876  1.00  0.00    -0.241 NA
HETATM    5  C7  UNL     1      23.886   0.242  53.391  1.00  0.00     0.075 A 
HETATM    6  C8  UNL     1      22.894  -0.673  53.746  1.00  0.00     0.071 A 
HETATM    7  C9  UNL     1      21.591  -0.525  53.263  1.00  0.00     0.097 A 
HETATM    8  C10 UNL     1      21.361   0.551  52.437  1.00  0.00     0.063 A 
HETATM    9  C11 UNL     1      22.336   1.443  52.092  1.00  0.00     0.049 A 
HETATM   10  C12 UNL     1      23.612   1.324  52.548  1.00  0.00     0.041 A 
HETATM   11  N4  UNL     1      20.037   0.677  51.961  1.00  0.00    -0.381 N 
HETATM   12  C13 UNL     1      18.860   0.082  52.619  1.00  0.00     0.107 C 
HETATM   13  C20 UNL     1      19.182  -1.050  53.515  1.00  0.00     0.200 C 
HETATM   14  O4  UNL     1      20.556  -1.370  53.557  1.00  0.00    -0.347 OA
HETATM   15  H10 UNL     1      19.839   1.228  51.076  1.00  0.00     0.160 HD
ENDROOT
BRANCH   1  16
HETATM   16  N1  UNL     1      24.309   3.342  51.328  1.00  0.00    -0.338 N 
HETATM   17  C4  UNL     1      24.865   3.460  49.985  1.00  0.00     0.158 C 
HETATM   18  C3  UNL     1      25.683   4.720  49.869  1.00  0.00     0.051 C 
HETATM   19  C2  UNL     1      25.040   5.777  50.397  1.00  0.00     0.164 C 
HETATM   20  N6  UNL     1      23.728   5.646  50.986  1.00  0.00    -0.213 N 
HETATM   21  C21 UNL     1      23.450   4.435  51.758  1.00  0.00     0.214 C 
HETATM   22  C22 UNL     1      23.873   4.740  53.201  1.00  0.00     0.058 C 
BRANCH  19  23
HETATM   23  O1  UNL     1      25.677   7.021  50.362  1.00  0.00    -0.340 OA
HETATM   24  C1  UNL     1      26.442   7.289  49.188  1.00  0.00     0.211 C 
ENDBRANCH  19  23
BRANCH  20  25
HETATM   25  O5  UNL     1      22.873   6.653  50.771  1.00  0.00    -0.279 OA
HETATM   26  C23 UNL     1      21.546   6.314  50.761  1.00  0.00     0.238 C 
ENDBRANCH  20  25
ENDBRANCH   1  16
BRANCH  12  27
HETATM   27  C14 UNL     1      17.739  -0.125  51.674  1.00  0.00     0.047 C 
BRANCH  27  28
HETATM   28  C15 UNL     1      17.392   0.956  50.734  1.00  0.00     0.128 C 
BRANCH  28  29
HETATM   29  N5  UNL     1      16.699   2.095  51.275  1.00  0.00    -0.348 N 
HETATM   30  C16 UNL     1      15.240   2.054  51.442  1.00  0.00     0.152 C 
HETATM   31  C17 UNL     1      14.824   2.676  52.745  1.00  0.00     0.188 C 
HETATM   32  O2  UNL     1      15.497   3.838  53.071  1.00  0.00    -0.380 OA
HETATM   33  C18 UNL     1      16.225   4.371  52.008  1.00  0.00     0.270 C 
HETATM   34  C19 UNL     1      17.273   3.350  51.703  1.00  0.00     0.243 C 
HETATM   35  O3  UNL     1      18.551   3.351  51.739  1.00  0.00    -0.271 OA
ENDBRANCH  28  29
ENDBRANCH  27  28
ENDBRANCH  12  27
TORSDOF 6
ENDMDL
MODEL 7
REMARK VINA RESULT:      -8.2      2.534      5.347
REMARK  6 active torsions:
REMARK  status: ('A' for Active; 'I' for Inactive)
REMARK    1  A    between atoms: O1_2  and  C2_3 
REMARK    2  A    between atoms: N1_6  and  C5_7 
REMARK    3  A    between atoms: C13_18  and  C14_19 
REMARK    4  A    between atoms: C14_19  and  C15_20 
REMARK    5  A    between atoms: C15_20  and  N5_21 
REMARK    6  A    between atoms: N6_32  and  O5_33 
ROOT
HETATM    1  C5  UNL     1      24.839   2.695  52.457  1.00  0.00     0.141 A 
HETATM    2  N2  UNL     1      26.157   2.559  52.710  1.00  0.00    -0.224 NA
HETATM    3  C6  UNL     1      26.710   1.453  53.240  1.00  0.00     0.236 A 
HETATM    4  N3  UNL     1      25.964   0.374  53.564  1.00  0.00    -0.241 NA
HETATM    5  C7  UNL     1      24.640   0.439  53.339  1.00  0.00     0.075 A 
HETATM    6  C8  UNL     1      23.851  -0.664  53.666  1.00  0.00     0.071 A 
HETATM    7  C9  UNL     1      22.471  -0.636  53.448  1.00  0.00     0.097 A 
HETATM    8  C10 UNL     1      21.960   0.520  52.904  1.00  0.00     0.063 A 
HETATM    9  C11 UNL     1      22.737   1.596  52.585  1.00  0.00     0.049 A 
HETATM   10  C12 UNL     1      24.081   1.597  52.787  1.00  0.00     0.041 A 
HETATM   11  N4  UNL     1      20.563   0.523  52.692  1.00  0.00    -0.381 N 
HETATM   12  C13 UNL     1      19.614  -0.350  53.406  1.00  0.00     0.107 C 
HETATM   13  C20 UNL     1      20.236  -1.559  53.992  1.00  0.00     0.200 C 
HETATM   14  O4  UNL     1      21.620  -1.667  53.737  1.00  0.00    -0.347 OA
HETATM   15  H10 UNL     1      20.133   1.183  51.981  1.00  0.00     0.160 HD
ENDROOT
BRANCH   1  16
HETATM   16  N1  UNL     1      24.285   3.878  51.895  1.00  0.00    -0.338 N 
HETATM   17  C4  UNL     1      23.441   4.800  52.648  1.00  0.00     0.158 C 
HETATM   18  C3  UNL     1      22.093   4.932  51.986  1.00  0.00     0.051 C 
HETATM   19  C2  UNL     1      22.211   5.104  50.658  1.00  0.00     0.164 C 
HETATM   20  N6  UNL     1      23.503   5.146  50.012  1.00  0.00    -0.213 N 
HETATM   21  C21 UNL     1      24.538   4.239  50.508  1.00  0.00     0.214 C 
HETATM   22  C22 UNL     1      24.382   2.936  49.714  1.00  0.00     0.058 C 
BRANCH  19  23
HETATM   23  O1  UNL     1      21.042   5.243  49.904  1.00  0.00    -0.340 OA
HETATM   24  C1  UNL     1      20.651   4.093  49.156  1.00  0.00     0.211 C 
ENDBRANCH  19  23
BRANCH  20  25
HETATM   25  O5  UNL     1      23.641   6.021  49.008  1.00  0.00    -0.279 OA
HETATM   26  C23 UNL     1      24.921   6.436  48.753  1.00  0.00     0.238 C 
ENDBRANCH  20  25
ENDBRANCH   1  16
BRANCH  12  27
HETATM   27  C14 UNL     1      18.364  -0.559  52.641  1.00  0.00     0.047 C 
BRANCH  27  28
HETATM   28  C15 UNL     1      18.155   0.207  51.398  1.00  0.00     0.128 C 
BRANCH  28  29
HETATM   29  N5  UNL     1      17.303   1.364  51.480  1.00  0.00    -0.348 N 
HETATM   30  C16 UNL     1      15.850   1.215  51.328  1.00  0.00     0.152 C 
HETATM   31  C17 UNL     1      15.110   2.074  52.316  1.00  0.00     0.188 C 
HETATM   32  O2  UNL     1      15.634   3.341  52.486  1.00  0.00    -0.380 OA
HETATM   33  C18 UNL     1      16.567   3.688  51.511  1.00  0.00     0.270 C 
HETATM   34  C19 UNL     1      17.703   2.734  51.702  1.00  0.00     0.243 C 
HETATM   35  O3  UNL     1      18.935   2.872  52.015  1.00  0.00    -0.271 OA
ENDBRANCH  28  29
ENDBRANCH  27  28
ENDBRANCH  12  27
TORSDOF 6
ENDMDL
MODEL 8
REMARK VINA RESULT:      -8.1      2.087      3.074
REMARK  6 active torsions:
REMARK  status: ('A' for Active; 'I' for Inactive)
REMARK    1  A    between atoms: O1_2  and  C2_3 
REMARK    2  A    between atoms: N1_6  and  C5_7 
REMARK    3  A    between atoms: C13_18  and  C14_19 
REMARK    4  A    between atoms: C14_19  and  C15_20 
REMARK    5  A    between atoms: C15_20  and  N5_21 
REMARK    6  A    between atoms: N6_32  and  O5_33 
ROOT
HETATM    1  C5  UNL     1      24.040   0.232  53.311  1.00  0.00     0.141 A 
HETATM    2  N2  UNL     1      23.477  -0.822  53.937  1.00  0.00    -0.224 NA
HETATM    3  C6  UNL     1      22.149  -0.992  54.074  1.00  0.00     0.236 A 
HETATM    4  N3  UNL     1      21.266  -0.097  53.581  1.00  0.00    -0.241 NA
HETATM    5  C7  UNL     1      21.757   0.981  52.944  1.00  0.00     0.075 A 
HETATM    6  C8  UNL     1      20.863   1.918  52.427  1.00  0.00     0.071 A 
HETATM    7  C9  UNL     1      21.333   3.051  51.759  1.00  0.00     0.097 A 
HETATM    8  C10 UNL     1      22.700   3.174  51.648  1.00  0.00     0.063 A 
HETATM    9  C11 UNL     1      23.571   2.253  52.155  1.00  0.00     0.049 A 
HETATM   10  C12 UNL     1      23.141   1.142  52.810  1.00  0.00     0.041 A 
HETATM   11  N4  UNL     1      23.150   4.327  50.966  1.00  0.00    -0.381 N 
HETATM   12  C13 UNL     1      22.359   5.560  50.811  1.00  0.00     0.107 C 
HETATM   13  C20 UNL     1      20.901   5.361  50.971  1.00  0.00     0.200 C 
HETATM   14  O4  UNL     1      20.534   4.022  51.220  1.00  0.00    -0.347 OA
HETATM   15  H10 UNL     1      24.116   4.343  50.526  1.00  0.00     0.160 HD
ENDROOT
BRANCH   1  16
HETATM   16  N1  UNL     1      25.449   0.383  53.183  1.00  0.00    -0.338 N 
HETATM   17  C4  UNL     1      26.208  -0.147  52.055  1.00  0.00     0.158 C 
HETATM   18  C3  UNL     1      27.262  -1.109  52.543  1.00  0.00     0.051 C 
HETATM   19  C2  UNL     1      27.933  -0.613  53.597  1.00  0.00     0.164 C 
HETATM   20  N6  UNL     1      27.628   0.689  54.143  1.00  0.00    -0.213 N 
HETATM   21  C21 UNL     1      26.222   1.091  54.192  1.00  0.00     0.214 C 
HETATM   22  C22 UNL     1      25.681   0.596  55.539  1.00  0.00     0.058 C 
BRANCH  19  23
HETATM   23  O1  UNL     1      28.945  -1.395  54.161  1.00  0.00    -0.340 OA
HETATM   24  C1  UNL     1      29.937  -1.868  53.252  1.00  0.00     0.211 C 
ENDBRANCH  19  23
BRANCH  20  25
HETATM   25  O5  UNL     1      28.668   1.421  54.559  1.00  0.00    -0.279 OA
HETATM   26  C23 UNL     1      28.999   2.489  53.768  1.00  0.00     0.238 C 
ENDBRANCH  20  25
ENDBRANCH   1  16
BRANCH  12  27
HETATM   27  C14 UNL     1      22.788   6.353  49.637  1.00  0.00     0.047 C 
BRANCH  27  28
HETATM   28  C15 UNL     1      23.472   5.666  48.525  1.00  0.00     0.128 C 
BRANCH  28  29
HETATM   29  N5  UNL     1      22.639   5.063  47.519  1.00  0.00    -0.348 N 
HETATM   30  C16 UNL     1      22.076   5.890  46.443  1.00  0.00     0.152 C 
HETATM   31  C17 UNL     1      22.144   5.179  45.120  1.00  0.00     0.188 C 
HETATM   32  O2  UNL     1      21.817   3.838  45.167  1.00  0.00    -0.380 OA
HETATM   33  C18 UNL     1      21.213   3.458  46.365  1.00  0.00     0.270 C 
HETATM   34  C19 UNL     1      22.256   3.674  47.414  1.00  0.00     0.243 C 
HETATM   35  O3  UNL     1      22.873   2.902  48.226  1.00  0.00    -0.271 OA
ENDBRANCH  28  29
ENDBRANCH  27  28
ENDBRANCH  12  27
TORSDOF 6
ENDMDL
MODEL 9
REMARK VINA RESULT:      -8.0      4.702      7.239
REMARK  6 active torsions:
REMARK  status: ('A' for Active; 'I' for Inactive)
REMARK    1  A    between atoms: O1_2  and  C2_3 
REMARK    2  A    between atoms: N1_6  and  C5_7 
REMARK    3  A    between atoms: C13_18  and  C14_19 
REMARK    4  A    between atoms: C14_19  and  C15_20 
REMARK    5  A    between atoms: C15_20  and  N5_21 
REMARK    6  A    between atoms: N6_32  and  O5_33 
ROOT
HETATM    1  C5  UNL     1      24.574   2.142  51.041  1.00  0.00     0.141 A 
HETATM    2  N2  UNL     1      23.366   1.540  51.050  1.00  0.00    -0.224 NA
HETATM    3  C6  UNL     1      22.297   1.992  50.370  1.00  0.00     0.236 A 
HETATM    4  N3  UNL     1      22.360   3.107  49.611  1.00  0.00    -0.241 NA
HETATM    5  C7  UNL     1      23.535   3.760  49.555  1.00  0.00     0.075 A 
HETATM    6  C8  UNL     1      23.622   4.914  48.777  1.00  0.00     0.071 A 
HETATM    7  C9  UNL     1      24.824   5.622  48.693  1.00  0.00     0.097 A 
HETATM    8  C10 UNL     1      25.885   5.115  49.409  1.00  0.00     0.063 A 
HETATM    9  C11 UNL     1      25.794   3.984  50.169  1.00  0.00     0.049 A 
HETATM   10  C12 UNL     1      24.637   3.277  50.269  1.00  0.00     0.041 A 
HETATM   11  N4  UNL     1      27.089   5.846  49.307  1.00  0.00    -0.381 N 
HETATM   12  C13 UNL     1      27.166   7.268  48.925  1.00  0.00     0.107 C 
HETATM   13  C20 UNL     1      25.980   7.754  48.184  1.00  0.00     0.200 C 
HETATM   14  O4  UNL     1      25.004   6.761  47.957  1.00  0.00    -0.347 OA
HETATM   15  H10 UNL     1      28.018   5.376  49.511  1.00  0.00     0.160 HD
ENDROOT
BRANCH   1  16
HETATM   16  N1  UNL     1      25.686   1.639  51.772  1.00  0.00    -0.338 N 
HETATM   17  C4  UNL     1      26.364   0.392  51.434  1.00  0.00     0.158 C 
HETATM   18  C3  UNL     1      26.314  -0.561  52.601  1.00  0.00     0.051 C 
HETATM   19  C2  UNL     1      26.629   0.053  53.754  1.00  0.00     0.164 C 
HETATM   20  N6  UNL     1      26.965   1.458  53.796  1.00  0.00    -0.213 N 
HETATM   21  C21 UNL     1      26.217   2.359  52.920  1.00  0.00     0.214 C 
HETATM   22  C22 UNL     1      24.988   2.812  53.719  1.00  0.00     0.058 C 
BRANCH  19  23
HETATM   23  O1  UNL     1      26.626  -0.705  54.928  1.00  0.00    -0.340 OA
HETATM   24  C1  UNL     1      25.340  -0.966  55.489  1.00  0.00     0.211 C 
ENDBRANCH  19  23
BRANCH  20  25
HETATM   25  O5  UNL     1      27.941   1.815  54.639  1.00  0.00    -0.279 OA
HETATM   26  C23 UNL     1      29.217   1.546  54.219  1.00  0.00     0.238 C 
ENDBRANCH  20  25
ENDBRANCH   1  16
BRANCH  12  27
HETATM   27  C14 UNL     1      28.486   7.622  48.357  1.00  0.00     0.047 C 
BRANCH  27  28
HETATM   28  C15 UNL     1      29.325   8.606  49.066  1.00  0.00     0.128 C 
BRANCH  28  29
HETATM   29  N5  UNL     1      29.370   9.937  48.522  1.00  0.00    -0.348 N 
HETATM   30  C16 UNL     1      30.401  10.291  47.537  1.00  0.00     0.152 C 
HETATM   31  C17 UNL     1      29.829  11.140  46.436  1.00  0.00     0.188 C 
HETATM   32  O2  UNL     1      28.951  12.119  46.857  1.00  0.00    -0.380 OA
HETATM   33  C18 UNL     1      28.975  12.326  48.236  1.00  0.00     0.270 C 
HETATM   34  C19 UNL     1      28.492  11.042  48.831  1.00  0.00     0.243 C 
HETATM   35  O3  UNL     1      27.481  10.718  49.545  1.00  0.00    -0.271 OA
ENDBRANCH  28  29
ENDBRANCH  27  28
ENDBRANCH  12  27
TORSDOF 6
ENDMDL
