MODEL 1
REMARK VINA RESULT:      -9.2      0.000      0.000
REMARK  1 active torsions:
REMARK  status: ('A' for Active; 'I' for Inactive)
REMARK    1  A    between atoms: N1_1  and  N2_2 
ROOT
HETATM    1  N2  UNL     1      25.617  -0.062  53.661  1.00  0.00    -0.309 N 
HETATM    2  C1  UNL     1      24.757  -0.490  52.577  1.00  0.00     0.182 C 
HETATM    3  C2  UNL     1      23.380  -0.104  52.894  1.00  0.00    -0.029 A 
HETATM    4  C3  UNL     1      22.727  -1.021  53.725  1.00  0.00     0.051 A 
HETATM    5  C4  UNL     1      21.433  -0.935  54.192  1.00  0.00     0.117 A 
HETATM    6  F1  UNL     1      20.871  -1.862  54.990  1.00  0.00    -0.206 F 
HETATM    7  C5  UNL     1      20.707   0.191  53.788  1.00  0.00     0.043 A 
HETATM    8  C6  UNL     1      21.359   1.111  52.956  1.00  0.00     0.012 A 
HETATM    9  C7  UNL     1      22.660   0.978  52.515  1.00  0.00    -0.037 A 
HETATM   10  C8  UNL     1      22.965   2.151  51.665  1.00  0.00     0.086 C 
HETATM   11  C9  UNL     1      22.876   3.423  52.453  1.00  0.00     0.105 C 
HETATM   12  N3  UNL     1      24.068   3.584  52.973  1.00  0.00    -0.247 NA
HETATM   13  C10 UNL     1      24.936   2.819  52.181  1.00  0.00     0.124 C 
HETATM   14  C11 UNL     1      24.354   2.178  51.182  1.00  0.00     0.038 C 
HETATM   15  N4  UNL     1      26.334   2.714  52.394  1.00  0.00    -0.339 N 
HETATM   16  C12 UNL     1      27.154   1.920  53.231  1.00  0.00     0.061 A 
HETATM   17  C13 UNL     1      28.396   2.436  53.503  1.00  0.00     0.032 A 
HETATM   18  C14 UNL     1      29.310   1.792  54.292  1.00  0.00     0.002 A 
HETATM   19  C15 UNL     1      28.983   0.570  54.842  1.00  0.00     0.002 A 
HETATM   20  C16 UNL     1      27.732   0.062  54.561  1.00  0.00     0.033 A 
HETATM   21  C17 UNL     1      26.805   0.706  53.767  1.00  0.00     0.072 A 
HETATM   22  H11 UNL     1      26.786   3.416  51.746  1.00  0.00     0.167 HD
ENDROOT
BRANCH   1  23
HETATM   23  N1  UNL     1      25.058  -0.604  54.826  1.00  0.00    -0.247 NA
HETATM   24  H1  UNL     1      24.322  -1.285  54.456  1.00  0.00     0.143 HD
HETATM   25  H2  UNL     1      24.529   0.041  55.412  1.00  0.00     0.143 HD
ENDBRANCH   1  23
TORSDOF 1
ENDMDL
MODEL 2
REMARK VINA RESULT:      -8.7      2.226      4.453
REMARK  1 active torsions:
REMARK  status: ('A' for Active; 'I' for Inactive)
REMARK    1  A    between atoms: N1_1  and  N2_2 
ROOT
HETATM    1  N2  UNL     1      23.663   3.301  51.279  1.00  0.00    -0.309 N 
HETATM    2  C1  UNL     1      23.489   3.057  52.697  1.00  0.00     0.182 C 
HETATM    3  C2  UNL     1      23.287   1.621  52.902  1.00  0.00    -0.029 A 
HETATM    4  C3  UNL     1      21.961   1.218  52.708  1.00  0.00     0.051 A 
HETATM    5  C4  UNL     1      21.462  -0.061  52.830  1.00  0.00     0.117 A 
HETATM    6  F1  UNL     1      20.168  -0.373  52.628  1.00  0.00    -0.206 F 
HETATM    7  C5  UNL     1      22.386  -1.051  53.183  1.00  0.00     0.043 A 
HETATM    8  C6  UNL     1      23.714  -0.649  53.377  1.00  0.00     0.012 A 
HETATM    9  C7  UNL     1      24.164   0.648  53.242  1.00  0.00    -0.037 A 
HETATM   10  C8  UNL     1      25.616   0.649  53.531  1.00  0.00     0.086 C 
HETATM   11  C9  UNL     1      26.360  -0.198  52.544  1.00  0.00     0.105 C 
HETATM   12  N3  UNL     1      26.635   0.606  51.546  1.00  0.00    -0.247 NA
HETATM   13  C10 UNL     1      26.558   1.904  52.070  1.00  0.00     0.124 C 
HETATM   14  C11 UNL     1      26.247   1.966  53.353  1.00  0.00     0.038 C 
HETATM   15  N4  UNL     1      26.790   3.086  51.322  1.00  0.00    -0.339 N 
HETATM   16  C12 UNL     1      26.000   3.890  50.465  1.00  0.00     0.061 A 
HETATM   17  C13 UNL     1      26.697   4.654  49.564  1.00  0.00     0.032 A 
HETATM   18  C14 UNL     1      26.084   5.489  48.668  1.00  0.00     0.002 A 
HETATM   19  C15 UNL     1      24.708   5.576  48.661  1.00  0.00     0.002 A 
HETATM   20  C16 UNL     1      24.019   4.803  49.572  1.00  0.00     0.033 A 
HETATM   21  C17 UNL     1      24.630   3.959  50.477  1.00  0.00     0.072 A 
HETATM   22  H11 UNL     1      27.795   3.357  51.500  1.00  0.00     0.167 HD
ENDROOT
BRANCH   1  23
HETATM   23  N1  UNL     1      22.550   2.721  50.656  1.00  0.00    -0.247 NA
HETATM   24  H1  UNL     1      21.723   3.251  51.079  1.00  0.00     0.143 HD
HETATM   25  H2  UNL     1      22.365   1.745  50.885  1.00  0.00     0.143 HD
ENDBRANCH   1  23
TORSDOF 1
ENDMDL
MODEL 3
REMARK VINA RESULT:      -8.5      2.452      5.211
REMARK  1 active torsions:
REMARK  status: ('A' for Active; 'I' for Inactive)
REMARK    1  A    between atoms: N1_1  and  N2_2 
ROOT
HETATM    1  N2  UNL     1      24.004   2.791  52.141  1.00  0.00    -0.309 N 
HETATM    2  C1  UNL     1      24.336   1.451  51.702  1.00  0.00     0.182 C 
HETATM    3  C2  UNL     1      24.350   0.567  52.869  1.00  0.00    -0.029 A 
HETATM    4  C3  UNL     1      25.561   0.598  53.570  1.00  0.00     0.051 A 
HETATM    5  C4  UNL     1      25.876  -0.121  54.703  1.00  0.00     0.117 A 
HETATM    6  F1  UNL     1      27.068  -0.040  55.323  1.00  0.00    -0.206 F 
HETATM    7  C5  UNL     1      24.875  -0.965  55.195  1.00  0.00     0.043 A 
HETATM    8  C6  UNL     1      23.661  -0.996  54.495  1.00  0.00     0.012 A 
HETATM    9  C7  UNL     1      23.394  -0.255  53.362  1.00  0.00    -0.037 A 
HETATM   10  C8  UNL     1      22.013  -0.575  52.935  1.00  0.00     0.086 C 
HETATM   11  C9  UNL     1      21.021  -0.179  53.986  1.00  0.00     0.105 C 
HETATM   12  N3  UNL     1      20.732   1.073  53.725  1.00  0.00    -0.247 NA
HETATM   13  C10 UNL     1      21.073   1.271  52.380  1.00  0.00     0.124 C 
HETATM   14  C11 UNL     1      21.566   0.206  51.771  1.00  0.00     0.038 C 
HETATM   15  N4  UNL     1      20.917   2.496  51.684  1.00  0.00    -0.339 N 
HETATM   16  C12 UNL     1      21.689   3.677  51.566  1.00  0.00     0.061 A 
HETATM   17  C13 UNL     1      20.993   4.804  51.209  1.00  0.00     0.032 A 
HETATM   18  C14 UNL     1      21.592   6.025  51.048  1.00  0.00     0.002 A 
HETATM   19  C15 UNL     1      22.951   6.141  51.250  1.00  0.00     0.002 A 
HETATM   20  C16 UNL     1      23.639   5.000  51.609  1.00  0.00     0.033 A 
HETATM   21  C17 UNL     1      23.042   3.767  51.773  1.00  0.00     0.072 A 
HETATM   22  H11 UNL     1      19.997   2.428  51.167  1.00  0.00     0.167 HD
ENDROOT
BRANCH   1  23
HETATM   23  N1  UNL     1      24.920   3.095  53.156  1.00  0.00    -0.247 NA
HETATM   24  H1  UNL     1      25.866   2.859  52.718  1.00  0.00     0.143 HD
HETATM   25  H2  UNL     1      24.878   2.509  53.989  1.00  0.00     0.143 HD
ENDBRANCH   1  23
TORSDOF 1
ENDMDL
MODEL 4
REMARK VINA RESULT:      -7.9      3.477      5.707
REMARK  1 active torsions:
REMARK  status: ('A' for Active; 'I' for Inactive)
REMARK    1  A    between atoms: N1_1  and  N2_2 
ROOT
HETATM    1  N2  UNL     1      23.619   1.565  52.784  1.00  0.00    -0.309 N 
HETATM    2  C1  UNL     1      23.956   2.968  52.907  1.00  0.00     0.182 C 
HETATM    3  C2  UNL     1      24.110   3.530  51.563  1.00  0.00    -0.029 A 
HETATM    4  C3  UNL     1      25.379   3.312  51.016  1.00  0.00     0.051 A 
HETATM    5  C4  UNL     1      25.825   3.720  49.777  1.00  0.00     0.117 A 
HETATM    6  F1  UNL     1      27.066   3.472  49.319  1.00  0.00    -0.206 F 
HETATM    7  C5  UNL     1      24.904   4.424  48.993  1.00  0.00     0.043 A 
HETATM    8  C6  UNL     1      23.632   4.643  49.539  1.00  0.00     0.012 A 
HETATM    9  C7  UNL     1      23.235   4.212  50.789  1.00  0.00    -0.037 A 
HETATM   10  C8  UNL     1      21.832   4.644  50.984  1.00  0.00     0.086 C 
HETATM   11  C9  UNL     1      20.929   4.007  49.971  1.00  0.00     0.105 C 
HETATM   12  N3  UNL     1      20.572   2.864  50.505  1.00  0.00    -0.247 NA
HETATM   13  C10 UNL     1      20.779   3.008  51.884  1.00  0.00     0.124 C 
HETATM   14  C11 UNL     1      21.251   4.186  52.255  1.00  0.00     0.038 C 
HETATM   15  N4  UNL     1      20.515   1.998  52.844  1.00  0.00    -0.339 N 
HETATM   16  C12 UNL     1      21.231   0.876  53.328  1.00  0.00     0.061 A 
HETATM   17  C13 UNL     1      20.466  -0.118  53.884  1.00  0.00     0.032 A 
HETATM   18  C14 UNL     1      21.003  -1.265  54.403  1.00  0.00     0.002 A 
HETATM   19  C15 UNL     1      22.371  -1.442  54.371  1.00  0.00     0.002 A 
HETATM   20  C16 UNL     1      23.129  -0.436  53.810  1.00  0.00     0.033 A 
HETATM   21  C17 UNL     1      22.594   0.723  53.286  1.00  0.00     0.072 A 
HETATM   22  H11 UNL     1      19.555   2.203  53.234  1.00  0.00     0.167 HD
ENDROOT
BRANCH   1  23
HETATM   23  N1  UNL     1      24.615   1.005  51.973  1.00  0.00    -0.247 NA
HETATM   24  H1  UNL     1      24.188   0.079  51.656  1.00  0.00     0.143 HD
HETATM   25  H2  UNL     1      25.478   0.735  52.444  1.00  0.00     0.143 HD
ENDBRANCH   1  23
TORSDOF 1
ENDMDL
MODEL 5
REMARK VINA RESULT:      -7.8      2.695      5.805
REMARK  1 active torsions:
REMARK  status: ('A' for Active; 'I' for Inactive)
REMARK    1  A    between atoms: N1_1  and  N2_2 
ROOT
HETATM    1  N2  UNL     1      21.886   0.070  53.039  1.00  0.00    -0.309 N 
HETATM    2  C1  UNL     1      22.893   0.763  53.815  1.00  0.00     0.182 C 
HETATM    3  C2  UNL     1      24.171   0.675  53.105  1.00  0.00    -0.029 A 
HETATM    4  C3  UNL     1      24.857  -0.520  53.350  1.00  0.00     0.051 A 
HETATM    5  C4  UNL     1      26.079  -0.890  52.830  1.00  0.00     0.117 A 
HETATM    6  F1  UNL     1      26.680  -2.061  53.114  1.00  0.00    -0.206 F 
HETATM    7  C5  UNL     1      26.687   0.030  51.968  1.00  0.00     0.043 A 
HETATM    8  C6  UNL     1      26.000   1.227  51.722  1.00  0.00     0.012 A 
HETATM    9  C7  UNL     1      24.776   1.551  52.269  1.00  0.00    -0.037 A 
HETATM   10  C8  UNL     1      24.402   2.891  51.761  1.00  0.00     0.086 C 
HETATM   11  C9  UNL     1      24.248   2.876  50.271  1.00  0.00     0.105 C 
HETATM   12  N3  UNL     1      23.000   2.531  50.062  1.00  0.00    -0.247 NA
HETATM   13  C10 UNL     1      22.320   2.822  51.252  1.00  0.00     0.124 C 
HETATM   14  C11 UNL     1      23.073   3.335  52.210  1.00  0.00     0.038 C 
HETATM   15  N4  UNL     1      20.934   2.604  51.458  1.00  0.00    -0.339 N 
HETATM   16  C12 UNL     1      20.150   1.486  51.833  1.00  0.00     0.061 A 
HETATM   17  C13 UNL     1      18.831   1.537  51.458  1.00  0.00     0.032 A 
HETATM   18  C14 UNL     1      17.939   0.540  51.747  1.00  0.00     0.002 A 
HETATM   19  C15 UNL     1      18.370  -0.568  52.445  1.00  0.00     0.002 A 
HETATM   20  C16 UNL     1      19.697  -0.608  52.816  1.00  0.00     0.033 A 
HETATM   21  C17 UNL     1      20.602   0.393  52.528  1.00  0.00     0.072 A 
HETATM   22  H11 UNL     1      20.457   3.527  51.268  1.00  0.00     0.167 HD
ENDROOT
BRANCH   1  23
HETATM   23  N1  UNL     1      22.399  -1.214  52.812  1.00  0.00    -0.247 NA
HETATM   24  H1  UNL     1      22.000  -1.477  51.856  1.00  0.00     0.143 HD
HETATM   25  H2  UNL     1      22.062  -1.948  53.434  1.00  0.00     0.143 HD
ENDBRANCH   1  23
TORSDOF 1
ENDMDL
MODEL 6
REMARK VINA RESULT:      -7.5      8.629     10.515
REMARK  1 active torsions:
REMARK  status: ('A' for Active; 'I' for Inactive)
REMARK    1  A    between atoms: N1_1  and  N2_2 
ROOT
HETATM    1  N2  UNL     1      32.265   5.892  48.026  1.00  0.00    -0.309 N 
HETATM    2  C1  UNL     1      31.317   5.847  46.932  1.00  0.00     0.182 C 
HETATM    3  C2  UNL     1      30.001   6.244  47.439  1.00  0.00    -0.029 A 
HETATM    4  C3  UNL     1      29.301   5.192  48.040  1.00  0.00     0.051 A 
HETATM    5  C4  UNL     1      28.045   5.253  48.604  1.00  0.00     0.117 A 
HETATM    6  F1  UNL     1      27.433   4.194  49.165  1.00  0.00    -0.206 F 
HETATM    7  C5  UNL     1      27.415   6.502  48.569  1.00  0.00     0.043 A 
HETATM    8  C6  UNL     1      28.115   7.557  47.967  1.00  0.00     0.012 A 
HETATM    9  C7  UNL     1      29.374   7.443  47.415  1.00  0.00    -0.037 A 
HETATM   10  C8  UNL     1      29.752   8.774  46.888  1.00  0.00     0.086 C 
HETATM   11  C9  UNL     1      29.826   9.786  47.991  1.00  0.00     0.105 C 
HETATM   12  N3  UNL     1      31.052   9.702  48.448  1.00  0.00    -0.247 NA
HETATM   13  C10 UNL     1      31.801   9.113  47.420  1.00  0.00     0.124 C 
HETATM   14  C11 UNL     1      31.113   8.817  46.331  1.00  0.00     0.038 C 
HETATM   15  N4  UNL     1      33.191   8.839  47.496  1.00  0.00    -0.339 N 
HETATM   16  C12 UNL     1      33.967   7.783  48.030  1.00  0.00     0.061 A 
HETATM   17  C13 UNL     1      35.265   8.102  48.341  1.00  0.00     0.032 A 
HETATM   18  C14 UNL     1      36.148   7.195  48.861  1.00  0.00     0.002 A 
HETATM   19  C15 UNL     1      35.729   5.901  49.088  1.00  0.00     0.002 A 
HETATM   20  C16 UNL     1      34.422   5.592  48.771  1.00  0.00     0.033 A 
HETATM   21  C17 UNL     1      33.527   6.502  48.247  1.00  0.00     0.072 A 
HETATM   22  H11 UNL     1      33.679   9.652  47.029  1.00  0.00     0.167 HD
ENDROOT
BRANCH   1  23
HETATM   23  N1  UNL     1      31.711   5.101  49.041  1.00  0.00    -0.247 NA
HETATM   24  H1  UNL     1      32.565   4.747  49.577  1.00  0.00     0.143 HD
HETATM   25  H2  UNL     1      31.236   4.251  48.739  1.00  0.00     0.143 HD
ENDBRANCH   1  23
TORSDOF 1
ENDMDL
MODEL 7
REMARK VINA RESULT:      -7.5      4.487      6.384
REMARK  1 active torsions:
REMARK  status: ('A' for Active; 'I' for Inactive)
REMARK    1  A    between atoms: N1_1  and  N2_2 
ROOT
HETATM    1  N2  UNL     1      18.851  -0.655  52.941  1.00  0.00    -0.309 N 
HETATM    2  C1  UNL     1      18.029  -0.688  51.748  1.00  0.00     0.182 C 
HETATM    3  C2  UNL     1      16.934   0.271  51.910  1.00  0.00    -0.029 A 
HETATM    4  C3  UNL     1      15.849  -0.246  52.626  1.00  0.00     0.051 A 
HETATM    5  C4  UNL     1      14.677   0.411  52.936  1.00  0.00     0.117 A 
HETATM    6  F1  UNL     1      13.674  -0.155  53.632  1.00  0.00    -0.206 F 
HETATM    7  C5  UNL     1      14.574   1.731  52.484  1.00  0.00     0.043 A 
HETATM    8  C6  UNL     1      15.660   2.250  51.766  1.00  0.00     0.012 A 
HETATM    9  C7  UNL     1      16.813   1.549  51.481  1.00  0.00    -0.037 A 
HETATM   10  C8  UNL     1      17.703   2.449  50.712  1.00  0.00     0.086 C 
HETATM   11  C9  UNL     1      18.085   3.649  51.523  1.00  0.00     0.105 C 
HETATM   12  N3  UNL     1      19.154   3.283  52.188  1.00  0.00    -0.247 NA
HETATM   13  C10 UNL     1      19.688   2.196  51.482  1.00  0.00     0.124 C 
HETATM   14  C11 UNL     1      19.010   1.851  50.400  1.00  0.00     0.038 C 
HETATM   15  N4  UNL     1      20.860   1.492  51.857  1.00  0.00    -0.339 N 
HETATM   16  C12 UNL     1      21.140   0.440  52.762  1.00  0.00     0.061 A 
HETATM   17  C13 UNL     1      22.439   0.365  53.198  1.00  0.00     0.032 A 
HETATM   18  C14 UNL     1      22.875  -0.596  54.070  1.00  0.00     0.002 A 
HETATM   19  C15 UNL     1      21.980  -1.536  54.537  1.00  0.00     0.002 A 
HETATM   20  C16 UNL     1      20.678  -1.451  54.091  1.00  0.00     0.033 A 
HETATM   21  C17 UNL     1      20.232  -0.485  53.213  1.00  0.00     0.072 A 
HETATM   22  H11 UNL     1      21.650   1.909  51.291  1.00  0.00     0.167 HD
ENDROOT
BRANCH   1  23
HETATM   23  N1  UNL     1      17.973  -0.868  54.012  1.00  0.00    -0.247 NA
HETATM   24  H1  UNL     1      18.148  -0.029  54.649  1.00  0.00     0.143 HD
HETATM   25  H2  UNL     1      18.172  -1.676  54.601  1.00  0.00     0.143 HD
ENDBRANCH   1  23
TORSDOF 1
ENDMDL
MODEL 8
REMARK VINA RESULT:      -7.4      2.807      5.703
REMARK  1 active torsions:
REMARK  status: ('A' for Active; 'I' for Inactive)
REMARK    1  A    between atoms: N1_1  and  N2_2 
ROOT
HETATM    1  N2  UNL     1      22.659   1.679  51.811  1.00  0.00    -0.309 N 
HETATM    2  C1  UNL     1      23.312   1.612  50.519  1.00  0.00     0.182 C 
HETATM    3  C2  UNL     1      24.198   2.770  50.384  1.00  0.00    -0.029 A 
HETATM    4  C3  UNL     1      23.536   3.923  49.948  1.00  0.00     0.051 A 
HETATM    5  C4  UNL     1      24.098   5.162  49.726  1.00  0.00     0.117 A 
HETATM    6  F1  UNL     1      23.393   6.229  49.304  1.00  0.00    -0.206 F 
HETATM    7  C5  UNL     1      25.472   5.267  49.965  1.00  0.00     0.043 A 
HETATM    8  C6  UNL     1      26.137   4.113  50.402  1.00  0.00     0.012 A 
HETATM    9  C7  UNL     1      25.527   2.893  50.609  1.00  0.00    -0.037 A 
HETATM   10  C8  UNL     1      26.570   1.945  51.063  1.00  0.00     0.086 C 
HETATM   11  C9  UNL     1      27.166   2.386  52.365  1.00  0.00     0.105 C 
HETATM   12  N3  UNL     1      26.395   1.862  53.287  1.00  0.00    -0.247 NA
HETATM   13  C10 UNL     1      25.732   0.794  52.667  1.00  0.00     0.124 C 
HETATM   14  C11 UNL     1      26.043   0.612  51.395  1.00  0.00     0.038 C 
HETATM   15  N4  UNL     1      24.797  -0.054  53.313  1.00  0.00    -0.339 N 
HETATM   16  C12 UNL     1      23.412   0.029  53.595  1.00  0.00     0.061 A 
HETATM   17  C13 UNL     1      22.975  -0.745  54.642  1.00  0.00     0.032 A 
HETATM   18  C14 UNL     1      21.666  -0.783  55.039  1.00  0.00     0.002 A 
HETATM   19  C15 UNL     1      20.736  -0.017  54.369  1.00  0.00     0.002 A 
HETATM   20  C16 UNL     1      21.187   0.755  53.319  1.00  0.00     0.033 A 
HETATM   21  C17 UNL     1      22.504   0.799  52.912  1.00  0.00     0.072 A 
HETATM   22  H11 UNL     1      25.335  -0.910  53.620  1.00  0.00     0.167 HD
ENDROOT
BRANCH   1  23
HETATM   23  N1  UNL     1      22.062   2.945  51.868  1.00  0.00    -0.247 NA
HETATM   24  H1  UNL     1      21.504   2.917  52.780  1.00  0.00     0.143 HD
HETATM   25  H2  UNL     1      21.363   3.144  51.154  1.00  0.00     0.143 HD
ENDBRANCH   1  23
TORSDOF 1
ENDMDL
MODEL 9
REMARK VINA RESULT:      -7.4      2.388      3.183
REMARK  1 active torsions:
REMARK  status: ('A' for Active; 'I' for Inactive)
REMARK    1  A    between atoms: N1_1  and  N2_2 
ROOT
HETATM    1  N2  UNL     1      22.928   0.810  52.436  1.00  0.00    -0.309 N 
HETATM    2  C1  UNL     1      22.425   1.060  51.101  1.00  0.00     0.182 C 
HETATM    3  C2  UNL     1      21.262   1.945  51.199  1.00  0.00    -0.029 A 
HETATM    4  C3  UNL     1      20.072   1.264  51.481  1.00  0.00     0.051 A 
HETATM    5  C4  UNL     1      18.819   1.819  51.629  1.00  0.00     0.117 A 
HETATM    6  F1  UNL     1      17.717   1.096  51.899  1.00  0.00    -0.206 F 
HETATM    7  C5  UNL     1      18.741   3.209  51.483  1.00  0.00     0.043 A 
HETATM    8  C6  UNL     1      19.932   3.893  51.202  1.00  0.00     0.012 A 
HETATM    9  C7  UNL     1      21.164   3.288  51.062  1.00  0.00    -0.037 A 
HETATM   10  C8  UNL     1      22.152   4.352  50.771  1.00  0.00     0.086 C 
HETATM   11  C9  UNL     1      22.245   5.324  51.907  1.00  0.00     0.105 C 
HETATM   12  N3  UNL     1      23.143   4.815  52.716  1.00  0.00    -0.247 NA
HETATM   13  C10 UNL     1      23.903   3.934  51.935  1.00  0.00     0.124 C 
HETATM   14  C11 UNL     1      23.532   3.855  50.668  1.00  0.00     0.038 C 
HETATM   15  N4  UNL     1      24.993   3.168  52.420  1.00  0.00    -0.339 N 
HETATM   16  C12 UNL     1      25.115   1.930  53.097  1.00  0.00     0.061 A 
HETATM   17  C13 UNL     1      26.271   1.762  53.816  1.00  0.00     0.032 A 
HETATM   18  C14 UNL     1      26.545   0.621  54.523  1.00  0.00     0.002 A 
HETATM   19  C15 UNL     1      25.628  -0.409  54.520  1.00  0.00     0.002 A 
HETATM   20  C16 UNL     1      24.471  -0.227  53.793  1.00  0.00     0.033 A 
HETATM   21  C17 UNL     1      24.188   0.919  53.079  1.00  0.00     0.072 A 
HETATM   22  H11 UNL     1      25.867   3.714  52.184  1.00  0.00     0.167 HD
ENDROOT
BRANCH   1  23
HETATM   23  N1  UNL     1      21.833   0.340  53.173  1.00  0.00    -0.247 NA
HETATM   24  H1  UNL     1      21.047   0.292  52.450  1.00  0.00     0.143 HD
HETATM   25  H2  UNL     1      21.473   0.967  53.892  1.00  0.00     0.143 HD
ENDBRANCH   1  23
TORSDOF 1
ENDMDL
