MODEL 1
REMARK VINA RESULT:      -7.7      0.000      0.000
REMARK  6 active torsions:
REMARK  status: ('A' for Active; 'I' for Inactive)
REMARK    1  A    between atoms: C2_2  and  N1_3 
REMARK    2  A    between atoms: C3_4  and  C4_5 
REMARK    3  A    between atoms: C4_5  and  C5_6 
REMARK    4  A    between atoms: C8_10  and  N3_11 
REMARK    5  A    between atoms: N3_11  and  C9_12 
REMARK    6  A    between atoms: C11_14  and  N4_15 
ROOT
HETATM    1  N3  UNL     1      25.501   0.185  52.779  1.00  0.00    -0.188 N 
HETATM    2  H11 UNL     1      25.321   0.567  51.822  1.00  0.00     0.184 HD
ENDROOT
BRANCH   1   3
HETATM    3  C8  UNL     1      24.366  -0.203  53.542  1.00  0.00     0.727 A 
HETATM    4  N2  UNL     1      24.394  -0.934  54.663  1.00  0.00    -0.075 NA
HETATM    5  C7  UNL     1      23.305  -1.283  55.357  1.00  0.00     0.138 A 
HETATM    6  C6  UNL     1      22.069  -0.875  54.909  1.00  0.00     0.048 A 
HETATM    7  C5  UNL     1      22.013  -0.122  53.758  1.00  0.00     0.059 A 
HETATM    8  N5  UNL     1      23.151   0.185  53.121  1.00  0.00    -0.067 NA
BRANCH   7   9
HETATM    9  C4  UNL     1      20.689   0.316  53.273  1.00  0.00     0.106 C 
BRANCH   9  10
HETATM   10  C3  UNL     1      19.660  -0.760  53.449  1.00  0.00     0.089 C 
HETATM   11  N1  UNL     1      18.516  -0.549  52.921  1.00  0.00    -0.306 NA
BRANCH  11  12
HETATM   12  C2  UNL     1      17.416  -1.440  52.975  1.00  0.00     0.143 C 
HETATM   13  C1  UNL     1      17.856  -2.679  53.730  1.00  0.00     0.028 C 
ENDBRANCH  11  12
ENDBRANCH   9  10
ENDBRANCH   7   9
ENDBRANCH   1   3
BRANCH   1  14
HETATM   14  C9  UNL     1      26.853   0.125  53.143  1.00  0.00     0.057 A 
HETATM   15  C10 UNL     1      27.586   1.151  53.698  1.00  0.00     0.059 A 
HETATM   16  C11 UNL     1      28.915   1.100  54.059  1.00  0.00     0.027 A 
HETATM   17  C12 UNL     1      29.608  -0.074  53.860  1.00  0.00     0.029 A 
HETATM   18  C13 UNL     1      28.930  -1.139  53.307  1.00  0.00     0.011 A 
HETATM   19  C14 UNL     1      27.602  -1.044  52.962  1.00  0.00    -0.035 A 
HETATM   20  C15 UNL     1      26.927  -2.237  52.366  1.00  0.00     0.050 C 
BRANCH  16  21
HETATM   21  N4  UNL     1      29.610   2.201  54.628  1.00  0.00    -0.399 N 
HETATM   22  H13 UNL     1      29.064   2.968  55.069  1.00  0.00     0.156 HD
HETATM   23  H14 UNL     1      30.644   2.321  54.650  1.00  0.00     0.156 HD
ENDBRANCH  16  21
ENDBRANCH   1  14
TORSDOF 6
ENDMDL
MODEL 2
REMARK VINA RESULT:      -7.7      1.630      2.754
REMARK  6 active torsions:
REMARK  status: ('A' for Active; 'I' for Inactive)
REMARK    1  A    between atoms: C2_2  and  N1_3 
REMARK    2  A    between atoms: C3_4  and  C4_5 
REMARK    3  A    between atoms: C4_5  and  C5_6 
REMARK    4  A    between atoms: C8_10  and  N3_11 
REMARK    5  A    between atoms: N3_11  and  C9_12 
REMARK    6  A    between atoms: C11_14  and  N4_15 
ROOT
HETATM    1  N3  UNL     1      26.297   1.414  53.321  1.00  0.00    -0.188 N 
HETATM    2  H11 UNL     1      26.488   2.350  53.748  1.00  0.00     0.184 HD
ENDROOT
BRANCH   1   3
HETATM    3  C8  UNL     1      24.991   1.196  52.803  1.00  0.00     0.727 A 
HETATM    4  N2  UNL     1      24.523   1.677  51.646  1.00  0.00    -0.075 NA
HETATM    5  C7  UNL     1      23.286   1.453  51.186  1.00  0.00     0.138 A 
HETATM    6  C6  UNL     1      22.427   0.681  51.935  1.00  0.00     0.048 A 
HETATM    7  C5  UNL     1      22.885   0.174  53.130  1.00  0.00     0.059 A 
HETATM    8  N5  UNL     1      24.138   0.446  53.518  1.00  0.00    -0.067 NA
BRANCH   7   9
HETATM    9  C4  UNL     1      21.965  -0.654  53.936  1.00  0.00     0.106 C 
BRANCH   9  10
HETATM   10  C3  UNL     1      20.534  -0.379  53.585  1.00  0.00     0.089 C 
HETATM   11  N1  UNL     1      19.728  -1.368  53.656  1.00  0.00    -0.306 NA
BRANCH  11  12
HETATM   12  C2  UNL     1      18.343  -1.313  53.366  1.00  0.00     0.143 C 
HETATM   13  C1  UNL     1      17.755  -2.684  53.637  1.00  0.00     0.028 C 
ENDBRANCH  11  12
ENDBRANCH   9  10
ENDBRANCH   7   9
ENDBRANCH   1   3
BRANCH   1  14
HETATM   14  C9  UNL     1      27.382   0.528  53.340  1.00  0.00     0.057 A 
HETATM   15  C10 UNL     1      27.314  -0.837  53.165  1.00  0.00     0.059 A 
HETATM   16  C11 UNL     1      28.376  -1.715  53.181  1.00  0.00     0.027 A 
HETATM   17  C12 UNL     1      29.642  -1.214  53.389  1.00  0.00     0.029 A 
HETATM   18  C13 UNL     1      29.779   0.145  53.570  1.00  0.00     0.011 A 
HETATM   19  C14 UNL     1      28.690   0.985  53.546  1.00  0.00    -0.035 A 
HETATM   20  C15 UNL     1      28.907   2.450  53.750  1.00  0.00     0.050 C 
BRANCH  16  21
HETATM   21  N4  UNL     1      28.231  -3.116  52.994  1.00  0.00    -0.399 N 
HETATM   22  H13 UNL     1      27.491  -3.465  52.351  1.00  0.00     0.156 HD
HETATM   23  H14 UNL     1      28.809  -3.853  53.449  1.00  0.00     0.156 HD
ENDBRANCH  16  21
ENDBRANCH   1  14
TORSDOF 6
ENDMDL
MODEL 3
REMARK VINA RESULT:      -7.6      3.699      6.463
REMARK  6 active torsions:
REMARK  status: ('A' for Active; 'I' for Inactive)
REMARK    1  A    between atoms: C2_2  and  N1_3 
REMARK    2  A    between atoms: C3_4  and  C4_5 
REMARK    3  A    between atoms: C4_5  and  C5_6 
REMARK    4  A    between atoms: C8_10  and  N3_11 
REMARK    5  A    between atoms: N3_11  and  C9_12 
REMARK    6  A    between atoms: C11_14  and  N4_15 
ROOT
HETATM    1  N3  UNL     1      26.236   1.155  53.663  1.00  0.00    -0.188 N 
HETATM    2  H11 UNL     1      26.090   1.573  54.611  1.00  0.00     0.184 HD
ENDROOT
BRANCH   1   3
HETATM    3  C8  UNL     1      25.260   1.446  52.672  1.00  0.00     0.727 A 
HETATM    4  N2  UNL     1      24.059   0.867  52.568  1.00  0.00    -0.075 NA
HETATM    5  C7  UNL     1      23.162   1.165  51.621  1.00  0.00     0.138 A 
HETATM    6  C6  UNL     1      23.474   2.124  50.685  1.00  0.00     0.048 A 
HETATM    7  C5  UNL     1      24.705   2.736  50.770  1.00  0.00     0.059 A 
HETATM    8  N5  UNL     1      25.547   2.380  51.750  1.00  0.00    -0.067 NA
BRANCH   7   9
HETATM    9  C4  UNL     1      25.044   3.765  49.767  1.00  0.00     0.106 C 
BRANCH   9  10
HETATM   10  C3  UNL     1      26.528   3.888  49.591  1.00  0.00     0.089 C 
HETATM   11  N1  UNL     1      26.936   4.794  48.787  1.00  0.00    -0.306 NA
BRANCH  11  12
HETATM   12  C2  UNL     1      28.292   5.067  48.487  1.00  0.00     0.143 C 
HETATM   13  C1  UNL     1      28.394   6.522  48.070  1.00  0.00     0.028 C 
ENDBRANCH  11  12
ENDBRANCH   9  10
ENDBRANCH   7   9
ENDBRANCH   1   3
BRANCH   1  14
HETATM   14  C9  UNL     1      27.390   0.368  53.540  1.00  0.00     0.057 A 
HETATM   15  C10 UNL     1      27.420  -0.999  53.372  1.00  0.00     0.059 A 
HETATM   16  C11 UNL     1      28.548  -1.780  53.249  1.00  0.00     0.027 A 
HETATM   17  C12 UNL     1      29.782  -1.169  53.295  1.00  0.00     0.029 A 
HETATM   18  C13 UNL     1      29.820   0.199  53.462  1.00  0.00     0.011 A 
HETATM   19  C14 UNL     1      28.667   0.940  53.579  1.00  0.00    -0.035 A 
HETATM   20  C15 UNL     1      28.779   2.420  53.758  1.00  0.00     0.050 C 
BRANCH  16  21
HETATM   21  N4  UNL     1      28.505  -3.190  53.078  1.00  0.00    -0.399 N 
HETATM   22  H13 UNL     1      28.567  -3.583  52.117  1.00  0.00     0.156 HD
HETATM   23  H14 UNL     1      28.416  -3.893  53.841  1.00  0.00     0.156 HD
ENDBRANCH  16  21
ENDBRANCH   1  14
TORSDOF 6
ENDMDL
MODEL 4
REMARK VINA RESULT:      -7.6      2.281      3.750
REMARK  6 active torsions:
REMARK  status: ('A' for Active; 'I' for Inactive)
REMARK    1  A    between atoms: C2_2  and  N1_3 
REMARK    2  A    between atoms: C3_4  and  C4_5 
REMARK    3  A    between atoms: C4_5  and  C5_6 
REMARK    4  A    between atoms: C8_10  and  N3_11 
REMARK    5  A    between atoms: N3_11  and  C9_12 
REMARK    6  A    between atoms: C11_14  and  N4_15 
ROOT
HETATM    1  N3  UNL     1      26.373   1.318  53.448  1.00  0.00    -0.188 N 
HETATM    2  H11 UNL     1      26.112   1.664  54.399  1.00  0.00     0.184 HD
ENDROOT
BRANCH   1   3
HETATM    3  C8  UNL     1      25.586   1.775  52.356  1.00  0.00     0.727 A 
HETATM    4  N2  UNL     1      25.975   2.660  51.432  1.00  0.00    -0.075 NA
HETATM    5  C7  UNL     1      25.207   3.070  50.416  1.00  0.00     0.138 A 
HETATM    6  C6  UNL     1      23.934   2.562  50.296  1.00  0.00     0.048 A 
HETATM    7  C5  UNL     1      23.509   1.649  51.235  1.00  0.00     0.059 A 
HETATM    8  N5  UNL     1      24.340   1.291  52.222  1.00  0.00    -0.067 NA
BRANCH   7   9
HETATM    9  C4  UNL     1      22.142   1.102  51.110  1.00  0.00     0.106 C 
BRANCH   9  10
HETATM   10  C3  UNL     1      21.841   0.131  52.211  1.00  0.00     0.089 C 
HETATM   11  N1  UNL     1      21.283   0.608  53.258  1.00  0.00    -0.306 NA
BRANCH  11  12
HETATM   12  C2  UNL     1      20.919  -0.143  54.401  1.00  0.00     0.143 C 
HETATM   13  C1  UNL     1      22.145  -0.902  54.870  1.00  0.00     0.028 C 
ENDBRANCH  11  12
ENDBRANCH   9  10
ENDBRANCH   7   9
ENDBRANCH   1   3
BRANCH   1  14
HETATM   14  C9  UNL     1      27.472   0.448  53.421  1.00  0.00     0.057 A 
HETATM   15  C10 UNL     1      27.419  -0.915  53.232  1.00  0.00     0.059 A 
HETATM   16  C11 UNL     1      28.493  -1.777  53.203  1.00  0.00     0.027 A 
HETATM   17  C12 UNL     1      29.759  -1.260  53.376  1.00  0.00     0.029 A 
HETATM   18  C13 UNL     1      29.880   0.100  53.569  1.00  0.00     0.011 A 
HETATM   19  C14 UNL     1      28.779   0.923  53.590  1.00  0.00    -0.035 A 
HETATM   20  C15 UNL     1      28.981   2.389  53.805  1.00  0.00     0.050 C 
BRANCH  16  21
HETATM   21  N4  UNL     1      28.364  -3.178  53.004  1.00  0.00    -0.399 N 
HETATM   22  H13 UNL     1      27.484  -3.649  53.295  1.00  0.00     0.156 HD
HETATM   23  H14 UNL     1      29.083  -3.801  52.582  1.00  0.00     0.156 HD
ENDBRANCH  16  21
ENDBRANCH   1  14
TORSDOF 6
ENDMDL
MODEL 5
REMARK VINA RESULT:      -7.6      1.455      2.257
REMARK  6 active torsions:
REMARK  status: ('A' for Active; 'I' for Inactive)
REMARK    1  A    between atoms: C2_2  and  N1_3 
REMARK    2  A    between atoms: C3_4  and  C4_5 
REMARK    3  A    between atoms: C4_5  and  C5_6 
REMARK    4  A    between atoms: C8_10  and  N3_11 
REMARK    5  A    between atoms: N3_11  and  C9_12 
REMARK    6  A    between atoms: C11_14  and  N4_15 
ROOT
HETATM    1  N3  UNL     1      25.999   0.790  53.012  1.00  0.00    -0.188 N 
HETATM    2  H11 UNL     1      26.076   1.776  52.672  1.00  0.00     0.184 HD
ENDROOT
BRANCH   1   3
HETATM    3  C8  UNL     1      24.690   0.290  53.250  1.00  0.00     0.727 A 
HETATM    4  N2  UNL     1      24.332  -0.499  54.269  1.00  0.00    -0.075 NA
HETATM    5  C7  UNL     1      23.088  -0.953  54.465  1.00  0.00     0.138 A 
HETATM    6  C6  UNL     1      22.101  -0.598  53.574  1.00  0.00     0.048 A 
HETATM    7  C5  UNL     1      22.444   0.214  52.516  1.00  0.00     0.059 A 
HETATM    8  N5  UNL     1      23.714   0.625  52.392  1.00  0.00    -0.067 NA
BRANCH   7   9
HETATM    9  C4  UNL     1      21.388   0.596  51.557  1.00  0.00     0.106 C 
BRANCH   9  10
HETATM   10  C3  UNL     1      20.042   0.636  52.215  1.00  0.00     0.089 C 
HETATM   11  N1  UNL     1      19.143  -0.131  51.727  1.00  0.00    -0.306 NA
BRANCH  11  12
HETATM   12  C2  UNL     1      17.815  -0.238  52.206  1.00  0.00     0.143 C 
HETATM   13  C1  UNL     1      17.759  -1.412  53.165  1.00  0.00     0.028 C 
ENDBRANCH  11  12
ENDBRANCH   9  10
ENDBRANCH   7   9
ENDBRANCH   1   3
BRANCH   1  14
HETATM   14  C9  UNL     1      27.224   0.128  53.174  1.00  0.00     0.057 A 
HETATM   15  C10 UNL     1      27.424  -1.232  53.088  1.00  0.00     0.059 A 
HETATM   16  C11 UNL     1      28.624  -1.891  53.245  1.00  0.00     0.027 A 
HETATM   17  C12 UNL     1      29.753  -1.149  53.517  1.00  0.00     0.029 A 
HETATM   18  C13 UNL     1      29.619   0.219  53.616  1.00  0.00     0.011 A 
HETATM   19  C14 UNL     1      28.401   0.835  53.451  1.00  0.00    -0.035 A 
HETATM   20  C15 UNL     1      28.324   2.323  53.572  1.00  0.00     0.050 C 
BRANCH  16  21
HETATM   21  N4  UNL     1      28.758  -3.302  53.142  1.00  0.00    -0.399 N 
HETATM   22  H13 UNL     1      29.069  -3.714  52.239  1.00  0.00     0.156 HD
HETATM   23  H14 UNL     1      28.571  -3.987  53.902  1.00  0.00     0.156 HD
ENDBRANCH  16  21
ENDBRANCH   1  14
TORSDOF 6
ENDMDL
MODEL 6
REMARK VINA RESULT:      -7.3      2.318      3.627
REMARK  6 active torsions:
REMARK  status: ('A' for Active; 'I' for Inactive)
REMARK    1  A    between atoms: C2_2  and  N1_3 
REMARK    2  A    between atoms: C3_4  and  C4_5 
REMARK    3  A    between atoms: C4_5  and  C5_6 
REMARK    4  A    between atoms: C8_10  and  N3_11 
REMARK    5  A    between atoms: N3_11  and  C9_12 
REMARK    6  A    between atoms: C11_14  and  N4_15 
ROOT
HETATM    1  N3  UNL     1      26.057   0.819  52.867  1.00  0.00    -0.188 N 
HETATM    2  H11 UNL     1      26.152   1.781  52.467  1.00  0.00     0.184 HD
ENDROOT
BRANCH   1   3
HETATM    3  C8  UNL     1      24.737   0.350  53.112  1.00  0.00     0.727 A 
HETATM    4  N2  UNL     1      24.360  -0.407  54.148  1.00  0.00    -0.075 NA
HETATM    5  C7  UNL     1      23.108  -0.833  54.349  1.00  0.00     0.138 A 
HETATM    6  C6  UNL     1      22.131  -0.481  53.446  1.00  0.00     0.048 A 
HETATM    7  C5  UNL     1      22.493   0.299  52.370  1.00  0.00     0.059 A 
HETATM    8  N5  UNL     1      23.771   0.683  52.242  1.00  0.00    -0.067 NA
BRANCH   7   9
HETATM    9  C4  UNL     1      21.448   0.678  51.398  1.00  0.00     0.106 C 
BRANCH   9  10
HETATM   10  C3  UNL     1      20.833   1.999  51.746  1.00  0.00     0.089 C 
HETATM   11  N1  UNL     1      21.406   3.039  51.272  1.00  0.00    -0.306 NA
BRANCH  11  12
HETATM   12  C2  UNL     1      20.980   4.373  51.485  1.00  0.00     0.143 C 
HETATM   13  C1  UNL     1      22.186   5.183  51.922  1.00  0.00     0.028 C 
ENDBRANCH  11  12
ENDBRANCH   9  10
ENDBRANCH   7   9
ENDBRANCH   1   3
BRANCH   1  14
HETATM   14  C9  UNL     1      27.270   0.156  53.094  1.00  0.00     0.057 A 
HETATM   15  C10 UNL     1      27.471  -1.206  53.025  1.00  0.00     0.059 A 
HETATM   16  C11 UNL     1      28.659  -1.866  53.245  1.00  0.00     0.027 A 
HETATM   17  C12 UNL     1      29.775  -1.126  53.568  1.00  0.00     0.029 A 
HETATM   18  C13 UNL     1      29.641   0.243  53.653  1.00  0.00     0.011 A 
HETATM   19  C14 UNL     1      28.433   0.861  53.424  1.00  0.00    -0.035 A 
HETATM   20  C15 UNL     1      28.355   2.350  53.533  1.00  0.00     0.050 C 
BRANCH  16  21
HETATM   21  N4  UNL     1      28.795  -3.278  53.156  1.00  0.00    -0.399 N 
HETATM   22  H13 UNL     1      29.255  -3.689  52.319  1.00  0.00     0.156 HD
HETATM   23  H14 UNL     1      28.470  -3.965  53.867  1.00  0.00     0.156 HD
ENDBRANCH  16  21
ENDBRANCH   1  14
TORSDOF 6
ENDMDL
MODEL 7
REMARK VINA RESULT:      -7.0      2.677      4.709
REMARK  6 active torsions:
REMARK  status: ('A' for Active; 'I' for Inactive)
REMARK    1  A    between atoms: C2_2  and  N1_3 
REMARK    2  A    between atoms: C3_4  and  C4_5 
REMARK    3  A    between atoms: C4_5  and  C5_6 
REMARK    4  A    between atoms: C8_10  and  N3_11 
REMARK    5  A    between atoms: N3_11  and  C9_12 
REMARK    6  A    between atoms: C11_14  and  N4_15 
ROOT
HETATM    1  N3  UNL     1      25.989  -0.974  54.089  1.00  0.00    -0.188 N 
HETATM    2  H11 UNL     1      25.832  -1.900  54.549  1.00  0.00     0.184 HD
ENDROOT
BRANCH   1   3
HETATM    3  C8  UNL     1      24.833  -0.239  53.707  1.00  0.00     0.727 A 
HETATM    4  N2  UNL     1      23.581  -0.711  53.691  1.00  0.00    -0.075 NA
HETATM    5  C7  UNL     1      22.514   0.009  53.326  1.00  0.00     0.138 A 
HETATM    6  C6  UNL     1      22.693   1.317  52.938  1.00  0.00     0.048 A 
HETATM    7  C5  UNL     1      23.973   1.826  52.946  1.00  0.00     0.059 A 
HETATM    8  N5  UNL     1      24.988   1.039  53.326  1.00  0.00    -0.067 NA
BRANCH   7   9
HETATM    9  C4  UNL     1      24.169   3.230  52.530  1.00  0.00     0.106 C 
BRANCH   9  10
HETATM   10  C3  UNL     1      24.524   3.323  51.076  1.00  0.00     0.089 C 
HETATM   11  N1  UNL     1      24.914   4.465  50.655  1.00  0.00    -0.306 NA
BRANCH  11  12
HETATM   12  C2  UNL     1      25.293   4.756  49.322  1.00  0.00     0.143 C 
HETATM   13  C1  UNL     1      26.797   4.594  49.219  1.00  0.00     0.028 C 
ENDBRANCH  11  12
ENDBRANCH   9  10
ENDBRANCH   7   9
ENDBRANCH   1   3
BRANCH   1  14
HETATM   14  C9  UNL     1      27.335  -0.619  53.928  1.00  0.00     0.057 A 
HETATM   15  C10 UNL     1      27.925   0.539  54.385  1.00  0.00     0.059 A 
HETATM   16  C11 UNL     1      29.247   0.896  54.232  1.00  0.00     0.027 A 
HETATM   17  C12 UNL     1      30.089   0.035  53.563  1.00  0.00     0.029 A 
HETATM   18  C13 UNL     1      29.560  -1.143  53.080  1.00  0.00     0.011 A 
HETATM   19  C14 UNL     1      28.233  -1.458  53.257  1.00  0.00    -0.035 A 
HETATM   20  C15 UNL     1      27.722  -2.752  52.708  1.00  0.00     0.050 C 
BRANCH  16  21
HETATM   21  N4  UNL     1      29.789   2.111  54.731  1.00  0.00    -0.399 N 
HETATM   22  H13 UNL     1      29.345   3.011  54.457  1.00  0.00     0.156 HD
HETATM   23  H14 UNL     1      30.612   2.195  55.363  1.00  0.00     0.156 HD
ENDBRANCH  16  21
ENDBRANCH   1  14
TORSDOF 6
ENDMDL
MODEL 8
REMARK VINA RESULT:      -6.9      3.248      4.798
REMARK  6 active torsions:
REMARK  status: ('A' for Active; 'I' for Inactive)
REMARK    1  A    between atoms: C2_2  and  N1_3 
REMARK    2  A    between atoms: C3_4  and  C4_5 
REMARK    3  A    between atoms: C4_5  and  C5_6 
REMARK    4  A    between atoms: C8_10  and  N3_11 
REMARK    5  A    between atoms: N3_11  and  C9_12 
REMARK    6  A    between atoms: C11_14  and  N4_15 
ROOT
HETATM    1  N3  UNL     1      26.257   1.252  52.791  1.00  0.00    -0.188 N 
HETATM    2  H11 UNL     1      25.485   1.153  53.489  1.00  0.00     0.184 HD
ENDROOT
BRANCH   1   3
HETATM    3  C8  UNL     1      26.052   2.175  51.729  1.00  0.00     0.727 A 
HETATM    4  N2  UNL     1      26.818   2.290  50.638  1.00  0.00    -0.075 NA
HETATM    5  C7  UNL     1      26.596   3.171  49.656  1.00  0.00     0.138 A 
HETATM    6  C6  UNL     1      25.518   4.020  49.753  1.00  0.00     0.048 A 
HETATM    7  C5  UNL     1      24.713   3.922  50.866  1.00  0.00     0.059 A 
HETATM    8  N5  UNL     1      25.005   3.012  51.806  1.00  0.00    -0.067 NA
BRANCH   7   9
HETATM    9  C4  UNL     1      23.556   4.833  50.974  1.00  0.00     0.106 C 
BRANCH   9  10
HETATM   10  C3  UNL     1      22.262   4.093  50.812  1.00  0.00     0.089 C 
HETATM   11  N1  UNL     1      21.640   3.786  51.886  1.00  0.00    -0.306 NA
BRANCH  11  12
HETATM   12  C2  UNL     1      20.408   3.090  51.944  1.00  0.00     0.143 C 
HETATM   13  C1  UNL     1      20.556   1.962  52.946  1.00  0.00     0.028 C 
ENDBRANCH  11  12
ENDBRANCH   9  10
ENDBRANCH   7   9
ENDBRANCH   1   3
BRANCH   1  14
HETATM   14  C9  UNL     1      27.375   0.443  53.033  1.00  0.00     0.057 A 
HETATM   15  C10 UNL     1      27.418  -0.930  52.919  1.00  0.00     0.059 A 
HETATM   16  C11 UNL     1      28.512  -1.733  53.153  1.00  0.00     0.027 A 
HETATM   17  C12 UNL     1      29.694  -1.141  53.541  1.00  0.00     0.029 A 
HETATM   18  C13 UNL     1      29.717   0.230  53.674  1.00  0.00     0.011 A 
HETATM   19  C14 UNL     1      28.600   0.994  53.428  1.00  0.00    -0.035 A 
HETATM   20  C15 UNL     1      28.693   2.477  53.591  1.00  0.00     0.050 C 
BRANCH  16  21
HETATM   21  N4  UNL     1      28.485  -3.147  53.016  1.00  0.00    -0.399 N 
HETATM   22  H13 UNL     1      28.484  -3.561  52.061  1.00  0.00     0.156 HD
HETATM   23  H14 UNL     1      28.465  -3.834  53.798  1.00  0.00     0.156 HD
ENDBRANCH  16  21
ENDBRANCH   1  14
TORSDOF 6
ENDMDL
MODEL 9
REMARK VINA RESULT:      -6.9      4.836      7.817
REMARK  6 active torsions:
REMARK  status: ('A' for Active; 'I' for Inactive)
REMARK    1  A    between atoms: C2_2  and  N1_3 
REMARK    2  A    between atoms: C3_4  and  C4_5 
REMARK    3  A    between atoms: C4_5  and  C5_6 
REMARK    4  A    between atoms: C8_10  and  N3_11 
REMARK    5  A    between atoms: N3_11  and  C9_12 
REMARK    6  A    between atoms: C11_14  and  N4_15 
ROOT
HETATM    1  N3  UNL     1      26.054   1.404  51.692  1.00  0.00    -0.188 N 
HETATM    2  H11 UNL     1      25.338   0.663  51.515  1.00  0.00     0.184 HD
ENDROOT
BRANCH   1   3
HETATM    3  C8  UNL     1      25.841   2.668  51.078  1.00  0.00     0.727 A 
HETATM    4  N2  UNL     1      24.789   3.467  51.287  1.00  0.00    -0.075 NA
HETATM    5  C7  UNL     1      24.618   4.653  50.692  1.00  0.00     0.138 A 
HETATM    6  C6  UNL     1      25.572   5.097  49.806  1.00  0.00     0.048 A 
HETATM    7  C5  UNL     1      26.666   4.293  49.573  1.00  0.00     0.059 A 
HETATM    8  N5  UNL     1      26.761   3.119  50.211  1.00  0.00    -0.067 NA
BRANCH   7   9
HETATM    9  C4  UNL     1      27.692   4.766  48.622  1.00  0.00     0.106 C 
BRANCH   9  10
HETATM   10  C3  UNL     1      27.581   6.243  48.391  1.00  0.00     0.089 C 
HETATM   11  N1  UNL     1      28.677   6.877  48.212  1.00  0.00    -0.306 NA
BRANCH  11  12
HETATM   12  C2  UNL     1      28.784   8.270  47.979  1.00  0.00     0.143 C 
HETATM   13  C1  UNL     1      29.437   8.897  49.195  1.00  0.00     0.028 C 
ENDBRANCH  11  12
ENDBRANCH   9  10
ENDBRANCH   7   9
ENDBRANCH   1   3
BRANCH   1  14
HETATM   14  C9  UNL     1      27.115   1.008  52.518  1.00  0.00     0.057 A 
HETATM   15  C10 UNL     1      27.991   1.851  53.168  1.00  0.00     0.059 A 
HETATM   16  C11 UNL     1      29.035   1.471  53.982  1.00  0.00     0.027 A 
HETATM   17  C12 UNL     1      29.255   0.126  54.188  1.00  0.00     0.029 A 
HETATM   18  C13 UNL     1      28.413  -0.770  53.565  1.00  0.00     0.011 A 
HETATM   19  C14 UNL     1      27.381  -0.345  52.761  1.00  0.00    -0.035 A 
HETATM   20  C15 UNL     1      26.505  -1.370  52.115  1.00  0.00     0.050 C 
BRANCH  16  21
HETATM   21  N4  UNL     1      29.902   2.397  54.622  1.00  0.00    -0.399 N 
HETATM   22  H13 UNL     1      30.062   3.326  54.180  1.00  0.00     0.156 HD
HETATM   23  H14 UNL     1      30.409   2.237  55.516  1.00  0.00     0.156 HD
ENDBRANCH  16  21
ENDBRANCH   1  14
TORSDOF 6
ENDMDL
