MODEL 1
REMARK VINA RESULT:      -7.3      0.000      0.000
REMARK  3 active torsions:
REMARK  status: ('A' for Active; 'I' for Inactive)
REMARK       I    between atoms: C1_2  and  N1_3 
REMARK    1  A    between atoms: C1_2  and  C8_11 
REMARK    2  A    between atoms: N1_3  and  C2_4 
REMARK    3  A    between atoms: C11_14  and  C12_15 
ROOT
HETATM    1  O1  UNL     1      26.963   2.446  53.341  1.00  0.00    -0.270 OA
HETATM    2  C1  UNL     1      27.027   1.539  52.504  1.00  0.00     0.252 C 
HETATM    3  N1  UNL     1      26.597   1.756  51.181  1.00  0.00    -0.325 N 
HETATM    4  H1  UNL     1      26.713   0.899  50.594  1.00  0.00     0.169 HD
ENDROOT
BRANCH   2   5
HETATM    5  C8  UNL     1      27.569   0.277  53.011  1.00  0.00     0.135 C 
HETATM    6  C9  UNL     1      27.213  -0.977  52.261  1.00  0.00     0.072 C 
HETATM    7  C10 UNL     1      25.875  -1.269  52.894  1.00  0.00     0.002 C 
HETATM    8  C11 UNL     1      25.785  -0.743  54.129  1.00  0.00     0.018 C 
HETATM    9  N2  UNL     1      27.040  -0.105  54.333  1.00  0.00    -0.362 N 
HETATM   10  C13 UNL     1      28.258   0.481  54.921  1.00  0.00     0.147 C 
HETATM   11  C14 UNL     1      28.966   0.364  53.573  1.00  0.00     0.138 C 
HETATM   12 CL2  UNL     1      29.948  -1.080  53.389  1.00  0.00    -0.120 Cl
BRANCH   8  13
HETATM   13  C12 UNL     1      24.664  -0.796  55.081  1.00  0.00     0.171 C 
HETATM   14 CL1  UNL     1      23.097  -0.857  54.247  1.00  0.00    -0.124 Cl
ENDBRANCH   8  13
ENDBRANCH   2   5
BRANCH   3  15
HETATM   15  C2  UNL     1      26.064   2.938  50.612  1.00  0.00     0.034 A 
HETATM   16  C3  UNL     1      24.850   3.487  50.847  1.00  0.00     0.031 A 
HETATM   17  C4  UNL     1      24.393   4.645  50.256  1.00  0.00     0.021 A 
HETATM   18  C5  UNL     1      25.197   5.319  49.359  1.00  0.00     0.011 A 
HETATM   19 BR1  UNL     1      24.612   6.926  48.513  1.00  0.00    -0.051 Br
HETATM   20  C6  UNL     1      26.442   4.774  49.106  1.00  0.00     0.021 A 
HETATM   21  C7  UNL     1      26.842   3.630  49.716  1.00  0.00     0.031 A 
ENDBRANCH   3  15
TORSDOF 3
ENDMDL
MODEL 2
REMARK VINA RESULT:      -7.0      4.371      6.662
REMARK  3 active torsions:
REMARK  status: ('A' for Active; 'I' for Inactive)
REMARK       I    between atoms: C1_2  and  N1_3 
REMARK    1  A    between atoms: C1_2  and  C8_11 
REMARK    2  A    between atoms: N1_3  and  C2_4 
REMARK    3  A    between atoms: C11_14  and  C12_15 
ROOT
HETATM    1  O1  UNL     1      22.945  -1.483  52.888  1.00  0.00    -0.270 OA
HETATM    2  C1  UNL     1      22.727  -0.267  52.883  1.00  0.00     0.252 C 
HETATM    3  N1  UNL     1      23.776   0.648  53.094  1.00  0.00    -0.325 N 
HETATM    4  H1  UNL     1      23.435   1.636  53.060  1.00  0.00     0.169 HD
ENDROOT
BRANCH   2   5
HETATM    5  C8  UNL     1      21.329   0.102  52.646  1.00  0.00     0.135 C 
HETATM    6  C9  UNL     1      20.883   0.230  51.216  1.00  0.00     0.072 C 
HETATM    7  C10 UNL     1      21.328   1.646  50.947  1.00  0.00     0.002 C 
HETATM    8  C11 UNL     1      21.390   2.371  52.078  1.00  0.00     0.018 C 
HETATM    9  N2  UNL     1      20.993   1.465  53.100  1.00  0.00    -0.362 N 
HETATM   10  C13 UNL     1      20.466   0.856  54.335  1.00  0.00     0.147 C 
HETATM   11  C14 UNL     1      20.341  -0.488  53.621  1.00  0.00     0.138 C 
HETATM   12 CL2  UNL     1      18.744  -0.821  52.972  1.00  0.00    -0.120 Cl
BRANCH   8  13
HETATM   13  C12 UNL     1      21.774   3.780  52.258  1.00  0.00     0.171 C 
HETATM   14 CL1  UNL     1      23.503   3.948  52.626  1.00  0.00    -0.124 Cl
ENDBRANCH   8  13
ENDBRANCH   2   5
BRANCH   3  15
HETATM   15  C2  UNL     1      25.145   0.378  53.328  1.00  0.00     0.034 A 
HETATM   16  C3  UNL     1      25.788   0.363  54.518  1.00  0.00     0.031 A 
HETATM   17  C4  UNL     1      27.129   0.090  54.675  1.00  0.00     0.021 A 
HETATM   18  C5  UNL     1      27.904  -0.193  53.567  1.00  0.00     0.011 A 
HETATM   19 BR1  UNL     1      29.765  -0.577  53.729  1.00  0.00    -0.051 Br
HETATM   20  C6  UNL     1      27.265  -0.183  52.342  1.00  0.00     0.021 A 
HETATM   21  C7  UNL     1      25.940   0.092  52.244  1.00  0.00     0.031 A 
ENDBRANCH   3  15
TORSDOF 3
ENDMDL
MODEL 3
REMARK VINA RESULT:      -6.9      3.840      6.742
REMARK  3 active torsions:
REMARK  status: ('A' for Active; 'I' for Inactive)
REMARK       I    between atoms: C1_2  and  N1_3 
REMARK    1  A    between atoms: C1_2  and  C8_11 
REMARK    2  A    between atoms: N1_3  and  C2_4 
REMARK    3  A    between atoms: C11_14  and  C12_15 
ROOT
HETATM    1  O1  UNL     1      23.417   1.045  51.858  1.00  0.00    -0.270 OA
HETATM    2  C1  UNL     1      23.893   2.147  51.564  1.00  0.00     0.252 C 
HETATM    3  N1  UNL     1      25.272   2.392  51.711  1.00  0.00    -0.325 N 
HETATM    4  H1  UNL     1      25.522   3.365  51.422  1.00  0.00     0.169 HD
ENDROOT
BRANCH   2   5
HETATM    5  C8  UNL     1      22.918   3.122  51.070  1.00  0.00     0.135 C 
HETATM    6  C9  UNL     1      22.324   2.873  49.711  1.00  0.00     0.072 C 
HETATM    7  C10 UNL     1      23.405   3.484  48.855  1.00  0.00     0.002 C 
HETATM    8  C11 UNL     1      24.096   4.425  49.524  1.00  0.00     0.018 C 
HETATM    9  N2  UNL     1      23.494   4.455  50.812  1.00  0.00    -0.362 N 
HETATM   10  C13 UNL     1      22.998   4.857  52.141  1.00  0.00     0.147 C 
HETATM   11  C14 UNL     1      22.004   3.698  52.122  1.00  0.00     0.138 C 
HETATM   12 CL2  UNL     1      20.394   4.129  51.571  1.00  0.00    -0.120 Cl
BRANCH   8  13
HETATM   13  C12 UNL     1      25.220   5.255  49.062  1.00  0.00     0.171 C 
HETATM   14 CL1  UNL     1      26.760   4.373  49.133  1.00  0.00    -0.124 Cl
ENDBRANCH   8  13
ENDBRANCH   2   5
BRANCH   3  15
HETATM   15  C2  UNL     1      26.276   1.511  52.179  1.00  0.00     0.034 A 
HETATM   16  C3  UNL     1      26.282   0.160  52.110  1.00  0.00     0.031 A 
HETATM   17  C4  UNL     1      27.298  -0.638  52.587  1.00  0.00     0.021 A 
HETATM   18  C5  UNL     1      28.402  -0.060  53.182  1.00  0.00     0.011 A 
HETATM   19 BR1  UNL     1      29.836  -1.121  53.859  1.00  0.00    -0.051 Br
HETATM   20  C6  UNL     1      28.415   1.320  53.262  1.00  0.00     0.021 A 
HETATM   21  C7  UNL     1      27.387   2.059  52.775  1.00  0.00     0.031 A 
ENDBRANCH   3  15
TORSDOF 3
ENDMDL
MODEL 4
REMARK VINA RESULT:      -6.8      6.617      8.780
REMARK  3 active torsions:
REMARK  status: ('A' for Active; 'I' for Inactive)
REMARK       I    between atoms: C1_2  and  N1_3 
REMARK    1  A    between atoms: C1_2  and  C8_11 
REMARK    2  A    between atoms: N1_3  and  C2_4 
REMARK    3  A    between atoms: C11_14  and  C12_15 
ROOT
HETATM    1  O1  UNL     1      31.340   5.495  49.775  1.00  0.00    -0.270 OA
HETATM    2  C1  UNL     1      31.430   5.367  48.549  1.00  0.00     0.252 C 
HETATM    3  N1  UNL     1      30.288   5.477  47.733  1.00  0.00    -0.325 N 
HETATM    4  H1  UNL     1      30.523   5.346  46.723  1.00  0.00     0.169 HD
ENDROOT
BRANCH   2   5
HETATM    5  C8  UNL     1      32.785   5.103  48.060  1.00  0.00     0.135 C 
HETATM    6  C9  UNL     1      33.904   5.907  48.663  1.00  0.00     0.072 C 
HETATM    7  C10 UNL     1      33.808   7.143  47.802  1.00  0.00     0.002 C 
HETATM    8  C11 UNL     1      33.259   6.872  46.605  1.00  0.00     0.018 C 
HETATM    9  N2  UNL     1      32.987   5.477  46.648  1.00  0.00    -0.362 N 
HETATM   10  C13 UNL     1      32.749   4.063  46.304  1.00  0.00     0.147 C 
HETATM   11  C14 UNL     1      33.076   3.658  47.739  1.00  0.00     0.138 C 
HETATM   12 CL2  UNL     1      34.737   3.147  47.991  1.00  0.00    -0.120 Cl
BRANCH   8  13
HETATM   13  C12 UNL     1      32.988   7.784  45.481  1.00  0.00     0.171 C 
HETATM   14 CL1  UNL     1      31.249   7.909  45.143  1.00  0.00    -0.124 Cl
ENDBRANCH   8  13
ENDBRANCH   2   5
BRANCH   3  15
HETATM   15  C2  UNL     1      28.950   5.729  48.122  1.00  0.00     0.034 A 
HETATM   16  C3  UNL     1      28.044   4.834  48.578  1.00  0.00     0.031 A 
HETATM   17  C4  UNL     1      26.754   5.149  48.941  1.00  0.00     0.021 A 
HETATM   18  C5  UNL     1      26.316   6.456  48.848  1.00  0.00     0.011 A 
HETATM   19 BR1  UNL     1      24.539   6.946  49.337  1.00  0.00    -0.051 Br
HETATM   20  C6  UNL     1      27.227   7.386  48.384  1.00  0.00     0.021 A 
HETATM   21  C7  UNL     1      28.488   7.020  48.040  1.00  0.00     0.031 A 
ENDBRANCH   3  15
TORSDOF 3
ENDMDL
MODEL 5
REMARK VINA RESULT:      -6.8      4.152      6.552
REMARK  3 active torsions:
REMARK  status: ('A' for Active; 'I' for Inactive)
REMARK       I    between atoms: C1_2  and  N1_3 
REMARK    1  A    between atoms: C1_2  and  C8_11 
REMARK    2  A    between atoms: N1_3  and  C2_4 
REMARK    3  A    between atoms: C11_14  and  C12_15 
ROOT
HETATM    1  O1  UNL     1      24.197   3.371  53.394  1.00  0.00    -0.270 OA
HETATM    2  C1  UNL     1      24.087   3.207  52.173  1.00  0.00     0.252 C 
HETATM    3  N1  UNL     1      24.941   2.320  51.492  1.00  0.00    -0.325 N 
HETATM    4  H1  UNL     1      24.725   2.289  50.469  1.00  0.00     0.169 HD
ENDROOT
BRANCH   2   5
HETATM    5  C8  UNL     1      23.024   3.995  51.545  1.00  0.00     0.135 C 
HETATM    6  C9  UNL     1      21.631   3.829  52.086  1.00  0.00     0.072 C 
HETATM    7  C10 UNL     1      21.213   2.603  51.313  1.00  0.00     0.002 C 
HETATM    8  C11 UNL     1      21.893   2.488  50.159  1.00  0.00     0.018 C 
HETATM    9  N2  UNL     1      22.758   3.617  50.144  1.00  0.00    -0.362 N 
HETATM   10  C13 UNL     1      23.623   4.740  49.741  1.00  0.00     0.147 C 
HETATM   11  C14 UNL     1      23.431   5.382  51.113  1.00  0.00     0.138 C 
HETATM   12 CL2  UNL     1      22.164   6.596  51.177  1.00  0.00    -0.120 Cl
BRANCH   8  13
HETATM   13  C12 UNL     1      21.791   1.448  49.122  1.00  0.00     0.171 C 
HETATM   14 CL1  UNL     1      22.555   1.959  47.602  1.00  0.00    -0.124 Cl
ENDBRANCH   8  13
ENDBRANCH   2   5
BRANCH   3  15
HETATM   15  C2  UNL     1      25.987   1.525  52.020  1.00  0.00     0.034 A 
HETATM   16  C3  UNL     1      26.012   0.179  52.146  1.00  0.00     0.031 A 
HETATM   17  C4  UNL     1      27.068  -0.533  52.671  1.00  0.00     0.021 A 
HETATM   18  C5  UNL     1      28.194   0.135  53.110  1.00  0.00     0.011 A 
HETATM   19 BR1  UNL     1      29.683  -0.804  53.845  1.00  0.00    -0.051 Br
HETATM   20  C6  UNL     1      28.188   1.512  52.989  1.00  0.00     0.021 A 
HETATM   21  C7  UNL     1      27.120   2.164  52.463  1.00  0.00     0.031 A 
ENDBRANCH   3  15
TORSDOF 3
ENDMDL
MODEL 6
REMARK VINA RESULT:      -6.6      4.181      5.546
REMARK  3 active torsions:
REMARK  status: ('A' for Active; 'I' for Inactive)
REMARK       I    between atoms: C1_2  and  N1_3 
REMARK    1  A    between atoms: C1_2  and  C8_11 
REMARK    2  A    between atoms: N1_3  and  C2_4 
REMARK    3  A    between atoms: C11_14  and  C12_15 
ROOT
HETATM    1  O1  UNL     1      24.162  -0.854  54.513  1.00  0.00    -0.270 OA
HETATM    2  C1  UNL     1      24.452  -0.114  53.566  1.00  0.00     0.252 C 
HETATM    3  N1  UNL     1      23.453   0.345  52.686  1.00  0.00    -0.325 N 
HETATM    4  H1  UNL     1      23.852   0.959  51.941  1.00  0.00     0.169 HD
ENDROOT
BRANCH   2   5
HETATM    5  C8  UNL     1      25.874   0.218  53.464  1.00  0.00     0.135 C 
HETATM    6  C9  UNL     1      26.389   1.323  54.345  1.00  0.00     0.072 C 
HETATM    7  C10 UNL     1      26.025   2.510  53.488  1.00  0.00     0.002 C 
HETATM    8  C11 UNL     1      25.948   2.177  52.187  1.00  0.00     0.018 C 
HETATM    9  N2  UNL     1      26.256   0.789  52.158  1.00  0.00    -0.362 N 
HETATM   10  C13 UNL     1      26.697  -0.562  51.767  1.00  0.00     0.147 C 
HETATM   11  C14 UNL     1      26.789  -0.960  53.239  1.00  0.00     0.138 C 
HETATM   12 CL2  UNL     1      28.395  -0.814  53.933  1.00  0.00    -0.120 Cl
BRANCH   8  13
HETATM   13  C12 UNL     1      25.624   3.027  51.030  1.00  0.00     0.171 C 
HETATM   14 CL1  UNL     1      23.896   2.959  50.628  1.00  0.00    -0.124 Cl
ENDBRANCH   8  13
ENDBRANCH   2   5
BRANCH   3  15
HETATM   15  C2  UNL     1      22.065   0.073  52.713  1.00  0.00     0.034 A 
HETATM   16  C3  UNL     1      21.360  -0.511  53.710  1.00  0.00     0.031 A 
HETATM   17  C4  UNL     1      20.004  -0.746  53.670  1.00  0.00     0.021 A 
HETATM   18  C5  UNL     1      19.277  -0.375  52.555  1.00  0.00     0.011 A 
HETATM   19 BR1  UNL     1      17.397  -0.678  52.449  1.00  0.00    -0.051 Br
HETATM   20  C6  UNL     1      19.979   0.224  51.526  1.00  0.00     0.021 A 
HETATM   21  C7  UNL     1      21.317   0.432  51.618  1.00  0.00     0.031 A 
ENDBRANCH   3  15
TORSDOF 3
ENDMDL
MODEL 7
REMARK VINA RESULT:      -6.6      4.318      6.793
REMARK  3 active torsions:
REMARK  status: ('A' for Active; 'I' for Inactive)
REMARK       I    between atoms: C1_2  and  N1_3 
REMARK    1  A    between atoms: C1_2  and  C8_11 
REMARK    2  A    between atoms: N1_3  and  C2_4 
REMARK    3  A    between atoms: C11_14  and  C12_15 
ROOT
HETATM    1  O1  UNL     1      22.679   0.086  52.639  1.00  0.00    -0.270 OA
HETATM    2  C1  UNL     1      22.845   1.159  52.046  1.00  0.00     0.252 C 
HETATM    3  N1  UNL     1      24.115   1.765  52.007  1.00  0.00    -0.325 N 
HETATM    4  H1  UNL     1      24.095   2.662  51.471  1.00  0.00     0.169 HD
ENDROOT
BRANCH   2   5
HETATM    5  C8  UNL     1      21.638   1.704  51.422  1.00  0.00     0.135 C 
HETATM    6  C9  UNL     1      21.000   0.890  50.329  1.00  0.00     0.072 C 
HETATM    7  C10 UNL     1      21.840   1.347  49.162  1.00  0.00     0.002 C 
HETATM    8  C11 UNL     1      22.356   2.571  49.372  1.00  0.00     0.018 C 
HETATM    9  N2  UNL     1      21.875   2.942  50.657  1.00  0.00    -0.362 N 
HETATM   10  C13 UNL     1      21.417   3.688  51.843  1.00  0.00     0.147 C 
HETATM   11  C14 UNL     1      20.710   2.437  52.359  1.00  0.00     0.138 C 
HETATM   12 CL2  UNL     1      19.003   2.347  51.958  1.00  0.00    -0.120 Cl
BRANCH   8  13
HETATM   13  C12 UNL     1      23.223   3.375  48.494  1.00  0.00     0.171 C 
HETATM   14 CL1  UNL     1      24.358   4.372  49.427  1.00  0.00    -0.124 Cl
ENDBRANCH   8  13
ENDBRANCH   2   5
BRANCH   3  15
HETATM   15  C2  UNL     1      25.325   1.308  52.581  1.00  0.00     0.034 A 
HETATM   16  C3  UNL     1      25.925   1.763  53.705  1.00  0.00     0.031 A 
HETATM   17  C4  UNL     1      27.108   1.270  54.209  1.00  0.00     0.021 A 
HETATM   18  C5  UNL     1      27.758   0.243  53.552  1.00  0.00     0.011 A 
HETATM   19 BR1  UNL     1      29.398  -0.476  54.208  1.00  0.00    -0.051 Br
HETATM   20  C6  UNL     1      27.160  -0.236  52.401  1.00  0.00     0.021 A 
HETATM   21  C7  UNL     1      25.992   0.286  51.949  1.00  0.00     0.031 A 
ENDBRANCH   3  15
TORSDOF 3
ENDMDL
MODEL 8
REMARK VINA RESULT:      -6.5      2.908      4.899
REMARK  3 active torsions:
REMARK  status: ('A' for Active; 'I' for Inactive)
REMARK       I    between atoms: C1_2  and  N1_3 
REMARK    1  A    between atoms: C1_2  and  C8_11 
REMARK    2  A    between atoms: N1_3  and  C2_4 
REMARK    3  A    between atoms: C11_14  and  C12_15 
ROOT
HETATM    1  O1  UNL     1      24.243   3.155  49.194  1.00  0.00    -0.270 OA
HETATM    2  C1  UNL     1      24.336   3.629  50.332  1.00  0.00     0.252 C 
HETATM    3  N1  UNL     1      25.273   4.642  50.609  1.00  0.00    -0.325 N 
HETATM    4  H1  UNL     1      25.232   4.939  51.611  1.00  0.00     0.169 HD
ENDROOT
BRANCH   2   5
HETATM    5  C8  UNL     1      23.413   3.052  51.311  1.00  0.00     0.135 C 
HETATM    6  C9  UNL     1      23.575   3.477  52.745  1.00  0.00     0.072 C 
HETATM    7  C10 UNL     1      24.660   2.516  53.164  1.00  0.00     0.002 C 
HETATM    8  C11 UNL     1      24.653   1.401  52.412  1.00  0.00     0.018 C 
HETATM    9  N2  UNL     1      23.582   1.598  51.497  1.00  0.00    -0.362 N 
HETATM   10  C13 UNL     1      22.463   1.411  50.557  1.00  0.00     0.147 C 
HETATM   11  C14 UNL     1      22.004   2.844  50.814  1.00  0.00     0.138 C 
HETATM   12 CL2  UNL     1      20.744   2.998  52.026  1.00  0.00    -0.120 Cl
BRANCH   8  13
HETATM   13  C12 UNL     1      25.535   0.225  52.488  1.00  0.00     0.171 C 
HETATM   14 CL1  UNL     1      25.637  -0.413  54.142  1.00  0.00    -0.124 Cl
ENDBRANCH   8  13
ENDBRANCH   2   5
BRANCH   3  15
HETATM   15  C2  UNL     1      26.196   5.252  49.726  1.00  0.00     0.034 A 
HETATM   16  C3  UNL     1      27.279   4.684  49.148  1.00  0.00     0.031 A 
HETATM   17  C4  UNL     1      28.139   5.339  48.295  1.00  0.00     0.021 A 
HETATM   18  C5  UNL     1      27.915   6.666  47.982  1.00  0.00     0.011 A 
HETATM   19 BR1  UNL     1      29.075   7.619  46.805  1.00  0.00    -0.051 Br
HETATM   20  C6  UNL     1      26.813   7.264  48.562  1.00  0.00     0.021 A 
HETATM   21  C7  UNL     1      25.997   6.571  49.397  1.00  0.00     0.031 A 
ENDBRANCH   3  15
TORSDOF 3
ENDMDL
MODEL 9
REMARK VINA RESULT:      -6.4      4.357      6.555
REMARK  3 active torsions:
REMARK  status: ('A' for Active; 'I' for Inactive)
REMARK       I    between atoms: C1_2  and  N1_3 
REMARK    1  A    between atoms: C1_2  and  C8_11 
REMARK    2  A    between atoms: N1_3  and  C2_4 
REMARK    3  A    between atoms: C11_14  and  C12_15 
ROOT
HETATM    1  O1  UNL     1      23.791   3.205  51.668  1.00  0.00    -0.270 OA
HETATM    2  C1  UNL     1      23.090   2.192  51.572  1.00  0.00     0.252 C 
HETATM    3  N1  UNL     1      23.572   0.945  52.013  1.00  0.00    -0.325 N 
HETATM    4  H1  UNL     1      22.867   0.187  51.866  1.00  0.00     0.169 HD
ENDROOT
BRANCH   2   5
HETATM    5  C8  UNL     1      21.769   2.416  50.980  1.00  0.00     0.135 C 
HETATM    6  C9  UNL     1      20.841   3.353  51.702  1.00  0.00     0.072 C 
HETATM    7  C10 UNL     1      20.254   2.392  52.706  1.00  0.00     0.002 C 
HETATM    8  C11 UNL     1      20.303   1.122  52.264  1.00  0.00     0.018 C 
HETATM    9  N2  UNL     1      20.909   1.218  50.981  1.00  0.00    -0.362 N 
HETATM   10  C13 UNL     1      21.330   0.992  49.587  1.00  0.00     0.147 C 
HETATM   11  C14 UNL     1      21.745   2.456  49.472  1.00  0.00     0.138 C 
HETATM   12 CL2  UNL     1      20.529   3.504  48.763  1.00  0.00    -0.120 Cl
BRANCH   8  13
HETATM   13  C12 UNL     1      19.842  -0.109  52.926  1.00  0.00     0.171 C 
HETATM   14 CL1  UNL     1      20.935  -0.599  54.236  1.00  0.00    -0.124 Cl
ENDBRANCH   8  13
ENDBRANCH   2   5
BRANCH   3  15
HETATM   15  C2  UNL     1      24.827   0.642  52.592  1.00  0.00     0.034 A 
HETATM   16  C3  UNL     1      25.067   0.189  53.844  1.00  0.00     0.031 A 
HETATM   17  C4  UNL     1      26.320  -0.087  54.345  1.00  0.00     0.021 A 
HETATM   18  C5  UNL     1      27.433   0.099  53.548  1.00  0.00     0.011 A 
HETATM   19 BR1  UNL     1      29.190  -0.267  54.193  1.00  0.00    -0.051 Br
HETATM   20  C6  UNL     1      27.209   0.562  52.265  1.00  0.00     0.021 A 
HETATM   21  C7  UNL     1      25.951   0.817  51.822  1.00  0.00     0.031 A 
ENDBRANCH   3  15
TORSDOF 3
ENDMDL
