MODEL 1
REMARK VINA RESULT:      -7.8      0.000      0.000
REMARK  5 active torsions:
REMARK  status: ('A' for Active; 'I' for Inactive)
REMARK    1  A    between atoms: C5_5  and  N1_6 
REMARK    2  A    between atoms: N1_6  and  C6_7 
REMARK    3  A    between atoms: C10_13  and  O1_14 
REMARK    4  A    between atoms: N4_15  and  C11_16 
REMARK    5  A    between atoms: C11_16  and  N5_17 
ROOT
HETATM    1  C6  UNL     1      24.352   1.005  52.723  1.00  0.00     0.146 A 
HETATM    2  N2  UNL     1      23.887  -0.206  53.125  1.00  0.00    -0.223 NA
HETATM    3  C7  UNL     1      22.561  -0.349  53.274  1.00  0.00     0.236 A 
HETATM    4  N3  UNL     1      21.736   0.708  53.023  1.00  0.00    -0.240 NA
HETATM    5  C8  UNL     1      22.202   1.891  52.631  1.00  0.00     0.089 A 
HETATM    6  C9  UNL     1      23.558   2.092  52.461  1.00  0.00     0.091 A 
HETATM    7  C10 UNL     1      23.943   3.296  52.095  1.00  0.00     0.160 A 
HETATM    8  N4  UNL     1      22.966   4.295  51.863  1.00  0.00    -0.320 N 
HETATM    9  C12 UNL     1      21.565   3.984  52.029  1.00  0.00     0.109 A 
HETATM   10  C13 UNL     1      21.273   2.768  52.442  1.00  0.00     0.023 A 
ENDROOT
BRANCH   1  11
HETATM   11  N1  UNL     1      25.755   1.148  52.538  1.00  0.00    -0.339 N 
HETATM   12  H5  UNL     1      26.112   2.073  52.231  1.00  0.00     0.167 HD
BRANCH  11  13
HETATM   13  C5  UNL     1      26.731   0.099  52.740  1.00  0.00     0.051 A 
HETATM   14  C4  UNL     1      26.657  -1.340  52.530  1.00  0.00     0.031 A 
HETATM   15  C3  UNL     1      27.825  -1.897  52.873  1.00  0.00     0.011 A 
HETATM   16  C2  UNL     1      28.639  -0.771  53.303  1.00  0.00    -0.038 A 
HETATM   17  C1  UNL     1      29.874  -0.894  53.724  1.00  0.00     0.044 C 
HETATM   18  C14 UNL     1      27.915   0.478  53.205  1.00  0.00     0.044 A 
HETATM   19 BR1  UNL     1      28.694   2.168  53.692  1.00  0.00    -0.048 Br
ENDBRANCH  11  13
ENDBRANCH   1  11
BRANCH   7  20
HETATM   20  O1  UNL     1      25.320   3.493  51.957  1.00  0.00    -0.345 OA
HETATM   21  H7  UNL     1      25.618   4.124  51.209  1.00  0.00     0.219 HD
ENDBRANCH   7  20
BRANCH   8  22
HETATM   22  C11 UNL     1      23.376   5.626  51.482  1.00  0.00     0.245 C 
BRANCH  22  23
HETATM   23  N5  UNL     1      24.202   6.296  52.452  1.00  0.00    -0.415 N 
HETATM   24  H10 UNL     1      24.212   5.871  53.376  1.00  0.00     0.151 HD
HETATM   25  H11 UNL     1      25.047   6.745  52.099  1.00  0.00     0.151 HD
ENDBRANCH  22  23
ENDBRANCH   8  22
TORSDOF 5
ENDMDL
MODEL 2
REMARK VINA RESULT:      -7.8      2.344      2.822
REMARK  5 active torsions:
REMARK  status: ('A' for Active; 'I' for Inactive)
REMARK    1  A    between atoms: C5_5  and  N1_6 
REMARK    2  A    between atoms: N1_6  and  C6_7 
REMARK    3  A    between atoms: C10_13  and  O1_14 
REMARK    4  A    between atoms: N4_15  and  C11_16 
REMARK    5  A    between atoms: C11_16  and  N5_17 
ROOT
HETATM    1  C6  UNL     1      24.428  -0.437  53.851  1.00  0.00     0.146 A 
HETATM    2  N2  UNL     1      24.699  -1.138  54.981  1.00  0.00    -0.223 NA
HETATM    3  C7  UNL     1      23.663  -1.514  55.748  1.00  0.00     0.236 A 
HETATM    4  N3  UNL     1      22.394  -1.185  55.375  1.00  0.00    -0.240 NA
HETATM    5  C8  UNL     1      22.139  -0.496  54.266  1.00  0.00     0.089 A 
HETATM    6  C9  UNL     1      23.168  -0.085  53.440  1.00  0.00     0.091 A 
HETATM    7  C10 UNL     1      22.839   0.612  52.374  1.00  0.00     0.160 A 
HETATM    8  N4  UNL     1      21.470   0.871  52.112  1.00  0.00    -0.320 N 
HETATM    9  C12 UNL     1      20.458   0.369  53.011  1.00  0.00     0.109 A 
HETATM   10  C13 UNL     1      20.880  -0.280  54.076  1.00  0.00     0.023 A 
ENDROOT
BRANCH   1  11
HETATM   11  N1  UNL     1      25.524  -0.063  53.024  1.00  0.00    -0.339 N 
HETATM   12  H5  UNL     1      25.380   0.713  52.350  1.00  0.00     0.167 HD
BRANCH  11  13
HETATM   13  C5  UNL     1      26.831  -0.684  53.046  1.00  0.00     0.051 A 
HETATM   14  C4  UNL     1      27.248  -2.060  52.820  1.00  0.00     0.031 A 
HETATM   15  C3  UNL     1      28.577  -2.148  52.960  1.00  0.00     0.011 A 
HETATM   16  C2  UNL     1      28.987  -0.790  53.279  1.00  0.00    -0.038 A 
HETATM   17  C1  UNL     1      30.232  -0.446  53.495  1.00  0.00     0.044 C 
HETATM   18  C14 UNL     1      27.856   0.112  53.325  1.00  0.00     0.044 A 
HETATM   19 BR1  UNL     1      28.040   1.986  53.718  1.00  0.00    -0.048 Br
ENDBRANCH  11  13
ENDBRANCH   1  11
BRANCH   7  20
HETATM   20  O1  UNL     1      23.891   1.048  51.566  1.00  0.00    -0.345 OA
HETATM   21  H7  UNL     1      24.738   1.361  52.047  1.00  0.00     0.219 HD
ENDBRANCH   7  20
BRANCH   8  22
HETATM   22  C11 UNL     1      21.096   1.653  50.957  1.00  0.00     0.245 C 
BRANCH  22  23
HETATM   23  N5  UNL     1      21.504   1.089  49.697  1.00  0.00    -0.415 N 
HETATM   24  H10 UNL     1      22.375   1.458  49.322  1.00  0.00     0.151 HD
HETATM   25  H11 UNL     1      21.265   0.110  49.537  1.00  0.00     0.151 HD
ENDBRANCH  22  23
ENDBRANCH   8  22
TORSDOF 5
ENDMDL
MODEL 3
REMARK VINA RESULT:      -7.8      3.095      6.594
REMARK  5 active torsions:
REMARK  status: ('A' for Active; 'I' for Inactive)
REMARK    1  A    between atoms: C5_5  and  N1_6 
REMARK    2  A    between atoms: N1_6  and  C6_7 
REMARK    3  A    between atoms: C10_13  and  O1_14 
REMARK    4  A    between atoms: N4_15  and  C11_16 
REMARK    5  A    between atoms: C11_16  and  N5_17 
ROOT
HETATM    1  C6  UNL     1      25.447   0.665  53.231  1.00  0.00     0.146 A 
HETATM    2  N2  UNL     1      24.942   1.893  53.512  1.00  0.00    -0.223 NA
HETATM    3  C7  UNL     1      25.803   2.851  53.892  1.00  0.00     0.236 A 
HETATM    4  N3  UNL     1      27.133   2.565  53.983  1.00  0.00    -0.240 NA
HETATM    5  C8  UNL     1      27.617   1.357  53.706  1.00  0.00     0.089 A 
HETATM    6  C9  UNL     1      26.776   0.335  53.310  1.00  0.00     0.091 A 
HETATM    7  C10 UNL     1      27.326  -0.837  53.077  1.00  0.00     0.160 A 
HETATM    8  N4  UNL     1      28.730  -0.981  53.207  1.00  0.00    -0.320 N 
HETATM    9  C12 UNL     1      29.538   0.153  53.590  1.00  0.00     0.109 A 
HETATM   10  C13 UNL     1      28.899   1.276  53.847  1.00  0.00     0.023 A 
ENDROOT
BRANCH   1  11
HETATM   11  N1  UNL     1      24.539  -0.343  52.801  1.00  0.00    -0.339 N 
HETATM   12  H5  UNL     1      24.837  -0.966  52.027  1.00  0.00     0.167 HD
BRANCH  11  13
HETATM   13  C5  UNL     1      23.222  -0.566  53.359  1.00  0.00     0.051 A 
HETATM   14  C4  UNL     1      22.793  -1.234  54.579  1.00  0.00     0.031 A 
HETATM   15  C3  UNL     1      21.457  -1.193  54.658  1.00  0.00     0.011 A 
HETATM   16  C2  UNL     1      21.055  -0.480  53.457  1.00  0.00    -0.038 A 
HETATM   17  C1  UNL     1      19.806  -0.226  53.154  1.00  0.00     0.044 C 
HETATM   18  C14 UNL     1      22.198  -0.096  52.657  1.00  0.00     0.044 A 
HETATM   19 BR1  UNL     1      22.028   0.865  50.999  1.00  0.00    -0.048 Br
ENDBRANCH  11  13
ENDBRANCH   1  11
BRANCH   7  20
HETATM   20  O1  UNL     1      26.460  -1.869  52.708  1.00  0.00    -0.345 OA
HETATM   21  H7  UNL     1      26.720  -2.410  51.880  1.00  0.00     0.219 HD
ENDBRANCH   7  20
BRANCH   8  22
HETATM   22  C11 UNL     1      29.344  -2.267  52.975  1.00  0.00     0.245 C 
BRANCH  22  23
HETATM   23  N5  UNL     1      28.524  -3.394  53.338  1.00  0.00    -0.415 N 
HETATM   24  H10 UNL     1      27.652  -3.476  52.820  1.00  0.00     0.151 HD
HETATM   25  H11 UNL     1      29.014  -4.239  53.629  1.00  0.00     0.151 HD
ENDBRANCH  22  23
ENDBRANCH   8  22
TORSDOF 5
ENDMDL
MODEL 4
REMARK VINA RESULT:      -7.6      2.159      2.357
REMARK  5 active torsions:
REMARK  status: ('A' for Active; 'I' for Inactive)
REMARK    1  A    between atoms: C5_5  and  N1_6 
REMARK    2  A    between atoms: N1_6  and  C6_7 
REMARK    3  A    between atoms: C10_13  and  O1_14 
REMARK    4  A    between atoms: N4_15  and  C11_16 
REMARK    5  A    between atoms: C11_16  and  N5_17 
ROOT
HETATM    1  C6  UNL     1      24.600   1.694  51.950  1.00  0.00     0.146 A 
HETATM    2  N2  UNL     1      23.593   0.851  52.291  1.00  0.00    -0.223 NA
HETATM    3  C7  UNL     1      22.463   0.899  51.567  1.00  0.00     0.236 A 
HETATM    4  N3  UNL     1      22.365   1.779  50.529  1.00  0.00    -0.240 NA
HETATM    5  C8  UNL     1      23.358   2.602  50.203  1.00  0.00     0.089 A 
HETATM    6  C9  UNL     1      24.542   2.593  50.915  1.00  0.00     0.091 A 
HETATM    7  C10 UNL     1      25.468   3.453  50.548  1.00  0.00     0.160 A 
HETATM    8  N4  UNL     1      25.223   4.302  49.441  1.00  0.00    -0.320 N 
HETATM    9  C12 UNL     1      23.970   4.216  48.730  1.00  0.00     0.109 A 
HETATM   10  C13 UNL     1      23.083   3.360  49.194  1.00  0.00     0.023 A 
ENDROOT
BRANCH   1  11
HETATM   11  N1  UNL     1      25.807   1.624  52.700  1.00  0.00    -0.339 N 
HETATM   12  H5  UNL     1      26.111   2.475  53.209  1.00  0.00     0.167 HD
BRANCH  11  13
HETATM   13  C5  UNL     1      26.651   0.453  52.807  1.00  0.00     0.051 A 
HETATM   14  C4  UNL     1      26.396  -0.949  52.511  1.00  0.00     0.031 A 
HETATM   15  C3  UNL     1      27.495  -1.664  52.782  1.00  0.00     0.011 A 
HETATM   16  C2  UNL     1      28.450  -0.676  53.254  1.00  0.00    -0.038 A 
HETATM   17  C1  UNL     1      29.670  -0.974  53.628  1.00  0.00     0.044 C 
HETATM   18  C14 UNL     1      27.883   0.655  53.257  1.00  0.00     0.044 A 
HETATM   19 BR1  UNL     1      28.875   2.204  53.822  1.00  0.00    -0.048 Br
ENDBRANCH  11  13
ENDBRANCH   1  11
BRANCH   7  20
HETATM   20  O1  UNL     1      26.648   3.455  51.297  1.00  0.00    -0.345 OA
HETATM   21  H7  UNL     1      27.523   3.489  50.769  1.00  0.00     0.219 HD
ENDBRANCH   7  20
BRANCH   8  22
HETATM   22  C11 UNL     1      26.222   5.265  49.040  1.00  0.00     0.245 C 
BRANCH  22  23
HETATM   23  N5  UNL     1      27.555   4.731  48.931  1.00  0.00    -0.415 N 
HETATM   24  H10 UNL     1      28.300   5.382  49.169  1.00  0.00     0.151 HD
HETATM   25  H11 UNL     1      27.669   3.741  49.146  1.00  0.00     0.151 HD
ENDBRANCH  22  23
ENDBRANCH   8  22
TORSDOF 5
ENDMDL
MODEL 5
REMARK VINA RESULT:      -7.6      2.926      5.884
REMARK  5 active torsions:
REMARK  status: ('A' for Active; 'I' for Inactive)
REMARK    1  A    between atoms: C5_5  and  N1_6 
REMARK    2  A    between atoms: N1_6  and  C6_7 
REMARK    3  A    between atoms: C10_13  and  O1_14 
REMARK    4  A    between atoms: N4_15  and  C11_16 
REMARK    5  A    between atoms: C11_16  and  N5_17 
ROOT
HETATM    1  C6  UNL     1      26.576   2.077  52.018  1.00  0.00     0.146 A 
HETATM    2  N2  UNL     1      27.813   2.595  52.230  1.00  0.00    -0.223 NA
HETATM    3  C7  UNL     1      28.469   2.215  53.338  1.00  0.00     0.236 A 
HETATM    4  N3  UNL     1      27.883   1.337  54.201  1.00  0.00    -0.240 NA
HETATM    5  C8  UNL     1      26.669   0.836  53.984  1.00  0.00     0.089 A 
HETATM    6  C9  UNL     1      25.951   1.193  52.859  1.00  0.00     0.091 A 
HETATM    7  C10 UNL     1      24.749   0.674  52.727  1.00  0.00     0.160 A 
HETATM    8  N4  UNL     1      24.275  -0.234  53.707  1.00  0.00    -0.320 N 
HETATM    9  C12 UNL     1      25.111  -0.580  54.832  1.00  0.00     0.109 A 
HETATM   10  C13 UNL     1      26.281   0.021  54.908  1.00  0.00     0.023 A 
ENDROOT
BRANCH   1  11
HETATM   11  N1  UNL     1      25.893   2.458  50.830  1.00  0.00    -0.339 N 
HETATM   12  H5  UNL     1      25.213   1.786  50.425  1.00  0.00     0.167 HD
BRANCH  11  13
HETATM   13  C5  UNL     1      26.074   3.714  50.134  1.00  0.00     0.051 A 
HETATM   14  C4  UNL     1      27.066   4.141  49.159  1.00  0.00     0.031 A 
HETATM   15  C3  UNL     1      26.823   5.410  48.808  1.00  0.00     0.011 A 
HETATM   16  C2  UNL     1      25.649   5.771  49.587  1.00  0.00    -0.038 A 
HETATM   17  C1  UNL     1      25.083   6.951  49.531  1.00  0.00     0.044 C 
HETATM   18  C14 UNL     1      25.200   4.674  50.415  1.00  0.00     0.044 A 
HETATM   19 BR1  UNL     1      23.670   4.807  51.573  1.00  0.00    -0.048 Br
ENDBRANCH  11  13
ENDBRANCH   1  11
BRANCH   7  20
HETATM   20  O1  UNL     1      24.021   1.068  51.601  1.00  0.00    -0.345 OA
HETATM   21  H7  UNL     1      23.088   0.663  51.496  1.00  0.00     0.219 HD
ENDBRANCH   7  20
BRANCH   8  22
HETATM   22  C11 UNL     1      22.950  -0.794  53.585  1.00  0.00     0.245 C 
BRANCH  22  23
HETATM   23  N5  UNL     1      21.885   0.175  53.640  1.00  0.00    -0.415 N 
HETATM   24  H10 UNL     1      21.373   0.201  54.519  1.00  0.00     0.151 HD
HETATM   25  H11 UNL     1      22.028   1.040  53.118  1.00  0.00     0.151 HD
ENDBRANCH  22  23
ENDBRANCH   8  22
TORSDOF 5
ENDMDL
MODEL 6
REMARK VINA RESULT:      -7.5      1.994      3.343
REMARK  5 active torsions:
REMARK  status: ('A' for Active; 'I' for Inactive)
REMARK    1  A    between atoms: C5_5  and  N1_6 
REMARK    2  A    between atoms: N1_6  and  C6_7 
REMARK    3  A    between atoms: C10_13  and  O1_14 
REMARK    4  A    between atoms: N4_15  and  C11_16 
REMARK    5  A    between atoms: C11_16  and  N5_17 
ROOT
HETATM    1  C6  UNL     1      24.837   1.616  52.098  1.00  0.00     0.146 A 
HETATM    2  N2  UNL     1      25.496   2.412  51.217  1.00  0.00    -0.223 NA
HETATM    3  C7  UNL     1      24.806   2.894  50.171  1.00  0.00     0.236 A 
HETATM    4  N3  UNL     1      23.488   2.574  50.028  1.00  0.00    -0.240 NA
HETATM    5  C8  UNL     1      22.852   1.792  50.896  1.00  0.00     0.089 A 
HETATM    6  C9  UNL     1      23.514   1.270  51.991  1.00  0.00     0.091 A 
HETATM    7  C10 UNL     1      22.824   0.486  52.791  1.00  0.00     0.160 A 
HETATM    8  N4  UNL     1      21.454   0.250  52.516  1.00  0.00    -0.320 N 
HETATM    9  C12 UNL     1      20.833   0.869  51.369  1.00  0.00     0.109 A 
HETATM   10  C13 UNL     1      21.610   1.601  50.597  1.00  0.00     0.023 A 
ENDROOT
BRANCH   1  11
HETATM   11  N1  UNL     1      25.561   1.128  53.221  1.00  0.00    -0.339 N 
HETATM   12  H5  UNL     1      25.321   1.509  54.156  1.00  0.00     0.167 HD
BRANCH  11  13
HETATM   13  C5  UNL     1      26.616   0.139  53.163  1.00  0.00     0.051 A 
HETATM   14  C4  UNL     1      26.580  -1.294  52.913  1.00  0.00     0.031 A 
HETATM   15  C3  UNL     1      27.825  -1.784  52.971  1.00  0.00     0.011 A 
HETATM   16  C2  UNL     1      28.647  -0.620  53.262  1.00  0.00    -0.038 A 
HETATM   17  C1  UNL     1      29.949  -0.674  53.399  1.00  0.00     0.044 C 
HETATM   18  C14 UNL     1      27.850   0.581  53.376  1.00  0.00     0.044 A 
HETATM   19 BR1  UNL     1      28.618   2.304  53.754  1.00  0.00    -0.048 Br
ENDBRANCH  11  13
ENDBRANCH   1  11
BRANCH   7  20
HETATM   20  O1  UNL     1      23.515  -0.060  53.875  1.00  0.00    -0.345 OA
HETATM   21  H7  UNL     1      23.358   0.380  54.785  1.00  0.00     0.219 HD
ENDBRANCH   7  20
BRANCH   8  22
HETATM   22  C11 UNL     1      20.690  -0.625  53.374  1.00  0.00     0.245 C 
BRANCH  22  23
HETATM   23  N5  UNL     1      20.760  -0.297  54.774  1.00  0.00    -0.415 N 
HETATM   24  H10 UNL     1      19.923   0.138  55.155  1.00  0.00     0.151 HD
HETATM   25  H11 UNL     1      21.311  -0.922  55.362  1.00  0.00     0.151 HD
ENDBRANCH  22  23
ENDBRANCH   8  22
TORSDOF 5
ENDMDL
MODEL 7
REMARK VINA RESULT:      -7.4      2.942      5.415
REMARK  5 active torsions:
REMARK  status: ('A' for Active; 'I' for Inactive)
REMARK    1  A    between atoms: C5_5  and  N1_6 
REMARK    2  A    between atoms: N1_6  and  C6_7 
REMARK    3  A    between atoms: C10_13  and  O1_14 
REMARK    4  A    between atoms: N4_15  and  C11_16 
REMARK    5  A    between atoms: C11_16  and  N5_17 
ROOT
HETATM    1  C6  UNL     1      23.969   2.804  51.581  1.00  0.00     0.146 A 
HETATM    2  N2  UNL     1      22.905   2.838  50.740  1.00  0.00    -0.223 NA
HETATM    3  C7  UNL     1      22.070   1.786  50.745  1.00  0.00     0.236 A 
HETATM    4  N3  UNL     1      22.315   0.735  51.579  1.00  0.00    -0.240 NA
HETATM    5  C8  UNL     1      23.362   0.712  52.398  1.00  0.00     0.089 A 
HETATM    6  C9  UNL     1      24.252   1.768  52.435  1.00  0.00     0.091 A 
HETATM    7  C10 UNL     1      25.276   1.661  53.254  1.00  0.00     0.160 A 
HETATM    8  N4  UNL     1      25.394   0.507  54.067  1.00  0.00    -0.320 N 
HETATM    9  C12 UNL     1      24.394  -0.533  53.991  1.00  0.00     0.109 A 
HETATM   10  C13 UNL     1      23.429  -0.363  53.112  1.00  0.00     0.023 A 
ENDROOT
BRANCH   1  11
HETATM   11  N1  UNL     1      24.838   3.931  51.596  1.00  0.00    -0.339 N 
HETATM   12  H5  UNL     1      24.891   4.491  52.469  1.00  0.00     0.167 HD
BRANCH  11  13
HETATM   13  C5  UNL     1      25.656   4.364  50.484  1.00  0.00     0.051 A 
HETATM   14  C4  UNL     1      26.679   3.672  49.714  1.00  0.00     0.031 A 
HETATM   15  C3  UNL     1      27.165   4.501  48.781  1.00  0.00     0.011 A 
HETATM   16  C2  UNL     1      26.419   5.732  48.981  1.00  0.00    -0.038 A 
HETATM   17  C1  UNL     1      26.598   6.809  48.256  1.00  0.00     0.044 C 
HETATM   18  C14 UNL     1      25.471   5.611  50.067  1.00  0.00     0.044 A 
HETATM   19 BR1  UNL     1      24.317   7.054  50.602  1.00  0.00    -0.048 Br
ENDBRANCH  11  13
ENDBRANCH   1  11
BRANCH   7  20
HETATM   20  O1  UNL     1      26.184   2.723  53.256  1.00  0.00    -0.345 OA
HETATM   21  H7  UNL     1      26.190   3.317  54.089  1.00  0.00     0.219 HD
ENDBRANCH   7  20
BRANCH   8  22
HETATM   22  C11 UNL     1      26.524   0.367  54.955  1.00  0.00     0.245 C 
BRANCH  22  23
HETATM   23  N5  UNL     1      27.556  -0.515  54.473  1.00  0.00    -0.415 N 
HETATM   24  H10 UNL     1      27.826  -0.370  53.503  1.00  0.00     0.151 HD
HETATM   25  H11 UNL     1      28.260  -0.806  55.150  1.00  0.00     0.151 HD
ENDBRANCH  22  23
ENDBRANCH   8  22
TORSDOF 5
ENDMDL
MODEL 8
REMARK VINA RESULT:      -7.3      2.507      5.832
REMARK  5 active torsions:
REMARK  status: ('A' for Active; 'I' for Inactive)
REMARK    1  A    between atoms: C5_5  and  N1_6 
REMARK    2  A    between atoms: N1_6  and  C6_7 
REMARK    3  A    between atoms: C10_13  and  O1_14 
REMARK    4  A    between atoms: N4_15  and  C11_16 
REMARK    5  A    between atoms: C11_16  and  N5_17 
ROOT
HETATM    1  C6  UNL     1      24.833   2.044  51.510  1.00  0.00     0.146 A 
HETATM    2  N2  UNL     1      23.549   1.629  51.360  1.00  0.00    -0.223 NA
HETATM    3  C7  UNL     1      23.085   0.707  52.219  1.00  0.00     0.236 A 
HETATM    4  N3  UNL     1      23.903   0.225  53.197  1.00  0.00    -0.240 NA
HETATM    5  C8  UNL     1      25.160   0.637  53.335  1.00  0.00     0.089 A 
HETATM    6  C9  UNL     1      25.688   1.584  52.479  1.00  0.00     0.091 A 
HETATM    7  C10 UNL     1      26.946   1.924  52.664  1.00  0.00     0.160 A 
HETATM    8  N4  UNL     1      27.670   1.339  53.732  1.00  0.00    -0.320 N 
HETATM    9  C12 UNL     1      27.025   0.385  54.603  1.00  0.00     0.109 A 
HETATM   10  C13 UNL     1      25.779   0.069  54.316  1.00  0.00     0.023 A 
ENDROOT
BRANCH   1  11
HETATM   11  N1  UNL     1      25.316   3.041  50.618  1.00  0.00    -0.339 N 
HETATM   12  H5  UNL     1      25.981   2.747  49.876  1.00  0.00     0.167 HD
BRANCH  11  13
HETATM   13  C5  UNL     1      24.956   4.442  50.664  1.00  0.00     0.051 A 
HETATM   14  C4  UNL     1      23.892   5.140  51.369  1.00  0.00     0.031 A 
HETATM   15  C3  UNL     1      23.960   6.448  51.088  1.00  0.00     0.011 A 
HETATM   16  C2  UNL     1      25.098   6.555  50.189  1.00  0.00    -0.038 A 
HETATM   17  C1  UNL     1      25.506   7.690  49.676  1.00  0.00     0.044 C 
HETATM   18  C14 UNL     1      25.706   5.266  49.942  1.00  0.00     0.044 A 
HETATM   19 BR1  UNL     1      27.237   5.044  48.799  1.00  0.00    -0.048 Br
ENDBRANCH  11  13
ENDBRANCH   1  11
BRANCH   7  20
HETATM   20  O1  UNL     1      27.476   2.859  51.772  1.00  0.00    -0.345 OA
HETATM   21  H7  UNL     1      26.935   3.716  51.633  1.00  0.00     0.219 HD
ENDBRANCH   7  20
BRANCH   8  22
HETATM   22  C11 UNL     1      29.057   1.687  53.933  1.00  0.00     0.245 C 
BRANCH  22  23
HETATM   23  N5  UNL     1      29.992   0.667  53.534  1.00  0.00    -0.415 N 
HETATM   24  H10 UNL     1      30.777   0.997  52.977  1.00  0.00     0.151 HD
HETATM   25  H11 UNL     1      30.131  -0.105  54.186  1.00  0.00     0.151 HD
ENDBRANCH  22  23
ENDBRANCH   8  22
TORSDOF 5
ENDMDL
MODEL 9
REMARK VINA RESULT:      -7.1      2.312      3.256
REMARK  5 active torsions:
REMARK  status: ('A' for Active; 'I' for Inactive)
REMARK    1  A    between atoms: C5_5  and  N1_6 
REMARK    2  A    between atoms: N1_6  and  C6_7 
REMARK    3  A    between atoms: C10_13  and  O1_14 
REMARK    4  A    between atoms: N4_15  and  C11_16 
REMARK    5  A    between atoms: C11_16  and  N5_17 
ROOT
HETATM    1  C6  UNL     1      22.988   2.349  50.945  1.00  0.00     0.146 A 
HETATM    2  N2  UNL     1      22.287   1.333  50.378  1.00  0.00    -0.223 NA
HETATM    3  C7  UNL     1      21.880   1.486  49.108  1.00  0.00     0.236 A 
HETATM    4  N3  UNL     1      22.176   2.637  48.439  1.00  0.00    -0.240 NA
HETATM    5  C8  UNL     1      22.862   3.627  49.004  1.00  0.00     0.089 A 
HETATM    6  C9  UNL     1      23.306   3.521  50.309  1.00  0.00     0.091 A 
HETATM    7  C10 UNL     1      23.956   4.551  50.805  1.00  0.00     0.160 A 
HETATM    8  N4  UNL     1      24.196   5.681  49.984  1.00  0.00    -0.320 N 
HETATM    9  C12 UNL     1      23.728   5.689  48.618  1.00  0.00     0.109 A 
HETATM   10  C13 UNL     1      23.047   4.635  48.218  1.00  0.00     0.023 A 
ENDROOT
BRANCH   1  11
HETATM   11  N1  UNL     1      23.443   2.175  52.282  1.00  0.00    -0.339 N 
HETATM   12  H5  UNL     1      23.292   2.954  52.950  1.00  0.00     0.167 HD
BRANCH  11  13
HETATM   13  C5  UNL     1      24.107   0.992  52.785  1.00  0.00     0.051 A 
HETATM   14  C4  UNL     1      23.625  -0.106  53.610  1.00  0.00     0.031 A 
HETATM   15  C3  UNL     1      24.625  -0.971  53.823  1.00  0.00     0.011 A 
HETATM   16  C2  UNL     1      25.750  -0.390  53.107  1.00  0.00    -0.038 A 
HETATM   17  C1  UNL     1      26.939  -0.940  53.066  1.00  0.00     0.044 C 
HETATM   18  C14 UNL     1      25.387   0.852  52.461  1.00  0.00     0.044 A 
HETATM   19 BR1  UNL     1      26.636   1.887  51.426  1.00  0.00    -0.048 Br
ENDBRANCH  11  13
ENDBRANCH   1  11
BRANCH   7  20
HETATM   20  O1  UNL     1      24.371   4.443  52.135  1.00  0.00    -0.345 OA
HETATM   21  H7  UNL     1      24.250   5.273  52.721  1.00  0.00     0.219 HD
ENDBRANCH   7  20
BRANCH   8  22
HETATM   22  C11 UNL     1      24.889   6.826  50.523  1.00  0.00     0.245 C 
BRANCH  22  23
HETATM   23  N5  UNL     1      24.440   7.237  51.828  1.00  0.00    -0.415 N 
HETATM   24  H10 UNL     1      23.806   6.587  52.288  1.00  0.00     0.151 HD
HETATM   25  H11 UNL     1      25.100   7.774  52.390  1.00  0.00     0.151 HD
ENDBRANCH  22  23
ENDBRANCH   8  22
TORSDOF 5
ENDMDL
