MODEL 1
REMARK VINA RESULT:      -8.0      0.000      0.000
REMARK  6 active torsions:
REMARK  status: ('A' for Active; 'I' for Inactive)
REMARK    1  A    between atoms: N1_1  and  C1_2 
REMARK    2  A    between atoms: N2_5  and  C4_6 
REMARK    3  A    between atoms: C4_6  and  C5_7 
REMARK    4  A    between atoms: C9_14  and  N6_15 
REMARK    5  A    between atoms: N6_15  and  C10_16 
REMARK    6  A    between atoms: C13_19  and  S1_20 
ROOT
HETATM    1  C5  UNL     1      23.589  -0.264  53.521  1.00  0.00    -0.007 A 
HETATM    2  C6  UNL     1      23.262  -1.005  54.648  1.00  0.00     0.030 A 
HETATM    3  C7  UNL     1      21.888  -1.030  54.790  1.00  0.00     0.119 A 
HETATM    4  N3  UNL     1      21.360  -0.318  53.764  1.00  0.00    -0.240 N 
HETATM    5  N4  UNL     1      20.096  -0.077  53.456  1.00  0.00    -0.161 NA
HETATM    6  C8  UNL     1      19.828   0.655  52.336  1.00  0.00     0.258 A 
HETATM    7  N5  UNL     1      20.835   1.108  51.578  1.00  0.00    -0.220 NA
HETATM    8  C9  UNL     1      22.117   0.869  51.883  1.00  0.00     0.159 A 
HETATM    9  C16 UNL     1      22.367   0.125  53.028  1.00  0.00     0.112 A 
ENDROOT
BRANCH   1  10
HETATM   10  C4  UNL     1      24.982  -0.033  53.201  1.00  0.00     0.158 C 
BRANCH  10  11
HETATM   11  N2  UNL     1      25.684   0.789  54.120  1.00  0.00    -0.408 N 
HETATM   12  C3  UNL     1      26.084   2.055  53.533  1.00  0.00     0.119 C 
HETATM   13  C2  UNL     1      27.443   2.108  52.968  1.00  0.00     0.055 C 
HETATM   14  C1  UNL     1      28.490   1.299  53.628  1.00  0.00     0.221 C 
HETATM   15  C18 UNL     1      28.061   0.132  54.427  1.00  0.00     0.055 C 
HETATM   16  C17 UNL     1      26.673   0.233  54.958  1.00  0.00     0.119 C 
BRANCH  14  17
HETATM   17  N1  UNL     1      29.419   2.107  54.416  1.00  0.00     0.083 N 
HETATM   18  H1  UNL     1      28.986   2.521  55.269  1.00  0.00     0.313 HD
HETATM   19  H2  UNL     1      29.956   2.783  53.856  1.00  0.00     0.313 HD
ENDBRANCH  14  17
ENDBRANCH  10  11
ENDBRANCH   1  10
BRANCH   8  20
HETATM   20  N6  UNL     1      23.135   1.358  50.976  1.00  0.00    -0.339 N 
HETATM   21  H13 UNL     1      23.719   0.864  50.268  1.00  0.00     0.167 HD
BRANCH  20  22
HETATM   22  C10 UNL     1      23.553   2.740  50.917  1.00  0.00     0.033 A 
HETATM   23  C11 UNL     1      23.258   3.737  51.824  1.00  0.00     0.031 A 
HETATM   24  C12 UNL     1      23.750   5.023  51.642  1.00  0.00     0.020 A 
HETATM   25  C13 UNL     1      24.541   5.376  50.576  1.00  0.00    -0.003 A 
HETATM   26  C14 UNL     1      24.835   4.372  49.668  1.00  0.00     0.020 A 
HETATM   27  C15 UNL     1      24.346   3.080  49.841  1.00  0.00     0.031 A 
BRANCH  25  28
HETATM   28  S1  UNL     1      25.105   7.063  50.458  1.00  0.00    -0.143 SA
HETATM   29  H16 UNL     1      26.228   7.291  51.266  1.00  0.00     0.107 HD
ENDBRANCH  25  28
ENDBRANCH  20  22
ENDBRANCH   8  20
TORSDOF 6
ENDMDL
MODEL 2
REMARK VINA RESULT:      -7.7      2.541      5.141
REMARK  6 active torsions:
REMARK  status: ('A' for Active; 'I' for Inactive)
REMARK    1  A    between atoms: N1_1  and  C1_2 
REMARK    2  A    between atoms: N2_5  and  C4_6 
REMARK    3  A    between atoms: C4_6  and  C5_7 
REMARK    4  A    between atoms: C9_14  and  N6_15 
REMARK    5  A    between atoms: N6_15  and  C10_16 
REMARK    6  A    between atoms: C13_19  and  S1_20 
ROOT
HETATM    1  C5  UNL     1      21.352   0.440  51.895  1.00  0.00    -0.007 A 
HETATM    2  C6  UNL     1      19.985   0.247  52.035  1.00  0.00     0.030 A 
HETATM    3  C7  UNL     1      19.747  -0.485  53.184  1.00  0.00     0.119 A 
HETATM    4  N3  UNL     1      20.948  -0.743  53.758  1.00  0.00    -0.240 N 
HETATM    5  N4  UNL     1      21.236  -1.386  54.878  1.00  0.00    -0.161 NA
HETATM    6  C8  UNL     1      22.544  -1.482  55.254  1.00  0.00     0.258 A 
HETATM    7  N5  UNL     1      23.499  -0.932  54.494  1.00  0.00    -0.220 NA
HETATM    8  C9  UNL     1      23.216  -0.281  53.359  1.00  0.00     0.159 A 
HETATM    9  C16 UNL     1      21.880  -0.196  52.994  1.00  0.00     0.112 A 
ENDROOT
BRANCH   1  10
HETATM   10  C4  UNL     1      21.858   1.122  50.723  1.00  0.00     0.158 C 
BRANCH  10  11
HETATM   11  N2  UNL     1      21.803   2.539  50.779  1.00  0.00    -0.408 N 
HETATM   12  C3  UNL     1      22.490   3.162  49.662  1.00  0.00     0.119 C 
HETATM   13  C2  UNL     1      23.893   3.544  49.894  1.00  0.00     0.055 C 
HETATM   14  C1  UNL     1      24.265   3.983  51.256  1.00  0.00     0.221 C 
HETATM   15  C18 UNL     1      23.419   3.535  52.382  1.00  0.00     0.055 C 
HETATM   16  C17 UNL     1      22.017   3.210  52.001  1.00  0.00     0.119 C 
BRANCH  14  17
HETATM   17  N1  UNL     1      24.468   5.427  51.351  1.00  0.00     0.083 N 
HETATM   18  H1  UNL     1      25.089   5.707  52.140  1.00  0.00     0.313 HD
HETATM   19  H2  UNL     1      23.596   5.971  51.299  1.00  0.00     0.313 HD
ENDBRANCH  14  17
ENDBRANCH  10  11
ENDBRANCH   1  10
BRANCH   8  20
HETATM   20  N6  UNL     1      24.312   0.325  52.630  1.00  0.00    -0.339 N 
HETATM   21  H13 UNL     1      24.321   1.018  51.852  1.00  0.00     0.167 HD
BRANCH  20  22
HETATM   22  C10 UNL     1      25.703   0.018  52.881  1.00  0.00     0.033 A 
HETATM   23  C11 UNL     1      26.359  -1.160  52.590  1.00  0.00     0.031 A 
HETATM   24  C12 UNL     1      27.711  -1.302  52.875  1.00  0.00     0.020 A 
HETATM   25  C13 UNL     1      28.461  -0.306  53.452  1.00  0.00    -0.003 A 
HETATM   26  C14 UNL     1      27.798   0.875  53.743  1.00  0.00     0.020 A 
HETATM   27  C15 UNL     1      26.443   1.027  53.461  1.00  0.00     0.031 A 
BRANCH  25  28
HETATM   28  S1  UNL     1      30.187  -0.617  53.770  1.00  0.00    -0.143 SA
HETATM   29  H16 UNL     1      30.715   0.292  54.698  1.00  0.00     0.107 HD
ENDBRANCH  25  28
ENDBRANCH  20  22
ENDBRANCH   8  20
TORSDOF 6
ENDMDL
MODEL 3
REMARK VINA RESULT:      -7.6      1.696      5.414
REMARK  6 active torsions:
REMARK  status: ('A' for Active; 'I' for Inactive)
REMARK    1  A    between atoms: N1_1  and  C1_2 
REMARK    2  A    between atoms: N2_5  and  C4_6 
REMARK    3  A    between atoms: C4_6  and  C5_7 
REMARK    4  A    between atoms: C9_14  and  N6_15 
REMARK    5  A    between atoms: N6_15  and  C10_16 
REMARK    6  A    between atoms: C13_19  and  S1_20 
ROOT
HETATM    1  C5  UNL     1      22.725  -0.557  53.695  1.00  0.00    -0.007 A 
HETATM    2  C6  UNL     1      22.404  -1.244  54.857  1.00  0.00     0.030 A 
HETATM    3  C7  UNL     1      23.545  -1.395  55.623  1.00  0.00     0.119 A 
HETATM    4  N3  UNL     1      24.566  -0.808  54.952  1.00  0.00    -0.240 N 
HETATM    5  N4  UNL     1      25.839  -0.673  55.287  1.00  0.00    -0.161 NA
HETATM    6  C8  UNL     1      26.667  -0.003  54.435  1.00  0.00     0.258 A 
HETATM    7  N5  UNL     1      26.184   0.499  53.291  1.00  0.00    -0.220 NA
HETATM    8  C9  UNL     1      24.898   0.366  52.944  1.00  0.00     0.159 A 
HETATM    9  C16 UNL     1      24.073  -0.322  53.824  1.00  0.00     0.112 A 
ENDROOT
BRANCH   1  10
HETATM   10  C4  UNL     1      21.704  -0.338  52.693  1.00  0.00     0.158 C 
BRANCH  10  11
HETATM   11  N2  UNL     1      20.556   0.364  53.145  1.00  0.00    -0.408 N 
HETATM   12  C3  UNL     1      19.330  -0.378  52.915  1.00  0.00     0.119 C 
HETATM   13  C2  UNL     1      18.609  -0.072  51.669  1.00  0.00     0.055 C 
HETATM   14  C1  UNL     1      18.672   1.319  51.167  1.00  0.00     0.221 C 
HETATM   15  C18 UNL     1      19.811   2.157  51.594  1.00  0.00     0.055 C 
HETATM   16  C17 UNL     1      20.422   1.744  52.888  1.00  0.00     0.119 C 
BRANCH  14  17
HETATM   17  N1  UNL     1      17.426   2.054  51.379  1.00  0.00     0.083 N 
HETATM   18  H1  UNL     1      16.594   1.436  51.485  1.00  0.00     0.313 HD
HETATM   19  H2  UNL     1      17.285   2.827  50.714  1.00  0.00     0.313 HD
ENDBRANCH  14  17
ENDBRANCH  10  11
ENDBRANCH   1  10
BRANCH   8  20
HETATM   20  N6  UNL     1      24.458   0.986  51.712  1.00  0.00    -0.339 N 
HETATM   21  H13 UNL     1      24.477   0.647  50.726  1.00  0.00     0.167 HD
BRANCH  20  22
HETATM   22  C10 UNL     1      23.882   2.311  51.647  1.00  0.00     0.033 A 
HETATM   23  C11 UNL     1      23.819   3.240  52.665  1.00  0.00     0.031 A 
HETATM   24  C12 UNL     1      23.248   4.486  52.447  1.00  0.00     0.020 A 
HETATM   25  C13 UNL     1      22.721   4.865  51.235  1.00  0.00    -0.003 A 
HETATM   26  C14 UNL     1      22.787   3.929  50.216  1.00  0.00     0.020 A 
HETATM   27  C15 UNL     1      23.357   2.677  50.425  1.00  0.00     0.031 A 
BRANCH  25  28
HETATM   28  S1  UNL     1      22.013   6.494  51.088  1.00  0.00    -0.143 SA
HETATM   29  H16 UNL     1      21.573   6.750  49.782  1.00  0.00     0.107 HD
ENDBRANCH  25  28
ENDBRANCH  20  22
ENDBRANCH   8  20
TORSDOF 6
ENDMDL
MODEL 4
REMARK VINA RESULT:      -7.4      1.870      2.937
REMARK  6 active torsions:
REMARK  status: ('A' for Active; 'I' for Inactive)
REMARK    1  A    between atoms: N1_1  and  C1_2 
REMARK    2  A    between atoms: N2_5  and  C4_6 
REMARK    3  A    between atoms: C4_6  and  C5_7 
REMARK    4  A    between atoms: C9_14  and  N6_15 
REMARK    5  A    between atoms: N6_15  and  C10_16 
REMARK    6  A    between atoms: C13_19  and  S1_20 
ROOT
HETATM    1  C5  UNL     1      23.581   1.170  52.375  1.00  0.00    -0.007 A 
HETATM    2  C6  UNL     1      22.684   0.120  52.509  1.00  0.00     0.030 A 
HETATM    3  C7  UNL     1      21.649   0.290  51.609  1.00  0.00     0.119 A 
HETATM    4  N3  UNL     1      21.895   1.430  50.917  1.00  0.00    -0.240 N 
HETATM    5  N4  UNL     1      21.209   1.997  49.938  1.00  0.00    -0.161 NA
HETATM    6  C8  UNL     1      21.697   3.143  49.382  1.00  0.00     0.258 A 
HETATM    7  N5  UNL     1      22.845   3.667  49.831  1.00  0.00    -0.220 NA
HETATM    8  C9  UNL     1      23.545   3.100  50.822  1.00  0.00     0.159 A 
HETATM    9  C16 UNL     1      23.029   1.936  51.375  1.00  0.00     0.112 A 
ENDROOT
BRANCH   1  10
HETATM   10  C4  UNL     1      24.719   1.252  53.264  1.00  0.00     0.158 C 
BRANCH  10  11
HETATM   11  N2  UNL     1      25.877   0.557  52.828  1.00  0.00    -0.408 N 
HETATM   12  C3  UNL     1      26.455  -0.265  53.876  1.00  0.00     0.119 C 
HETATM   13  C2  UNL     1      27.535   0.352  54.664  1.00  0.00     0.055 C 
HETATM   14  C1  UNL     1      28.430   1.303  53.970  1.00  0.00     0.221 C 
HETATM   15  C18 UNL     1      27.918   1.972  52.755  1.00  0.00     0.055 C 
HETATM   16  C17 UNL     1      26.848   1.217  52.047  1.00  0.00     0.119 C 
BRANCH  14  17
HETATM   17  N1  UNL     1      29.749   0.740  53.691  1.00  0.00     0.083 N 
HETATM   18  H1  UNL     1      29.852  -0.248  54.003  1.00  0.00     0.313 HD
HETATM   19  H2  UNL     1      30.528   1.348  53.981  1.00  0.00     0.313 HD
ENDBRANCH  14  17
ENDBRANCH  10  11
ENDBRANCH   1  10
BRANCH   8  20
HETATM   20  N6  UNL     1      24.800   3.712  51.206  1.00  0.00    -0.339 N 
HETATM   21  H13 UNL     1      25.353   3.654  52.087  1.00  0.00     0.167 HD
BRANCH  20  22
HETATM   22  C10 UNL     1      25.549   4.602  50.346  1.00  0.00     0.033 A 
HETATM   23  C11 UNL     1      25.372   5.963  50.204  1.00  0.00     0.031 A 
HETATM   24  C12 UNL     1      26.186   6.693  49.347  1.00  0.00     0.020 A 
HETATM   25  C13 UNL     1      27.191   6.122  48.605  1.00  0.00    -0.003 A 
HETATM   26  C14 UNL     1      27.365   4.755  48.751  1.00  0.00     0.020 A 
HETATM   27  C15 UNL     1      26.555   4.015  49.607  1.00  0.00     0.031 A 
BRANCH  25  28
HETATM   28  S1  UNL     1      28.162   7.171  47.540  1.00  0.00    -0.143 SA
HETATM   29  H16 UNL     1      29.437   6.635  47.308  1.00  0.00     0.107 HD
ENDBRANCH  25  28
ENDBRANCH  20  22
ENDBRANCH   8  20
TORSDOF 6
ENDMDL
MODEL 5
REMARK VINA RESULT:      -7.2      2.710      5.864
REMARK  6 active torsions:
REMARK  status: ('A' for Active; 'I' for Inactive)
REMARK    1  A    between atoms: N1_1  and  C1_2 
REMARK    2  A    between atoms: N2_5  and  C4_6 
REMARK    3  A    between atoms: C4_6  and  C5_7 
REMARK    4  A    between atoms: C9_14  and  N6_15 
REMARK    5  A    between atoms: N6_15  and  C10_16 
REMARK    6  A    between atoms: C13_19  and  S1_20 
ROOT
HETATM    1  C5  UNL     1      21.084   1.005  52.346  1.00  0.00    -0.007 A 
HETATM    2  C6  UNL     1      19.728   0.714  52.296  1.00  0.00     0.030 A 
HETATM    3  C7  UNL     1      19.464  -0.361  53.123  1.00  0.00     0.119 A 
HETATM    4  N3  UNL     1      20.638  -0.738  53.687  1.00  0.00    -0.240 N 
HETATM    5  N4  UNL     1      20.894  -1.696  54.562  1.00  0.00    -0.161 NA
HETATM    6  C8  UNL     1      22.176  -1.851  55.001  1.00  0.00     0.258 A 
HETATM    7  N5  UNL     1      23.140  -1.040  54.545  1.00  0.00    -0.220 NA
HETATM    8  C9  UNL     1      22.890  -0.068  53.659  1.00  0.00     0.159 A 
HETATM    9  C16 UNL     1      21.579   0.070  53.224  1.00  0.00     0.112 A 
ENDROOT
BRANCH   1  10
HETATM   10  C4  UNL     1      21.618   2.054  51.504  1.00  0.00     0.158 C 
BRANCH  10  11
HETATM   11  N2  UNL     1      22.186   1.614  50.280  1.00  0.00    -0.408 N 
HETATM   12  C3  UNL     1      23.233   2.502  49.807  1.00  0.00     0.119 C 
HETATM   13  C2  UNL     1      22.819   3.542  48.851  1.00  0.00     0.055 C 
HETATM   14  C1  UNL     1      21.726   3.211  47.910  1.00  0.00     0.221 C 
HETATM   15  C18 UNL     1      20.788   2.134  48.292  1.00  0.00     0.055 C 
HETATM   16  C17 UNL     1      21.356   1.139  49.243  1.00  0.00     0.119 C 
BRANCH  14  17
HETATM   17  N1  UNL     1      22.203   2.975  46.549  1.00  0.00     0.083 N 
HETATM   18  H1  UNL     1      22.084   1.989  46.234  1.00  0.00     0.313 HD
HETATM   19  H2  UNL     1      23.141   3.357  46.367  1.00  0.00     0.313 HD
ENDBRANCH  14  17
ENDBRANCH  10  11
ENDBRANCH   1  10
BRANCH   8  20
HETATM   20  N6  UNL     1      23.987   0.791  53.262  1.00  0.00    -0.339 N 
HETATM   21  H13 UNL     1      23.999   1.768  52.901  1.00  0.00     0.167 HD
BRANCH  20  22
HETATM   22  C10 UNL     1      25.373   0.379  53.292  1.00  0.00     0.033 A 
HETATM   23  C11 UNL     1      25.985  -0.537  52.462  1.00  0.00     0.031 A 
HETATM   24  C12 UNL     1      27.338  -0.818  52.601  1.00  0.00     0.020 A 
HETATM   25  C13 UNL     1      28.133  -0.220  53.549  1.00  0.00    -0.003 A 
HETATM   26  C14 UNL     1      27.513   0.699  54.380  1.00  0.00     0.020 A 
HETATM   27  C15 UNL     1      26.158   0.988  54.249  1.00  0.00     0.031 A 
BRANCH  25  28
HETATM   28  S1  UNL     1      29.855  -0.672  53.624  1.00  0.00    -0.143 SA
HETATM   29  H16 UNL     1      30.267  -0.926  54.940  1.00  0.00     0.107 HD
ENDBRANCH  25  28
ENDBRANCH  20  22
ENDBRANCH   8  20
TORSDOF 6
ENDMDL
MODEL 6
REMARK VINA RESULT:      -7.2      2.708      5.358
REMARK  6 active torsions:
REMARK  status: ('A' for Active; 'I' for Inactive)
REMARK    1  A    between atoms: N1_1  and  C1_2 
REMARK    2  A    between atoms: N2_5  and  C4_6 
REMARK    3  A    between atoms: C4_6  and  C5_7 
REMARK    4  A    between atoms: C9_14  and  N6_15 
REMARK    5  A    between atoms: N6_15  and  C10_16 
REMARK    6  A    between atoms: C13_19  and  S1_20 
ROOT
HETATM    1  C5  UNL     1      22.561   2.050  50.123  1.00  0.00    -0.007 A 
HETATM    2  C6  UNL     1      21.546   1.694  49.247  1.00  0.00     0.030 A 
HETATM    3  C7  UNL     1      20.686   0.817  49.881  1.00  0.00     0.119 A 
HETATM    4  N3  UNL     1      21.153   0.629  51.140  1.00  0.00    -0.240 N 
HETATM    5  N4  UNL     1      20.664  -0.100  52.130  1.00  0.00    -0.161 NA
HETATM    6  C8  UNL     1      21.320  -0.095  53.326  1.00  0.00     0.258 A 
HETATM    7  N5  UNL     1      22.431   0.638  53.475  1.00  0.00    -0.220 NA
HETATM    8  C9  UNL     1      22.933   1.377  52.478  1.00  0.00     0.159 A 
HETATM    9  C16 UNL     1      22.251   1.356  51.269  1.00  0.00     0.112 A 
ENDROOT
BRANCH   1  10
HETATM   10  C4  UNL     1      23.630   2.909  49.663  1.00  0.00     0.158 C 
BRANCH  10  11
HETATM   11  N2  UNL     1      23.268   4.266  49.458  1.00  0.00    -0.408 N 
HETATM   12  C3  UNL     1      24.407   5.094  49.103  1.00  0.00     0.119 C 
HETATM   13  C2  UNL     1      25.074   5.792  50.214  1.00  0.00     0.055 C 
HETATM   14  C1  UNL     1      24.231   6.237  51.346  1.00  0.00     0.221 C 
HETATM   15  C18 UNL     1      22.946   5.540  51.567  1.00  0.00     0.055 C 
HETATM   16  C17 UNL     1      22.378   4.905  50.346  1.00  0.00     0.119 C 
BRANCH  14  17
HETATM   17  N1  UNL     1      24.002   7.681  51.348  1.00  0.00     0.083 N 
HETATM   18  H1  UNL     1      23.798   8.066  52.295  1.00  0.00     0.313 HD
HETATM   19  H2  UNL     1      23.343   7.996  50.623  1.00  0.00     0.313 HD
ENDBRANCH  14  17
ENDBRANCH  10  11
ENDBRANCH   1  10
BRANCH   8  20
HETATM   20  N6  UNL     1      24.111   2.176  52.750  1.00  0.00    -0.339 N 
HETATM   21  H13 UNL     1      24.243   3.208  52.809  1.00  0.00     0.167 HD
BRANCH  20  22
HETATM   22  C10 UNL     1      25.420   1.611  52.986  1.00  0.00     0.033 A 
HETATM   23  C11 UNL     1      26.390   2.091  53.841  1.00  0.00     0.031 A 
HETATM   24  C12 UNL     1      27.601   1.424  53.977  1.00  0.00     0.020 A 
HETATM   25  C13 UNL     1      27.904   0.276  53.286  1.00  0.00    -0.003 A 
HETATM   26  C14 UNL     1      26.927  -0.203  52.429  1.00  0.00     0.020 A 
HETATM   27  C15 UNL     1      25.710   0.458  52.286  1.00  0.00     0.031 A 
BRANCH  25  28
HETATM   28  S1  UNL     1      29.497  -0.480  53.549  1.00  0.00    -0.143 SA
HETATM   29  H16 UNL     1      29.852  -0.480  54.906  1.00  0.00     0.107 HD
ENDBRANCH  25  28
ENDBRANCH  20  22
ENDBRANCH   8  20
TORSDOF 6
ENDMDL
MODEL 7
REMARK VINA RESULT:      -7.1      2.277      3.499
REMARK  6 active torsions:
REMARK  status: ('A' for Active; 'I' for Inactive)
REMARK    1  A    between atoms: N1_1  and  C1_2 
REMARK    2  A    between atoms: N2_5  and  C4_6 
REMARK    3  A    between atoms: C4_6  and  C5_7 
REMARK    4  A    between atoms: C9_14  and  N6_15 
REMARK    5  A    between atoms: N6_15  and  C10_16 
REMARK    6  A    between atoms: C13_19  and  S1_20 
ROOT
HETATM    1  C5  UNL     1      23.314   2.062  51.261  1.00  0.00    -0.007 A 
HETATM    2  C6  UNL     1      22.325   1.106  51.081  1.00  0.00     0.030 A 
HETATM    3  C7  UNL     1      21.112   1.740  50.893  1.00  0.00     0.119 A 
HETATM    4  N3  UNL     1      21.337   3.076  50.951  1.00  0.00    -0.240 N 
HETATM    5  N4  UNL     1      20.498   4.088  50.806  1.00  0.00    -0.161 NA
HETATM    6  C8  UNL     1      20.993   5.358  50.881  1.00  0.00     0.258 A 
HETATM    7  N5  UNL     1      22.301   5.553  51.096  1.00  0.00    -0.220 NA
HETATM    8  C9  UNL     1      23.156   4.534  51.245  1.00  0.00     0.159 A 
HETATM    9  C16 UNL     1      22.631   3.251  51.167  1.00  0.00     0.112 A 
ENDROOT
BRANCH   1  10
HETATM   10  C4  UNL     1      24.668   1.639  51.549  1.00  0.00     0.158 C 
BRANCH  10  11
HETATM   11  N2  UNL     1      24.901   1.231  52.889  1.00  0.00    -0.408 N 
HETATM   12  C3  UNL     1      25.840   2.101  53.575  1.00  0.00     0.119 C 
HETATM   13  C2  UNL     1      27.250   1.676  53.557  1.00  0.00     0.055 C 
HETATM   14  C1  UNL     1      27.526   0.223  53.573  1.00  0.00     0.221 C 
HETATM   15  C18 UNL     1      26.468  -0.687  53.087  1.00  0.00     0.055 C 
HETATM   16  C17 UNL     1      25.090  -0.133  53.193  1.00  0.00     0.119 C 
BRANCH  14  17
HETATM   17  N1  UNL     1      28.009  -0.248  54.869  1.00  0.00     0.083 N 
HETATM   18  H1  UNL     1      27.307  -0.812  55.393  1.00  0.00     0.313 HD
HETATM   19  H2  UNL     1      28.455   0.486  55.436  1.00  0.00     0.313 HD
ENDBRANCH  14  17
ENDBRANCH  10  11
ENDBRANCH   1  10
BRANCH   8  20
HETATM   20  N6  UNL     1      24.560   4.844  51.423  1.00  0.00    -0.339 N 
HETATM   21  H13 UNL     1      25.213   4.644  52.210  1.00  0.00     0.167 HD
BRANCH  20  22
HETATM   22  C10 UNL     1      25.347   5.567  50.449  1.00  0.00     0.033 A 
HETATM   23  C11 UNL     1      25.376   6.932  50.253  1.00  0.00     0.031 A 
HETATM   24  C12 UNL     1      26.202   7.486  49.284  1.00  0.00     0.020 A 
HETATM   25  C13 UNL     1      27.020   6.732  48.479  1.00  0.00    -0.003 A 
HETATM   26  C14 UNL     1      26.988   5.361  48.680  1.00  0.00     0.020 A 
HETATM   27  C15 UNL     1      26.163   4.796  49.648  1.00  0.00     0.031 A 
BRANCH  25  28
HETATM   28  S1  UNL     1      28.030   7.567  47.271  1.00  0.00    -0.143 SA
HETATM   29  H16 UNL     1      29.280   7.922  47.797  1.00  0.00     0.107 HD
ENDBRANCH  25  28
ENDBRANCH  20  22
ENDBRANCH   8  20
TORSDOF 6
ENDMDL
MODEL 8
REMARK VINA RESULT:      -6.9      2.720      6.722
REMARK  6 active torsions:
REMARK  status: ('A' for Active; 'I' for Inactive)
REMARK    1  A    between atoms: N1_1  and  C1_2 
REMARK    2  A    between atoms: N2_5  and  C4_6 
REMARK    3  A    between atoms: C4_6  and  C5_7 
REMARK    4  A    between atoms: C9_14  and  N6_15 
REMARK    5  A    between atoms: N6_15  and  C10_16 
REMARK    6  A    between atoms: C13_19  and  S1_20 
ROOT
HETATM    1  C5  UNL     1      21.659   1.124  50.264  1.00  0.00    -0.007 A 
HETATM    2  C6  UNL     1      21.181   0.944  48.974  1.00  0.00     0.030 A 
HETATM    3  C7  UNL     1      21.652   1.964  48.170  1.00  0.00     0.119 A 
HETATM    4  N3  UNL     1      22.418   2.771  48.944  1.00  0.00    -0.240 N 
HETATM    5  N4  UNL     1      23.101   3.859  48.625  1.00  0.00    -0.161 NA
HETATM    6  C8  UNL     1      23.827   4.479  49.600  1.00  0.00     0.258 A 
HETATM    7  N5  UNL     1      23.837   3.981  50.844  1.00  0.00    -0.220 NA
HETATM    8  C9  UNL     1      23.148   2.882  51.174  1.00  0.00     0.159 A 
HETATM    9  C16 UNL     1      22.414   2.268  50.168  1.00  0.00     0.112 A 
ENDROOT
BRANCH   1  10
HETATM   10  C4  UNL     1      21.242   0.216  51.311  1.00  0.00     0.158 C 
BRANCH  10  11
HETATM   11  N2  UNL     1      20.149   0.664  52.099  1.00  0.00    -0.408 N 
HETATM   12  C3  UNL     1      20.078  -0.015  53.380  1.00  0.00     0.119 C 
HETATM   13  C2  UNL     1      19.200  -1.195  53.441  1.00  0.00     0.055 C 
HETATM   14  C1  UNL     1      17.981  -1.185  52.604  1.00  0.00     0.221 C 
HETATM   15  C18 UNL     1      17.966  -0.306  51.415  1.00  0.00     0.055 C 
HETATM   16  C17 UNL     1      18.884   0.863  51.509  1.00  0.00     0.119 C 
BRANCH  14  17
HETATM   17  N1  UNL     1      16.762  -0.965  53.380  1.00  0.00     0.083 N 
HETATM   18  H1  UNL     1      15.893  -1.235  52.871  1.00  0.00     0.313 HD
HETATM   19  H2  UNL     1      16.712  -0.035  53.818  1.00  0.00     0.313 HD
ENDBRANCH  14  17
ENDBRANCH  10  11
ENDBRANCH   1  10
BRANCH   8  20
HETATM   20  N6  UNL     1      23.261   2.391  52.532  1.00  0.00    -0.339 N 
HETATM   21  H13 UNL     1      22.592   2.418  53.331  1.00  0.00     0.167 HD
BRANCH  20  22
HETATM   22  C10 UNL     1      24.443   1.738  53.048  1.00  0.00     0.033 A 
HETATM   23  C11 UNL     1      24.665   0.380  53.149  1.00  0.00     0.031 A 
HETATM   24  C12 UNL     1      25.866  -0.102  53.652  1.00  0.00     0.020 A 
HETATM   25  C13 UNL     1      26.883   0.720  54.073  1.00  0.00    -0.003 A 
HETATM   26  C14 UNL     1      26.656   2.083  53.970  1.00  0.00     0.020 A 
HETATM   27  C15 UNL     1      25.456   2.576  53.467  1.00  0.00     0.031 A 
BRANCH  25  28
HETATM   28  S1  UNL     1      28.375  -0.026  54.702  1.00  0.00    -0.143 SA
HETATM   29  H16 UNL     1      28.620   0.349  56.031  1.00  0.00     0.107 HD
ENDBRANCH  25  28
ENDBRANCH  20  22
ENDBRANCH   8  20
TORSDOF 6
ENDMDL
MODEL 9
REMARK VINA RESULT:      -6.9      1.652      2.005
REMARK  6 active torsions:
REMARK  status: ('A' for Active; 'I' for Inactive)
REMARK    1  A    between atoms: N1_1  and  C1_2 
REMARK    2  A    between atoms: N2_5  and  C4_6 
REMARK    3  A    between atoms: C4_6  and  C5_7 
REMARK    4  A    between atoms: C9_14  and  N6_15 
REMARK    5  A    between atoms: N6_15  and  C10_16 
REMARK    6  A    between atoms: C13_19  and  S1_20 
ROOT
HETATM    1  C5  UNL     1      22.881   1.043  52.357  1.00  0.00    -0.007 A 
HETATM    2  C6  UNL     1      22.255   0.633  53.525  1.00  0.00     0.030 A 
HETATM    3  C7  UNL     1      20.929   1.021  53.488  1.00  0.00     0.119 A 
HETATM    4  N3  UNL     1      20.726   1.663  52.311  1.00  0.00    -0.240 N 
HETATM    5  N4  UNL     1      19.622   2.192  51.809  1.00  0.00    -0.161 NA
HETATM    6  C8  UNL     1      19.680   2.762  50.571  1.00  0.00     0.258 A 
HETATM    7  N5  UNL     1      20.836   2.774  49.895  1.00  0.00    -0.220 NA
HETATM    8  C9  UNL     1      21.957   2.241  50.396  1.00  0.00     0.159 A 
HETATM    9  C16 UNL     1      21.877   1.668  51.658  1.00  0.00     0.112 A 
ENDROOT
BRANCH   1  10
HETATM   10  C4  UNL     1      24.300   0.812  52.192  1.00  0.00     0.158 C 
BRANCH  10  11
HETATM   11  N2  UNL     1      25.048   0.763  53.398  1.00  0.00    -0.408 N 
HETATM   12  C3  UNL     1      25.789   1.988  53.638  1.00  0.00     0.119 C 
HETATM   13  C2  UNL     1      27.185   2.004  53.170  1.00  0.00     0.055 C 
HETATM   14  C1  UNL     1      27.936   0.730  53.214  1.00  0.00     0.221 C 
HETATM   15  C18 UNL     1      27.162  -0.529  53.206  1.00  0.00     0.055 C 
HETATM   16  C17 UNL     1      25.776  -0.397  53.734  1.00  0.00     0.119 C 
BRANCH  14  17
HETATM   17  N1  UNL     1      28.915   0.687  54.298  1.00  0.00     0.083 N 
HETATM   18  H1  UNL     1      29.877   0.447  53.978  1.00  0.00     0.313 HD
HETATM   19  H2  UNL     1      28.604   0.143  55.115  1.00  0.00     0.313 HD
ENDBRANCH  14  17
ENDBRANCH  10  11
ENDBRANCH   1  10
BRANCH   8  20
HETATM   20  N6  UNL     1      23.147   2.256  49.569  1.00  0.00    -0.339 N 
HETATM   21  H13 UNL     1      23.620   1.500  49.031  1.00  0.00     0.167 HD
BRANCH  20  22
HETATM   22  C10 UNL     1      23.953   3.437  49.355  1.00  0.00     0.033 A 
HETATM   23  C11 UNL     1      23.529   4.656  48.867  1.00  0.00     0.031 A 
HETATM   24  C12 UNL     1      24.423   5.710  48.733  1.00  0.00     0.020 A 
HETATM   25  C13 UNL     1      25.752   5.610  49.068  1.00  0.00    -0.003 A 
HETATM   26  C14 UNL     1      26.173   4.385  49.558  1.00  0.00     0.020 A 
HETATM   27  C15 UNL     1      25.285   3.322  49.696  1.00  0.00     0.031 A 
BRANCH  25  28
HETATM   28  S1  UNL     1      26.794   7.038  48.844  1.00  0.00    -0.143 SA
HETATM   29  H16 UNL     1      27.388   7.052  47.574  1.00  0.00     0.107 HD
ENDBRANCH  25  28
ENDBRANCH  20  22
ENDBRANCH   8  20
TORSDOF 6
ENDMDL
