MODEL 1
REMARK VINA RESULT:      -9.0      0.000      0.000
REMARK  5 active torsions:
REMARK  status: ('A' for Active; 'I' for Inactive)
REMARK    1  A    between atoms: C2_2  and  C3_3 
REMARK    2  A    between atoms: C3_3  and  C4_4 
REMARK    3  A    between atoms: C5_5  and  C6_6 
REMARK    4  A    between atoms: C8_8  and  C9_9 
REMARK    5  A    between atoms: N2_20  and  C17_21 
ROOT
HETATM    1  C6  UNL     1      25.803   1.300  51.696  1.00  0.00     0.139 C 
HETATM    2  C7  UNL     1      24.505   1.648  52.441  1.00  0.00     0.093 C 
HETATM    3  C8  UNL     1      24.071   0.275  52.795  1.00  0.00     0.067 C 
HETATM    4  N1  UNL     1      25.108  -0.468  52.801  1.00  0.00    -0.175 NA
HETATM    5  N2  UNL     1      26.284   0.217  52.485  1.00  0.00    -0.261 N 
ENDROOT
BRANCH   3   6
HETATM    6  C9  UNL     1      22.696  -0.124  53.079  1.00  0.00    -0.007 A 
HETATM    7  C10 UNL     1      22.388  -0.834  54.224  1.00  0.00     0.016 A 
HETATM    8  C11 UNL     1      21.074  -1.194  54.458  1.00  0.00     0.040 A 
HETATM    9  C12 UNL     1      20.101  -0.851  53.571  1.00  0.00     0.102 A 
HETATM   10  C13 UNL     1      20.358  -0.143  52.414  1.00  0.00     0.103 A 
HETATM   11  O2  UNL     1      18.786  -1.227  53.832  1.00  0.00    -0.346 OA
HETATM   12  C14 UNL     1      21.671   0.196  52.216  1.00  0.00     0.053 A 
HETATM   13  O1  UNL     1      19.323   0.177  51.547  1.00  0.00    -0.346 OA
HETATM   14  C15 UNL     1      18.004   0.129  52.055  1.00  0.00     0.202 C 
HETATM   15  C16 UNL     1      17.845  -1.211  52.759  1.00  0.00     0.202 C 
ENDBRANCH   3   6
BRANCH   1  16
HETATM   16  C5  UNL     1      26.656   2.475  51.588  1.00  0.00    -0.003 C 
HETATM   17  C4  UNL     1      26.792   3.317  50.600  1.00  0.00    -0.025 C 
BRANCH  17  18
HETATM   18  C3  UNL     1      26.066   3.233  49.332  1.00  0.00     0.053 C 
BRANCH  18  19
HETATM   19  C2  UNL     1      24.739   3.945  49.375  1.00  0.00    -0.033 C 
HETATM   20  C1  UNL     1      23.556   3.349  49.244  1.00  0.00     0.007 C 
ENDBRANCH  18  19
ENDBRANCH  17  18
ENDBRANCH   1  16
BRANCH   5  21
HETATM   21  C17 UNL     1      27.555  -0.213  52.932  1.00  0.00     0.053 A 
HETATM   22  C18 UNL     1      27.978  -1.523  52.919  1.00  0.00     0.031 A 
HETATM   23  C19 UNL     1      29.206  -1.984  53.344  1.00  0.00     0.002 A 
HETATM   24  C20 UNL     1      30.116  -1.068  53.833  1.00  0.00     0.000 A 
HETATM   25  C21 UNL     1      29.744   0.259  53.870  1.00  0.00     0.002 A 
HETATM   26  C22 UNL     1      28.501   0.657  53.430  1.00  0.00     0.031 A 
ENDBRANCH   5  21
TORSDOF 5
ENDMDL
MODEL 2
REMARK VINA RESULT:      -8.7      4.432      8.227
REMARK  5 active torsions:
REMARK  status: ('A' for Active; 'I' for Inactive)
REMARK    1  A    between atoms: C2_2  and  C3_3 
REMARK    2  A    between atoms: C3_3  and  C4_4 
REMARK    3  A    between atoms: C5_5  and  C6_6 
REMARK    4  A    between atoms: C8_8  and  C9_9 
REMARK    5  A    between atoms: N2_20  and  C17_21 
ROOT
HETATM    1  C6  UNL     1      23.974   2.759  50.722  1.00  0.00     0.139 C 
HETATM    2  C7  UNL     1      24.438   3.278  49.352  1.00  0.00     0.093 C 
HETATM    3  C8  UNL     1      25.628   4.047  49.791  1.00  0.00     0.067 C 
HETATM    4  N1  UNL     1      26.013   3.558  50.904  1.00  0.00    -0.175 NA
HETATM    5  N2  UNL     1      25.226   2.492  51.346  1.00  0.00    -0.261 N 
ENDROOT
BRANCH   3   6
HETATM    6  C9  UNL     1      26.226   5.159  49.059  1.00  0.00    -0.007 A 
HETATM    7  C10 UNL     1      25.466   6.248  48.681  1.00  0.00     0.016 A 
HETATM    8  C11 UNL     1      26.068   7.282  47.988  1.00  0.00     0.040 A 
HETATM    9  C12 UNL     1      27.393   7.223  47.687  1.00  0.00     0.102 A 
HETATM   10  C13 UNL     1      28.196   6.157  48.043  1.00  0.00     0.103 A 
HETATM   11  O2  UNL     1      27.975   8.278  46.989  1.00  0.00    -0.346 OA
HETATM   12  C14 UNL     1      27.563   5.152  48.727  1.00  0.00     0.053 A 
HETATM   13  O1  UNL     1      29.542   6.154  47.705  1.00  0.00    -0.346 OA
HETATM   14  C15 UNL     1      30.138   7.393  47.373  1.00  0.00     0.202 C 
HETATM   15  C16 UNL     1      29.233   8.063  46.349  1.00  0.00     0.202 C 
ENDBRANCH   3   6
BRANCH   1  16
HETATM   16  C5  UNL     1      23.061   1.638  50.556  1.00  0.00    -0.003 C 
HETATM   17  C4  UNL     1      22.261   1.080  51.424  1.00  0.00    -0.025 C 
BRANCH  17  18
HETATM   18  C3  UNL     1      22.123   1.506  52.818  1.00  0.00     0.053 C 
BRANCH  18  19
HETATM   19  C2  UNL     1      22.226   0.359  53.789  1.00  0.00    -0.033 C 
HETATM   20  C1  UNL     1      22.901  -0.765  53.563  1.00  0.00     0.007 C 
ENDBRANCH  18  19
ENDBRANCH  17  18
ENDBRANCH   1  16
BRANCH   5  21
HETATM   21  C17 UNL     1      25.726   1.485  52.203  1.00  0.00     0.053 A 
HETATM   22  C18 UNL     1      26.218   0.274  51.771  1.00  0.00     0.031 A 
HETATM   23  C19 UNL     1      26.715  -0.733  52.572  1.00  0.00     0.002 A 
HETATM   24  C20 UNL     1      26.732  -0.535  53.937  1.00  0.00     0.000 A 
HETATM   25  C21 UNL     1      26.250   0.661  54.425  1.00  0.00     0.002 A 
HETATM   26  C22 UNL     1      25.766   1.628  53.574  1.00  0.00     0.031 A 
ENDBRANCH   5  21
TORSDOF 5
ENDMDL
MODEL 3
REMARK VINA RESULT:      -8.6      4.331      8.049
REMARK  5 active torsions:
REMARK  status: ('A' for Active; 'I' for Inactive)
REMARK    1  A    between atoms: C2_2  and  C3_3 
REMARK    2  A    between atoms: C3_3  and  C4_4 
REMARK    3  A    between atoms: C5_5  and  C6_6 
REMARK    4  A    between atoms: C8_8  and  C9_9 
REMARK    5  A    between atoms: N2_20  and  C17_21 
ROOT
HETATM    1  C6  UNL     1      24.144   2.782  50.687  1.00  0.00     0.139 C 
HETATM    2  C7  UNL     1      24.637   3.299  49.327  1.00  0.00     0.093 C 
HETATM    3  C8  UNL     1      25.853   4.017  49.784  1.00  0.00     0.067 C 
HETATM    4  N1  UNL     1      26.211   3.499  50.893  1.00  0.00    -0.175 NA
HETATM    5  N2  UNL     1      25.380   2.459  51.317  1.00  0.00    -0.261 N 
ENDROOT
BRANCH   3   6
HETATM    6  C9  UNL     1      26.499   5.113  49.069  1.00  0.00    -0.007 A 
HETATM    7  C10 UNL     1      27.826   5.029  48.695  1.00  0.00     0.016 A 
HETATM    8  C11 UNL     1      28.403   6.089  48.020  1.00  0.00     0.040 A 
HETATM    9  C12 UNL     1      27.669   7.196  47.729  1.00  0.00     0.102 A 
HETATM   10  C13 UNL     1      26.340   7.328  48.081  1.00  0.00     0.103 A 
HETATM   11  O2  UNL     1      28.275   8.249  47.048  1.00  0.00    -0.346 OA
HETATM   12  C14 UNL     1      25.804   6.258  48.749  1.00  0.00     0.053 A 
HETATM   13  O1  UNL     1      25.644   8.485  47.758  1.00  0.00    -0.346 OA
HETATM   14  C15 UNL     1      26.180   9.309  46.741  1.00  0.00     0.202 C 
HETATM   15  C16 UNL     1      27.648   9.531  47.075  1.00  0.00     0.202 C 
ENDBRANCH   3   6
BRANCH   1  16
HETATM   16  C5  UNL     1      23.190   1.699  50.502  1.00  0.00    -0.003 C 
HETATM   17  C4  UNL     1      22.365   1.160  51.359  1.00  0.00    -0.025 C 
BRANCH  17  18
HETATM   18  C3  UNL     1      22.238   1.570  52.758  1.00  0.00     0.053 C 
BRANCH  18  19
HETATM   19  C2  UNL     1      22.412   0.422  53.718  1.00  0.00    -0.033 C 
HETATM   20  C1  UNL     1      22.848  -0.788  53.379  1.00  0.00     0.007 C 
ENDBRANCH  18  19
ENDBRANCH  17  18
ENDBRANCH   1  16
BRANCH   5  21
HETATM   21  C17 UNL     1      25.835   1.423  52.165  1.00  0.00     0.053 A 
HETATM   22  C18 UNL     1      25.830   1.491  53.541  1.00  0.00     0.031 A 
HETATM   23  C19 UNL     1      26.262   0.505  54.403  1.00  0.00     0.002 A 
HETATM   24  C20 UNL     1      26.750  -0.668  53.865  1.00  0.00     0.000 A 
HETATM   25  C21 UNL     1      26.779  -0.789  52.491  1.00  0.00     0.002 A 
HETATM   26  C22 UNL     1      26.332   0.232  51.682  1.00  0.00     0.031 A 
ENDBRANCH   5  21
TORSDOF 5
ENDMDL
MODEL 4
REMARK VINA RESULT:      -8.5      3.083      7.349
REMARK  5 active torsions:
REMARK  status: ('A' for Active; 'I' for Inactive)
REMARK    1  A    between atoms: C2_2  and  C3_3 
REMARK    2  A    between atoms: C3_3  and  C4_4 
REMARK    3  A    between atoms: C5_5  and  C6_6 
REMARK    4  A    between atoms: C8_8  and  C9_9 
REMARK    5  A    between atoms: N2_20  and  C17_21 
ROOT
HETATM    1  C6  UNL     1      25.993   0.749  52.920  1.00  0.00     0.139 C 
HETATM    2  C7  UNL     1      26.436   2.206  52.712  1.00  0.00     0.093 C 
HETATM    3  C8  UNL     1      25.482   2.581  51.639  1.00  0.00     0.067 C 
HETATM    4  N1  UNL     1      24.477   1.800  51.727  1.00  0.00    -0.175 NA
HETATM    5  N2  UNL     1      24.583   0.871  52.765  1.00  0.00    -0.261 N 
ENDROOT
BRANCH   3   6
HETATM    6  C9  UNL     1      25.685   3.656  50.673  1.00  0.00    -0.007 A 
HETATM    7  C10 UNL     1      26.767   3.640  49.815  1.00  0.00     0.016 A 
HETATM    8  C11 UNL     1      26.926   4.676  48.914  1.00  0.00     0.040 A 
HETATM    9  C12 UNL     1      26.025   5.695  48.876  1.00  0.00     0.102 A 
HETATM   10  C13 UNL     1      24.928   5.757  49.712  1.00  0.00     0.103 A 
HETATM   11  O2  UNL     1      26.209   6.726  47.958  1.00  0.00    -0.346 OA
HETATM   12  C14 UNL     1      24.805   4.713  50.592  1.00  0.00     0.053 A 
HETATM   13  O1  UNL     1      24.044   6.824  49.627  1.00  0.00    -0.346 OA
HETATM   14  C15 UNL     1      24.059   7.594  48.441  1.00  0.00     0.202 C 
HETATM   15  C16 UNL     1      25.512   7.954  48.162  1.00  0.00     0.202 C 
ENDBRANCH   3   6
BRANCH   1  16
HETATM   16  C5  UNL     1      26.480   0.250  54.198  1.00  0.00    -0.003 C 
HETATM   17  C4  UNL     1      27.705   0.030  54.594  1.00  0.00    -0.025 C 
BRANCH  17  18
HETATM   18  C3  UNL     1      28.895   0.258  53.774  1.00  0.00     0.053 C 
BRANCH  18  19
HETATM   19  C2  UNL     1      29.683  -1.003  53.530  1.00  0.00    -0.033 C 
HETATM   20  C1  UNL     1      29.146  -2.187  53.247  1.00  0.00     0.007 C 
ENDBRANCH  18  19
ENDBRANCH  17  18
ENDBRANCH   1  16
BRANCH   5  21
HETATM   21  C17 UNL     1      23.450   0.298  53.388  1.00  0.00     0.053 A 
HETATM   22  C18 UNL     1      23.491  -0.822  54.189  1.00  0.00     0.031 A 
HETATM   23  C19 UNL     1      22.412  -1.410  54.815  1.00  0.00     0.002 A 
HETATM   24  C20 UNL     1      21.165  -0.846  54.640  1.00  0.00     0.000 A 
HETATM   25  C21 UNL     1      21.067   0.277  53.845  1.00  0.00     0.002 A 
HETATM   26  C22 UNL     1      22.182   0.819  53.247  1.00  0.00     0.031 A 
ENDBRANCH   5  21
TORSDOF 5
ENDMDL
MODEL 5
REMARK VINA RESULT:      -8.5      3.681      8.237
REMARK  5 active torsions:
REMARK  status: ('A' for Active; 'I' for Inactive)
REMARK    1  A    between atoms: C2_2  and  C3_3 
REMARK    2  A    between atoms: C3_3  and  C4_4 
REMARK    3  A    between atoms: C5_5  and  C6_6 
REMARK    4  A    between atoms: C8_8  and  C9_9 
REMARK    5  A    between atoms: N2_20  and  C17_21 
ROOT
HETATM    1  C6  UNL     1      24.952   0.854  51.965  1.00  0.00     0.139 C 
HETATM    2  C7  UNL     1      25.703   2.189  52.087  1.00  0.00     0.093 C 
HETATM    3  C8  UNL     1      25.028   2.930  50.993  1.00  0.00     0.067 C 
HETATM    4  N1  UNL     1      23.887   2.390  50.809  1.00  0.00    -0.175 NA
HETATM    5  N2  UNL     1      23.638   1.311  51.661  1.00  0.00    -0.261 N 
ENDROOT
BRANCH   3   6
HETATM    6  C9  UNL     1      25.594   4.068  50.276  1.00  0.00    -0.007 A 
HETATM    7  C10 UNL     1      24.923   5.274  50.220  1.00  0.00     0.016 A 
HETATM    8  C11 UNL     1      25.491   6.329  49.531  1.00  0.00     0.040 A 
HETATM    9  C12 UNL     1      26.695   6.177  48.918  1.00  0.00     0.102 A 
HETATM   10  C13 UNL     1      27.406   4.993  48.944  1.00  0.00     0.103 A 
HETATM   11  O2  UNL     1      27.245   7.256  48.231  1.00  0.00    -0.346 OA
HETATM   12  C14 UNL     1      26.810   3.971  49.637  1.00  0.00     0.053 A 
HETATM   13  O1  UNL     1      28.630   4.899  48.298  1.00  0.00    -0.346 OA
HETATM   14  C15 UNL     1      29.299   6.104  47.983  1.00  0.00     0.202 C 
HETATM   15  C16 UNL     1      28.289   7.007  47.289  1.00  0.00     0.202 C 
ENDBRANCH   3   6
BRANCH   1  16
HETATM   16  C5  UNL     1      25.118   0.068  53.179  1.00  0.00    -0.003 C 
HETATM   17  C4  UNL     1      26.045  -0.798  53.490  1.00  0.00    -0.025 C 
BRANCH  17  18
HETATM   18  C3  UNL     1      27.164  -1.163  52.620  1.00  0.00     0.053 C 
BRANCH  18  19
HETATM   19  C2  UNL     1      28.500  -1.019  53.301  1.00  0.00    -0.033 C 
HETATM   20  C1  UNL     1      28.850   0.008  54.071  1.00  0.00     0.007 C 
ENDBRANCH  18  19
ENDBRANCH  17  18
ENDBRANCH   1  16
BRANCH   5  21
HETATM   21  C17 UNL     1      22.329   0.917  52.022  1.00  0.00     0.053 A 
HETATM   22  C18 UNL     1      21.904   0.741  53.320  1.00  0.00     0.031 A 
HETATM   23  C19 UNL     1      20.638   0.359  53.713  1.00  0.00     0.002 A 
HETATM   24  C20 UNL     1      19.691   0.125  52.737  1.00  0.00     0.000 A 
HETATM   25  C21 UNL     1      20.064   0.286  51.420  1.00  0.00     0.002 A 
HETATM   26  C22 UNL     1      21.345   0.670  51.089  1.00  0.00     0.031 A 
ENDBRANCH   5  21
TORSDOF 5
ENDMDL
MODEL 6
REMARK VINA RESULT:      -8.4      2.922      6.121
REMARK  5 active torsions:
REMARK  status: ('A' for Active; 'I' for Inactive)
REMARK    1  A    between atoms: C2_2  and  C3_3 
REMARK    2  A    between atoms: C3_3  and  C4_4 
REMARK    3  A    between atoms: C5_5  and  C6_6 
REMARK    4  A    between atoms: C8_8  and  C9_9 
REMARK    5  A    between atoms: N2_20  and  C17_21 
ROOT
HETATM    1  C6  UNL     1      24.625   0.704  52.971  1.00  0.00     0.139 C 
HETATM    2  C7  UNL     1      24.110   1.437  51.722  1.00  0.00     0.093 C 
HETATM    3  C8  UNL     1      25.227   2.396  51.544  1.00  0.00     0.067 C 
HETATM    4  N1  UNL     1      26.257   1.897  52.109  1.00  0.00    -0.175 NA
HETATM    5  N2  UNL     1      26.021   0.651  52.695  1.00  0.00    -0.261 N 
ENDROOT
BRANCH   3   6
HETATM    6  C9  UNL     1      25.134   3.673  50.845  1.00  0.00    -0.007 A 
HETATM    7  C10 UNL     1      25.942   3.945  49.757  1.00  0.00     0.016 A 
HETATM    8  C11 UNL     1      25.824   5.167  49.121  1.00  0.00     0.040 A 
HETATM    9  C12 UNL     1      24.923   6.085  49.562  1.00  0.00     0.102 A 
HETATM   10  C13 UNL     1      24.094   5.861  50.643  1.00  0.00     0.103 A 
HETATM   11  O2  UNL     1      24.826   7.307  48.902  1.00  0.00    -0.346 OA
HETATM   12  C14 UNL     1      24.240   4.640  51.248  1.00  0.00     0.053 A 
HETATM   13  O1  UNL     1      23.195   6.838  51.048  1.00  0.00    -0.346 OA
HETATM   14  C15 UNL     1      22.868   7.853  50.118  1.00  0.00     0.202 C 
HETATM   15  C16 UNL     1      24.180   8.393  49.567  1.00  0.00     0.202 C 
ENDBRANCH   3   6
BRANCH   1  16
HETATM   16  C5  UNL     1      23.931  -0.565  53.136  1.00  0.00    -0.003 C 
HETATM   17  C4  UNL     1      22.725  -0.804  53.576  1.00  0.00    -0.025 C 
BRANCH  17  18
HETATM   18  C3  UNL     1      21.784   0.227  54.015  1.00  0.00     0.053 C 
BRANCH  18  19
HETATM   19  C2  UNL     1      20.495   0.206  53.235  1.00  0.00    -0.033 C 
HETATM   20  C1  UNL     1      20.397   0.439  51.929  1.00  0.00     0.007 C 
ENDBRANCH  18  19
ENDBRANCH  17  18
ENDBRANCH   1  16
BRANCH   5  21
HETATM   21  C17 UNL     1      27.047  -0.303  52.886  1.00  0.00     0.053 A 
HETATM   22  C18 UNL     1      26.927  -1.640  52.580  1.00  0.00     0.031 A 
HETATM   23  C19 UNL     1      27.902  -2.601  52.750  1.00  0.00     0.002 A 
HETATM   24  C20 UNL     1      29.119  -2.215  53.273  1.00  0.00     0.000 A 
HETATM   25  C21 UNL     1      29.293  -0.886  53.598  1.00  0.00     0.002 A 
HETATM   26  C22 UNL     1      28.280   0.027  53.405  1.00  0.00     0.031 A 
ENDBRANCH   5  21
TORSDOF 5
ENDMDL
MODEL 7
REMARK VINA RESULT:      -8.3      2.516      5.711
REMARK  5 active torsions:
REMARK  status: ('A' for Active; 'I' for Inactive)
REMARK    1  A    between atoms: C2_2  and  C3_3 
REMARK    2  A    between atoms: C3_3  and  C4_4 
REMARK    3  A    between atoms: C5_5  and  C6_6 
REMARK    4  A    between atoms: C8_8  and  C9_9 
REMARK    5  A    between atoms: N2_20  and  C17_21 
ROOT
HETATM    1  C6  UNL     1      23.892   0.842  53.018  1.00  0.00     0.139 C 
HETATM    2  C7  UNL     1      23.265   1.000  51.624  1.00  0.00     0.093 C 
HETATM    3  C8  UNL     1      24.109   2.111  51.119  1.00  0.00     0.067 C 
HETATM    4  N1  UNL     1      25.205   2.090  51.772  1.00  0.00    -0.175 NA
HETATM    5  N2  UNL     1      25.267   1.066  52.721  1.00  0.00    -0.261 N 
ENDROOT
BRANCH   3   6
HETATM    6  C9  UNL     1      23.726   3.044  50.065  1.00  0.00    -0.007 A 
HETATM    7  C10 UNL     1      24.161   4.355  50.087  1.00  0.00     0.016 A 
HETATM    8  C11 UNL     1      23.776   5.209  49.070  1.00  0.00     0.040 A 
HETATM    9  C12 UNL     1      22.981   4.759  48.063  1.00  0.00     0.102 A 
HETATM   10  C13 UNL     1      22.520   3.459  47.995  1.00  0.00     0.103 A 
HETATM   11  O2  UNL     1      22.609   5.641  47.051  1.00  0.00    -0.346 OA
HETATM   12  C14 UNL     1      22.922   2.643  49.020  1.00  0.00     0.053 A 
HETATM   13  O1  UNL     1      21.709   3.060  46.942  1.00  0.00    -0.346 OA
HETATM   14  C15 UNL     1      21.709   3.860  45.775  1.00  0.00     0.202 C 
HETATM   15  C16 UNL     1      21.498   5.300  46.222  1.00  0.00     0.202 C 
ENDBRANCH   3   6
BRANCH   1  16
HETATM   16  C5  UNL     1      23.538  -0.448  53.590  1.00  0.00    -0.003 C 
HETATM   17  C4  UNL     1      22.447  -0.814  54.209  1.00  0.00    -0.025 C 
BRANCH  17  18
HETATM   18  C3  UNL     1      21.303   0.063  54.459  1.00  0.00     0.053 C 
BRANCH  18  19
HETATM   19  C2  UNL     1      20.275   0.004  53.359  1.00  0.00    -0.033 C 
HETATM   20  C1  UNL     1      19.205  -0.786  53.365  1.00  0.00     0.007 C 
ENDBRANCH  18  19
ENDBRANCH  17  18
ENDBRANCH   1  16
BRANCH   5  21
HETATM   21  C17 UNL     1      26.492   0.513  53.159  1.00  0.00     0.053 A 
HETATM   22  C18 UNL     1      27.047  -0.640  52.649  1.00  0.00     0.031 A 
HETATM   23  C19 UNL     1      28.238  -1.211  53.046  1.00  0.00     0.002 A 
HETATM   24  C20 UNL     1      28.960  -0.592  54.045  1.00  0.00     0.000 A 
HETATM   25  C21 UNL     1      28.450   0.566  54.593  1.00  0.00     0.002 A 
HETATM   26  C22 UNL     1      27.254   1.088  54.153  1.00  0.00     0.031 A 
ENDBRANCH   5  21
TORSDOF 5
ENDMDL
MODEL 8
REMARK VINA RESULT:      -8.2      1.696      2.714
REMARK  5 active torsions:
REMARK  status: ('A' for Active; 'I' for Inactive)
REMARK    1  A    between atoms: C2_2  and  C3_3 
REMARK    2  A    between atoms: C3_3  and  C4_4 
REMARK    3  A    between atoms: C5_5  and  C6_6 
REMARK    4  A    between atoms: C8_8  and  C9_9 
REMARK    5  A    between atoms: N2_20  and  C17_21 
ROOT
HETATM    1  C6  UNL     1      23.181   2.007  51.709  1.00  0.00     0.139 C 
HETATM    2  C7  UNL     1      21.783   2.087  52.341  1.00  0.00     0.093 C 
HETATM    3  C8  UNL     1      21.488   0.636  52.426  1.00  0.00     0.067 C 
HETATM    4  N1  UNL     1      22.604   0.017  52.440  1.00  0.00    -0.175 NA
HETATM    5  N2  UNL     1      23.712   0.866  52.373  1.00  0.00    -0.261 N 
ENDROOT
BRANCH   3   6
HETATM    6  C9  UNL     1      20.152   0.052  52.483  1.00  0.00    -0.007 A 
HETATM    7  C10 UNL     1      19.803  -0.820  53.496  1.00  0.00     0.016 A 
HETATM    8  C11 UNL     1      18.528  -1.353  53.515  1.00  0.00     0.040 A 
HETATM    9  C12 UNL     1      17.632  -1.019  52.547  1.00  0.00     0.102 A 
HETATM   10  C13 UNL     1      17.932  -0.153  51.515  1.00  0.00     0.103 A 
HETATM   11  O2  UNL     1      16.354  -1.571  52.591  1.00  0.00    -0.346 OA
HETATM   12  C14 UNL     1      19.205   0.354  51.529  1.00  0.00     0.053 A 
HETATM   13  O1  UNL     1      16.975   0.148  50.555  1.00  0.00    -0.346 OA
HETATM   14  C15 UNL     1      15.622  -0.110  50.877  1.00  0.00     0.202 C 
HETATM   15  C16 UNL     1      15.553  -1.535  51.410  1.00  0.00     0.202 C 
ENDBRANCH   3   6
BRANCH   1  16
HETATM   16  C5  UNL     1      23.889   3.267  51.884  1.00  0.00    -0.003 C 
HETATM   17  C4  UNL     1      24.708   3.882  51.074  1.00  0.00    -0.025 C 
BRANCH  17  18
HETATM   18  C3  UNL     1      25.094   3.386  49.752  1.00  0.00     0.053 C 
BRANCH  18  19
HETATM   19  C2  UNL     1      26.586   3.392  49.542  1.00  0.00    -0.033 C 
HETATM   20  C1  UNL     1      27.261   4.370  48.944  1.00  0.00     0.007 C 
ENDBRANCH  18  19
ENDBRANCH  17  18
ENDBRANCH   1  16
BRANCH   5  21
HETATM   21  C17 UNL     1      24.976   0.504  52.895  1.00  0.00     0.053 A 
HETATM   22  C18 UNL     1      26.078   0.214  52.122  1.00  0.00     0.031 A 
HETATM   23  C19 UNL     1      27.326  -0.141  52.591  1.00  0.00     0.002 A 
HETATM   24  C20 UNL     1      27.515  -0.220  53.955  1.00  0.00     0.000 A 
HETATM   25  C21 UNL     1      26.444   0.060  54.776  1.00  0.00     0.002 A 
HETATM   26  C22 UNL     1      25.221   0.410  54.248  1.00  0.00     0.031 A 
ENDBRANCH   5  21
TORSDOF 5
ENDMDL
MODEL 9
REMARK VINA RESULT:      -8.1      3.360      6.925
REMARK  5 active torsions:
REMARK  status: ('A' for Active; 'I' for Inactive)
REMARK    1  A    between atoms: C2_2  and  C3_3 
REMARK    2  A    between atoms: C3_3  and  C4_4 
REMARK    3  A    between atoms: C5_5  and  C6_6 
REMARK    4  A    between atoms: C8_8  and  C9_9 
REMARK    5  A    between atoms: N2_20  and  C17_21 
ROOT
HETATM    1  C6  UNL     1      24.701   2.065  51.745  1.00  0.00     0.139 C 
HETATM    2  C7  UNL     1      24.310   3.349  50.997  1.00  0.00     0.093 C 
HETATM    3  C8  UNL     1      23.291   2.778  50.083  1.00  0.00     0.067 C 
HETATM    4  N1  UNL     1      22.847   1.709  50.620  1.00  0.00    -0.175 NA
HETATM    5  N2  UNL     1      23.436   1.421  51.854  1.00  0.00    -0.261 N 
ENDROOT
BRANCH   3   6
HETATM    6  C9  UNL     1      22.890   3.357  48.805  1.00  0.00    -0.007 A 
HETATM    7  C10 UNL     1      22.350   2.568  47.808  1.00  0.00     0.016 A 
HETATM    8  C11 UNL     1      21.982   3.154  46.612  1.00  0.00     0.040 A 
HETATM    9  C12 UNL     1      22.151   4.491  46.423  1.00  0.00     0.102 A 
HETATM   10  C13 UNL     1      22.686   5.322  47.387  1.00  0.00     0.103 A 
HETATM   11  O2  UNL     1      21.771   5.055  45.208  1.00  0.00    -0.346 OA
HETATM   12  C14 UNL     1      23.038   4.705  48.560  1.00  0.00     0.053 A 
HETATM   13  O1  UNL     1      22.835   6.679  47.136  1.00  0.00    -0.346 OA
HETATM   14  C15 UNL     1      22.077   7.236  46.079  1.00  0.00     0.202 C 
HETATM   15  C16 UNL     1      22.282   6.343  44.864  1.00  0.00     0.202 C 
ENDBRANCH   3   6
BRANCH   1  16
HETATM   16  C5  UNL     1      25.390   2.390  52.985  1.00  0.00    -0.003 C 
HETATM   17  C4  UNL     1      26.535   1.957  53.441  1.00  0.00    -0.025 C 
BRANCH  17  18
HETATM   18  C3  UNL     1      27.395   1.000  52.744  1.00  0.00     0.053 C 
BRANCH  18  19
HETATM   19  C2  UNL     1      27.232  -0.407  53.257  1.00  0.00    -0.033 C 
HETATM   20  C1  UNL     1      26.774  -1.426  52.535  1.00  0.00     0.007 C 
ENDBRANCH  18  19
ENDBRANCH  17  18
ENDBRANCH   1  16
BRANCH   5  21
HETATM   21  C17 UNL     1      22.779   0.658  52.847  1.00  0.00     0.053 A 
HETATM   22  C18 UNL     1      21.495   0.896  53.283  1.00  0.00     0.031 A 
HETATM   23  C19 UNL     1      20.819   0.177  54.246  1.00  0.00     0.002 A 
HETATM   24  C20 UNL     1      21.465  -0.885  54.845  1.00  0.00     0.000 A 
HETATM   25  C21 UNL     1      22.755  -1.168  54.446  1.00  0.00     0.002 A 
HETATM   26  C22 UNL     1      23.377  -0.412  53.478  1.00  0.00     0.031 A 
ENDBRANCH   5  21
TORSDOF 5
ENDMDL
