MODEL 1
REMARK VINA RESULT:      -7.7      0.000      0.000
REMARK  5 active torsions:
REMARK  status: ('A' for Active; 'I' for Inactive)
REMARK    1  A    between atoms: C2_2  and  C3_3 
REMARK    2  A    between atoms: C3_3  and  N1_4 
REMARK    3  A    between atoms: N1_4  and  C4_5 
REMARK    4  A    between atoms: C11_14  and  N4_15 
REMARK    5  A    between atoms: C14_18  and  O1_19 
ROOT
HETATM    1  C4  UNL     1      22.602   1.737  50.346  1.00  0.00     0.029 A 
HETATM    2  C5  UNL     1      21.295   1.292  50.397  1.00  0.00     0.031 A 
HETATM    3  C6  UNL     1      20.850   0.460  51.420  1.00  0.00     0.035 A 
HETATM    4  C7  UNL     1      21.727   0.062  52.416  1.00  0.00     0.069 A 
HETATM    5  N2  UNL     1      21.299  -0.735  53.396  1.00  0.00    -0.259 NA
HETATM    6  C8  UNL     1      22.160  -1.122  54.368  1.00  0.00     0.142 A 
HETATM    7  C9  UNL     1      23.475  -0.696  54.348  1.00  0.00     0.089 A 
HETATM    8  C10 UNL     1      24.435  -1.084  55.368  1.00  0.00     0.103 C 
HETATM    9  N3  UNL     1      25.193  -1.408  56.188  1.00  0.00    -0.191 NA
HETATM   10  C11 UNL     1      23.959   0.123  53.362  1.00  0.00     0.069 A 
HETATM   11  C17 UNL     1      23.054   0.502  52.381  1.00  0.00     0.023 A 
HETATM   12  C18 UNL     1      23.457   1.326  51.350  1.00  0.00     0.045 A 
ENDROOT
BRANCH  10  13
HETATM   13  N4  UNL     1      25.292   0.611  53.259  1.00  0.00    -0.351 N 
HETATM   14  C12 UNL     1      25.529   1.918  53.776  1.00  0.00     0.094 A 
HETATM   15  C13 UNL     1      26.786   2.355  53.668  1.00  0.00     0.053 A 
HETATM   16  C14 UNL     1      27.864   1.574  53.069  1.00  0.00     0.064 A 
HETATM   17  C15 UNL     1      27.612   0.352  52.593  1.00  0.00     0.029 A 
HETATM   18  C16 UNL     1      26.272  -0.274  52.637  1.00  0.00     0.158 A 
BRANCH  16  19
HETATM   19  O1  UNL     1      29.130   2.131  53.012  1.00  0.00    -0.361 OA
HETATM   20  H12 UNL     1      29.615   2.191  52.136  1.00  0.00     0.217 HD
ENDBRANCH  16  19
ENDBRANCH  10  13
BRANCH   1  21
HETATM   21  N1  UNL     1      23.072   2.597  49.292  1.00  0.00    -0.390 N 
HETATM   22  H6  UNL     1      22.857   2.305  48.315  1.00  0.00     0.159 HD
BRANCH  21  23
HETATM   23  C3  UNL     1      23.807   3.800  49.652  1.00  0.00     0.124 C 
BRANCH  23  24
HETATM   24  C2  UNL     1      25.230   3.530  49.320  1.00  0.00     0.009 C 
HETATM   25  C1  UNL     1      26.394   3.213  49.876  1.00  0.00     0.007 C 
ENDBRANCH  23  24
ENDBRANCH  21  23
ENDBRANCH   1  21
TORSDOF 5
ENDMDL
MODEL 2
REMARK VINA RESULT:      -7.5      2.642      5.479
REMARK  5 active torsions:
REMARK  status: ('A' for Active; 'I' for Inactive)
REMARK    1  A    between atoms: C2_2  and  C3_3 
REMARK    2  A    between atoms: C3_3  and  N1_4 
REMARK    3  A    between atoms: N1_4  and  C4_5 
REMARK    4  A    between atoms: C11_14  and  N4_15 
REMARK    5  A    between atoms: C14_18  and  O1_19 
ROOT
HETATM    1  C4  UNL     1      21.323  -0.259  54.159  1.00  0.00     0.029 A 
HETATM    2  C5  UNL     1      21.843  -1.278  54.935  1.00  0.00     0.031 A 
HETATM    3  C6  UNL     1      23.215  -1.487  55.036  1.00  0.00     0.035 A 
HETATM    4  C7  UNL     1      24.090  -0.661  54.348  1.00  0.00     0.069 A 
HETATM    5  N2  UNL     1      25.405  -0.862  54.446  1.00  0.00    -0.259 NA
HETATM    6  C8  UNL     1      26.257  -0.052  53.773  1.00  0.00     0.142 A 
HETATM    7  C9  UNL     1      25.772   0.977  52.988  1.00  0.00     0.089 A 
HETATM    8  C10 UNL     1      26.646   1.871  52.247  1.00  0.00     0.103 C 
HETATM    9  N3  UNL     1      27.359   2.574  51.656  1.00  0.00    -0.191 NA
HETATM   10  C11 UNL     1      24.430   1.221  52.857  1.00  0.00     0.069 A 
HETATM   11  C17 UNL     1      23.582   0.375  53.559  1.00  0.00     0.023 A 
HETATM   12  C18 UNL     1      22.216   0.550  53.484  1.00  0.00     0.045 A 
ENDROOT
BRANCH  10  13
HETATM   13  N4  UNL     1      23.840   2.253  52.076  1.00  0.00    -0.351 N 
HETATM   14  C12 UNL     1      23.721   3.529  52.698  1.00  0.00     0.094 A 
HETATM   15  C13 UNL     1      23.164   4.481  51.946  1.00  0.00     0.053 A 
HETATM   16  C14 UNL     1      22.699   4.263  50.580  1.00  0.00     0.064 A 
HETATM   17  C15 UNL     1      22.822   3.055  50.022  1.00  0.00     0.029 A 
HETATM   18  C16 UNL     1      23.417   1.897  50.725  1.00  0.00     0.158 A 
BRANCH  16  19
HETATM   19  O1  UNL     1      22.137   5.326  49.896  1.00  0.00    -0.361 OA
HETATM   20  H12 UNL     1      21.495   5.941  50.360  1.00  0.00     0.217 HD
ENDBRANCH  16  19
ENDBRANCH  10  13
BRANCH   1  21
HETATM   21  N1  UNL     1      19.905  -0.035  54.049  1.00  0.00    -0.390 N 
HETATM   22  H6  UNL     1      19.419   0.331  54.896  1.00  0.00     0.159 HD
BRANCH  21  23
HETATM   23  C3  UNL     1      19.251  -0.331  52.784  1.00  0.00     0.124 C 
BRANCH  23  24
HETATM   24  C2  UNL     1      18.133  -1.256  53.103  1.00  0.00     0.009 C 
HETATM   25  C1  UNL     1      17.875  -2.440  53.647  1.00  0.00     0.007 C 
ENDBRANCH  23  24
ENDBRANCH  21  23
ENDBRANCH   1  21
TORSDOF 5
ENDMDL
MODEL 3
REMARK VINA RESULT:      -7.4      2.252      5.109
REMARK  5 active torsions:
REMARK  status: ('A' for Active; 'I' for Inactive)
REMARK    1  A    between atoms: C2_2  and  C3_3 
REMARK    2  A    between atoms: C3_3  and  N1_4 
REMARK    3  A    between atoms: N1_4  and  C4_5 
REMARK    4  A    between atoms: C11_14  and  N4_15 
REMARK    5  A    between atoms: C14_18  and  O1_19 
ROOT
HETATM    1  C4  UNL     1      26.350   1.107  54.112  1.00  0.00     0.029 A 
HETATM    2  C5  UNL     1      26.029  -0.126  54.648  1.00  0.00     0.031 A 
HETATM    3  C6  UNL     1      24.821  -0.752  54.356  1.00  0.00     0.035 A 
HETATM    4  C7  UNL     1      23.912  -0.136  53.511  1.00  0.00     0.069 A 
HETATM    5  N2  UNL     1      22.754  -0.739  53.232  1.00  0.00    -0.259 NA
HETATM    6  C8  UNL     1      21.868  -0.133  52.405  1.00  0.00     0.142 A 
HETATM    7  C9  UNL     1      22.157   1.099  51.850  1.00  0.00     0.089 A 
HETATM    8  C10 UNL     1      21.240   1.787  50.958  1.00  0.00     0.103 C 
HETATM    9  N3  UNL     1      20.492   2.327  50.249  1.00  0.00    -0.191 NA
HETATM   10  C11 UNL     1      23.333   1.755  52.108  1.00  0.00     0.069 A 
HETATM   11  C17 UNL     1      24.220   1.110  52.959  1.00  0.00     0.023 A 
HETATM   12  C18 UNL     1      25.428   1.699  53.272  1.00  0.00     0.045 A 
ENDROOT
BRANCH  10  13
HETATM   13  N4  UNL     1      23.716   3.021  51.585  1.00  0.00    -0.351 N 
HETATM   14  C12 UNL     1      23.295   4.165  52.323  1.00  0.00     0.094 A 
HETATM   15  C13 UNL     1      23.666   5.342  51.813  1.00  0.00     0.053 A 
HETATM   16  C14 UNL     1      24.448   5.481  50.588  1.00  0.00     0.064 A 
HETATM   17  C15 UNL     1      24.828   4.391  49.916  1.00  0.00     0.029 A 
HETATM   18  C16 UNL     1      24.496   3.016  50.351  1.00  0.00     0.158 A 
BRANCH  16  19
HETATM   19  O1  UNL     1      24.774   6.754  50.154  1.00  0.00    -0.361 OA
HETATM   20  H12 UNL     1      25.735   7.016  50.036  1.00  0.00     0.217 HD
ENDBRANCH  16  19
ENDBRANCH  10  13
BRANCH   1  21
HETATM   21  N1  UNL     1      27.597   1.763  54.407  1.00  0.00    -0.390 N 
HETATM   22  H6  UNL     1      27.655   2.279  55.311  1.00  0.00     0.159 HD
BRANCH  21  23
HETATM   23  C3  UNL     1      28.680   1.666  53.440  1.00  0.00     0.124 C 
BRANCH  23  24
HETATM   24  C2  UNL     1      29.488   0.486  53.842  1.00  0.00     0.009 C 
HETATM   25  C1  UNL     1      29.718  -0.784  53.527  1.00  0.00     0.007 C 
ENDBRANCH  23  24
ENDBRANCH  21  23
ENDBRANCH   1  21
TORSDOF 5
ENDMDL
MODEL 4
REMARK VINA RESULT:      -7.4      2.098      3.375
REMARK  5 active torsions:
REMARK  status: ('A' for Active; 'I' for Inactive)
REMARK    1  A    between atoms: C2_2  and  C3_3 
REMARK    2  A    between atoms: C3_3  and  N1_4 
REMARK    3  A    between atoms: N1_4  and  C4_5 
REMARK    4  A    between atoms: C11_14  and  N4_15 
REMARK    5  A    between atoms: C14_18  and  O1_19 
ROOT
HETATM    1  C4  UNL     1      25.950   3.788  49.844  1.00  0.00     0.029 A 
HETATM    2  C5  UNL     1      24.806   4.249  49.220  1.00  0.00     0.031 A 
HETATM    3  C6  UNL     1      23.549   3.749  49.547  1.00  0.00     0.035 A 
HETATM    4  C7  UNL     1      23.429   2.767  50.517  1.00  0.00     0.069 A 
HETATM    5  N2  UNL     1      22.222   2.290  50.830  1.00  0.00    -0.259 NA
HETATM    6  C8  UNL     1      22.110   1.330  51.779  1.00  0.00     0.142 A 
HETATM    7  C9  UNL     1      23.232   0.847  52.424  1.00  0.00     0.089 A 
HETATM    8  C10 UNL     1      23.161  -0.182  53.448  1.00  0.00     0.103 C 
HETATM    9  N3  UNL     1      23.088  -1.009  54.263  1.00  0.00    -0.191 NA
HETATM   10  C11 UNL     1      24.491   1.307  52.136  1.00  0.00     0.069 A 
HETATM   11  C17 UNL     1      24.575   2.289  51.159  1.00  0.00     0.023 A 
HETATM   12  C18 UNL     1      25.803   2.810  50.808  1.00  0.00     0.045 A 
ENDROOT
BRANCH  10  13
HETATM   13  N4  UNL     1      25.700   0.871  52.744  1.00  0.00    -0.351 N 
HETATM   14  C12 UNL     1      26.328  -0.267  52.161  1.00  0.00     0.094 A 
HETATM   15  C13 UNL     1      27.461  -0.659  52.749  1.00  0.00     0.053 A 
HETATM   16  C14 UNL     1      28.042   0.011  53.909  1.00  0.00     0.064 A 
HETATM   17  C15 UNL     1      27.431   1.076  54.435  1.00  0.00     0.029 A 
HETATM   18  C16 UNL     1      26.169   1.631  53.899  1.00  0.00     0.158 A 
BRANCH  16  19
HETATM   19  O1  UNL     1      29.222  -0.485  54.435  1.00  0.00    -0.361 OA
HETATM   20  H12 UNL     1      29.414  -0.396  55.416  1.00  0.00     0.217 HD
ENDBRANCH  16  19
ENDBRANCH  10  13
BRANCH   1  21
HETATM   21  N1  UNL     1      27.255   4.299  49.513  1.00  0.00    -0.390 N 
HETATM   22  H6  UNL     1      28.071   3.837  49.970  1.00  0.00     0.159 HD
BRANCH  21  23
HETATM   23  C3  UNL     1      27.350   5.409  48.578  1.00  0.00     0.124 C 
BRANCH  23  24
HETATM   24  C2  UNL     1      28.797   5.577  48.282  1.00  0.00     0.009 C 
HETATM   25  C1  UNL     1      29.669   6.440  47.773  1.00  0.00     0.007 C 
ENDBRANCH  23  24
ENDBRANCH  21  23
ENDBRANCH   1  21
TORSDOF 5
ENDMDL
MODEL 5
REMARK VINA RESULT:      -7.3      2.792      4.777
REMARK  5 active torsions:
REMARK  status: ('A' for Active; 'I' for Inactive)
REMARK    1  A    between atoms: C2_2  and  C3_3 
REMARK    2  A    between atoms: C3_3  and  N1_4 
REMARK    3  A    between atoms: N1_4  and  C4_5 
REMARK    4  A    between atoms: C11_14  and  N4_15 
REMARK    5  A    between atoms: C14_18  and  O1_19 
ROOT
HETATM    1  C4  UNL     1      25.260   2.783  50.567  1.00  0.00     0.029 A 
HETATM    2  C5  UNL     1      26.534   2.445  50.982  1.00  0.00     0.031 A 
HETATM    3  C6  UNL     1      26.746   1.493  51.975  1.00  0.00     0.035 A 
HETATM    4  C7  UNL     1      25.664   0.863  52.568  1.00  0.00     0.069 A 
HETATM    5  N2  UNL     1      25.869  -0.050  53.519  1.00  0.00    -0.259 NA
HETATM    6  C8  UNL     1      24.808  -0.664  54.096  1.00  0.00     0.142 A 
HETATM    7  C9  UNL     1      23.520  -0.351  53.705  1.00  0.00     0.089 A 
HETATM    8  C10 UNL     1      22.351  -0.983  54.294  1.00  0.00     0.103 C 
HETATM    9  N3  UNL     1      21.426  -1.493  54.780  1.00  0.00    -0.191 NA
HETATM   10  C11 UNL     1      23.261   0.580  52.733  1.00  0.00     0.069 A 
HETATM   11  C17 UNL     1      24.368   1.191  52.161  1.00  0.00     0.023 A 
HETATM   12  C18 UNL     1      24.198   2.140  51.173  1.00  0.00     0.045 A 
ENDROOT
BRANCH  10  13
HETATM   13  N4  UNL     1      21.974   0.966  52.266  1.00  0.00    -0.351 N 
HETATM   14  C12 UNL     1      21.371   2.079  52.921  1.00  0.00     0.094 A 
HETATM   15  C13 UNL     1      20.164   2.423  52.467  1.00  0.00     0.053 A 
HETATM   16  C14 UNL     1      19.482   1.728  51.379  1.00  0.00     0.064 A 
HETATM   17  C15 UNL     1      20.071   0.687  50.784  1.00  0.00     0.029 A 
HETATM   18  C16 UNL     1      21.407   0.183  51.173  1.00  0.00     0.158 A 
BRANCH  16  19
HETATM   19  O1  UNL     1      18.230   2.174  50.993  1.00  0.00    -0.361 OA
HETATM   20  H12 UNL     1      17.698   1.659  50.315  1.00  0.00     0.217 HD
ENDBRANCH  16  19
ENDBRANCH  10  13
BRANCH   1  21
HETATM   21  N1  UNL     1      25.030   3.766  49.541  1.00  0.00    -0.390 N 
HETATM   22  H6  UNL     1      24.591   3.429  48.657  1.00  0.00     0.159 HD
BRANCH  21  23
HETATM   23  C3  UNL     1      25.419   5.144  49.798  1.00  0.00     0.124 C 
BRANCH  23  24
HETATM   24  C2  UNL     1      26.572   5.422  48.904  1.00  0.00     0.009 C 
HETATM   25  C1  UNL     1      27.773   4.964  48.569  1.00  0.00     0.007 C 
ENDBRANCH  23  24
ENDBRANCH  21  23
ENDBRANCH   1  21
TORSDOF 5
ENDMDL
MODEL 6
REMARK VINA RESULT:      -7.2      1.462      4.665
REMARK  5 active torsions:
REMARK  status: ('A' for Active; 'I' for Inactive)
REMARK    1  A    between atoms: C2_2  and  C3_3 
REMARK    2  A    between atoms: C3_3  and  N1_4 
REMARK    3  A    between atoms: N1_4  and  C4_5 
REMARK    4  A    between atoms: C11_14  and  N4_15 
REMARK    5  A    between atoms: C14_18  and  O1_19 
ROOT
HETATM    1  C4  UNL     1      21.520   0.110  52.406  1.00  0.00     0.029 A 
HETATM    2  C5  UNL     1      20.586   0.550  51.487  1.00  0.00     0.031 A 
HETATM    3  C6  UNL     1      20.925   1.446  50.478  1.00  0.00     0.035 A 
HETATM    4  C7  UNL     1      22.225   1.915  50.381  1.00  0.00     0.069 A 
HETATM    5  N2  UNL     1      22.549   2.774  49.412  1.00  0.00    -0.259 NA
HETATM    6  C8  UNL     1      23.821   3.230  49.322  1.00  0.00     0.142 A 
HETATM    7  C9  UNL     1      24.781   2.811  50.223  1.00  0.00     0.089 A 
HETATM    8  C10 UNL     1      26.158   3.272  50.166  1.00  0.00     0.103 C 
HETATM    9  N3  UNL     1      27.255   3.655  50.109  1.00  0.00    -0.191 NA
HETATM   10  C11 UNL     1      24.495   1.931  51.234  1.00  0.00     0.069 A 
HETATM   11  C17 UNL     1      23.184   1.482  51.301  1.00  0.00     0.023 A 
HETATM   12  C18 UNL     1      22.809   0.593  52.288  1.00  0.00     0.045 A 
ENDROOT
BRANCH  10  13
HETATM   13  N4  UNL     1      25.414   1.445  52.205  1.00  0.00    -0.351 N 
HETATM   14  C12 UNL     1      26.145   0.273  51.854  1.00  0.00     0.094 A 
HETATM   15  C13 UNL     1      27.001  -0.165  52.780  1.00  0.00     0.053 A 
HETATM   16  C14 UNL     1      27.198   0.488  54.071  1.00  0.00     0.064 A 
HETATM   17  C15 UNL     1      26.498   1.585  54.373  1.00  0.00     0.029 A 
HETATM   18  C16 UNL     1      25.511   2.193  53.454  1.00  0.00     0.158 A 
BRANCH  16  19
HETATM   19  O1  UNL     1      28.114  -0.057  54.954  1.00  0.00    -0.361 OA
HETATM   20  H12 UNL     1      28.217   0.327  55.874  1.00  0.00     0.217 HD
ENDBRANCH  16  19
ENDBRANCH  10  13
BRANCH   1  21
HETATM   21  N1  UNL     1      21.179  -0.816  53.454  1.00  0.00    -0.390 N 
HETATM   22  H6  UNL     1      20.734  -1.713  53.162  1.00  0.00     0.159 HD
BRANCH  21  23
HETATM   23  C3  UNL     1      21.473  -0.449  54.830  1.00  0.00     0.124 C 
BRANCH  23  24
HETATM   24  C2  UNL     1      22.632  -1.281  55.242  1.00  0.00     0.009 C 
HETATM   25  C1  UNL     1      23.958  -1.269  55.313  1.00  0.00     0.007 C 
ENDBRANCH  23  24
ENDBRANCH  21  23
ENDBRANCH   1  21
TORSDOF 5
ENDMDL
MODEL 7
REMARK VINA RESULT:      -7.2      2.764      4.948
REMARK  5 active torsions:
REMARK  status: ('A' for Active; 'I' for Inactive)
REMARK    1  A    between atoms: C2_2  and  C3_3 
REMARK    2  A    between atoms: C3_3  and  N1_4 
REMARK    3  A    between atoms: N1_4  and  C4_5 
REMARK    4  A    between atoms: C11_14  and  N4_15 
REMARK    5  A    between atoms: C14_18  and  O1_19 
ROOT
HETATM    1  C4  UNL     1      26.190   2.238  51.826  1.00  0.00     0.029 A 
HETATM    2  C5  UNL     1      26.944   1.452  52.678  1.00  0.00     0.031 A 
HETATM    3  C6  UNL     1      26.356   0.480  53.481  1.00  0.00     0.035 A 
HETATM    4  C7  UNL     1      24.986   0.284  53.435  1.00  0.00     0.069 A 
HETATM    5  N2  UNL     1      24.424  -0.650  54.205  1.00  0.00    -0.259 NA
HETATM    6  C8  UNL     1      23.083  -0.838  54.156  1.00  0.00     0.142 A 
HETATM    7  C9  UNL     1      22.298  -0.072  53.316  1.00  0.00     0.089 A 
HETATM    8  C10 UNL     1      20.857  -0.237  53.229  1.00  0.00     0.103 C 
HETATM    9  N3  UNL     1      19.704  -0.378  53.175  1.00  0.00    -0.191 NA
HETATM   10  C11 UNL     1      22.831   0.898  52.507  1.00  0.00     0.069 A 
HETATM   11  C17 UNL     1      24.206   1.068  52.579  1.00  0.00     0.023 A 
HETATM   12  C18 UNL     1      24.826   2.023  51.799  1.00  0.00     0.045 A 
ENDROOT
BRANCH  10  13
HETATM   13  N4  UNL     1      22.105   1.733  51.613  1.00  0.00    -0.351 N 
HETATM   14  C12 UNL     1      21.923   1.237  50.290  1.00  0.00     0.094 A 
HETATM   15  C13 UNL     1      21.240   2.037  49.468  1.00  0.00     0.053 A 
HETATM   16  C14 UNL     1      20.704   3.335  49.867  1.00  0.00     0.064 A 
HETATM   17  C15 UNL     1      20.890   3.776  51.114  1.00  0.00     0.029 A 
HETATM   18  C16 UNL     1      21.626   3.007  52.142  1.00  0.00     0.158 A 
BRANCH  16  19
HETATM   19  O1  UNL     1      20.011   4.080  48.928  1.00  0.00    -0.361 OA
HETATM   20  H12 UNL     1      19.535   3.622  48.173  1.00  0.00     0.217 HD
ENDBRANCH  16  19
ENDBRANCH  10  13
BRANCH   1  21
HETATM   21  N1  UNL     1      26.788   3.246  50.992  1.00  0.00    -0.390 N 
HETATM   22  H6  UNL     1      27.449   3.907  51.454  1.00  0.00     0.159 HD
BRANCH  21  23
HETATM   23  C3  UNL     1      26.438   3.279  49.580  1.00  0.00     0.124 C 
BRANCH  23  24
HETATM   24  C2  UNL     1      26.944   4.574  49.059  1.00  0.00     0.009 C 
HETATM   25  C1  UNL     1      28.009   5.134  48.496  1.00  0.00     0.007 C 
ENDBRANCH  23  24
ENDBRANCH  21  23
ENDBRANCH   1  21
TORSDOF 5
ENDMDL
MODEL 8
REMARK VINA RESULT:      -7.0      2.930      6.594
REMARK  5 active torsions:
REMARK  status: ('A' for Active; 'I' for Inactive)
REMARK    1  A    between atoms: C2_2  and  C3_3 
REMARK    2  A    between atoms: C3_3  and  N1_4 
REMARK    3  A    between atoms: N1_4  and  C4_5 
REMARK    4  A    between atoms: C11_14  and  N4_15 
REMARK    5  A    between atoms: C14_18  and  O1_19 
ROOT
HETATM    1  C4  UNL     1      24.706   0.232  53.123  1.00  0.00     0.029 A 
HETATM    2  C5  UNL     1      26.066   0.056  52.947  1.00  0.00     0.031 A 
HETATM    3  C6  UNL     1      26.797   0.865  52.083  1.00  0.00     0.035 A 
HETATM    4  C7  UNL     1      26.161   1.874  51.379  1.00  0.00     0.069 A 
HETATM    5  N2  UNL     1      26.864   2.650  50.552  1.00  0.00    -0.259 NA
HETATM    6  C8  UNL     1      26.236   3.635  49.865  1.00  0.00     0.142 A 
HETATM    7  C9  UNL     1      24.879   3.840  50.018  1.00  0.00     0.089 A 
HETATM    8  C10 UNL     1      24.163   4.884  49.303  1.00  0.00     0.103 C 
HETATM    9  N3  UNL     1      23.603   5.720  48.720  1.00  0.00    -0.191 NA
HETATM   10  C11 UNL     1      24.116   3.069  50.855  1.00  0.00     0.069 A 
HETATM   11  C17 UNL     1      24.786   2.068  51.545  1.00  0.00     0.023 A 
HETATM   12  C18 UNL     1      24.095   1.245  52.410  1.00  0.00     0.045 A 
ENDROOT
BRANCH  10  13
HETATM   13  N4  UNL     1      22.717   3.205  51.076  1.00  0.00    -0.351 N 
HETATM   14  C12 UNL     1      22.326   4.071  52.138  1.00  0.00     0.094 A 
HETATM   15  C13 UNL     1      21.009   4.183  52.327  1.00  0.00     0.053 A 
HETATM   16  C14 UNL     1      20.015   3.481  51.521  1.00  0.00     0.064 A 
HETATM   17  C15 UNL     1      20.411   2.675  50.532  1.00  0.00     0.029 A 
HETATM   18  C16 UNL     1      21.834   2.445  50.197  1.00  0.00     0.158 A 
BRANCH  16  19
HETATM   19  O1  UNL     1      18.675   3.674  51.809  1.00  0.00    -0.361 OA
HETATM   20  H12 UNL     1      18.251   3.193  52.580  1.00  0.00     0.217 HD
ENDBRANCH  16  19
ENDBRANCH  10  13
BRANCH   1  21
HETATM   21  N1  UNL     1      23.941  -0.600  54.014  1.00  0.00    -0.390 N 
HETATM   22  H6  UNL     1      24.324  -0.738  54.975  1.00  0.00     0.159 HD
BRANCH  21  23
HETATM   23  C3  UNL     1      22.703  -1.187  53.526  1.00  0.00     0.124 C 
BRANCH  23  24
HETATM   24  C2  UNL     1      21.615  -0.605  54.353  1.00  0.00     0.009 C 
HETATM   25  C1  UNL     1      20.783   0.429  54.413  1.00  0.00     0.007 C 
ENDBRANCH  23  24
ENDBRANCH  21  23
ENDBRANCH   1  21
TORSDOF 5
ENDMDL
MODEL 9
REMARK VINA RESULT:      -6.9      2.646      6.015
REMARK  5 active torsions:
REMARK  status: ('A' for Active; 'I' for Inactive)
REMARK    1  A    between atoms: C2_2  and  C3_3 
REMARK    2  A    between atoms: C3_3  and  N1_4 
REMARK    3  A    between atoms: N1_4  and  C4_5 
REMARK    4  A    between atoms: C11_14  and  N4_15 
REMARK    5  A    between atoms: C14_18  and  O1_19 
ROOT
HETATM    1  C4  UNL     1      26.387   1.767  53.137  1.00  0.00     0.029 A 
HETATM    2  C5  UNL     1      27.110   2.543  52.251  1.00  0.00     0.031 A 
HETATM    3  C6  UNL     1      26.554   2.992  51.058  1.00  0.00     0.035 A 
HETATM    4  C7  UNL     1      25.247   2.661  50.739  1.00  0.00     0.069 A 
HETATM    5  N2  UNL     1      24.715   3.094  49.594  1.00  0.00    -0.259 NA
HETATM    6  C8  UNL     1      23.436   2.768  49.286  1.00  0.00     0.142 A 
HETATM    7  C9  UNL     1      22.684   1.994  50.149  1.00  0.00     0.089 A 
HETATM    8  C10 UNL     1      21.309   1.619  49.863  1.00  0.00     0.103 C 
HETATM    9  N3  UNL     1      20.212   1.323  49.616  1.00  0.00    -0.191 NA
HETATM   10  C11 UNL     1      23.188   1.527  51.335  1.00  0.00     0.069 A 
HETATM   11  C17 UNL     1      24.500   1.878  51.623  1.00  0.00     0.023 A 
HETATM   12  C18 UNL     1      25.086   1.451  52.796  1.00  0.00     0.045 A 
ENDROOT
BRANCH  10  13
HETATM   13  N4  UNL     1      22.491   0.728  52.284  1.00  0.00    -0.351 N 
HETATM   14  C12 UNL     1      22.862  -0.647  52.346  1.00  0.00     0.094 A 
HETATM   15  C13 UNL     1      22.194  -1.378  53.242  1.00  0.00     0.053 A 
HETATM   16  C14 UNL     1      21.154  -0.837  54.112  1.00  0.00     0.064 A 
HETATM   17  C15 UNL     1      20.827   0.456  54.031  1.00  0.00     0.029 A 
HETATM   18  C16 UNL     1      21.473   1.396  53.088  1.00  0.00     0.158 A 
BRANCH  16  19
HETATM   19  O1  UNL     1      20.529  -1.691  55.004  1.00  0.00    -0.361 OA
HETATM   20  H12 UNL     1      20.441  -1.434  55.970  1.00  0.00     0.217 HD
ENDBRANCH  16  19
ENDBRANCH  10  13
BRANCH   1  21
HETATM   21  N1  UNL     1      26.954   1.297  54.375  1.00  0.00    -0.390 N 
HETATM   22  H6  UNL     1      27.001   1.982  55.160  1.00  0.00     0.159 HD
BRANCH  21  23
HETATM   23  C3  UNL     1      27.417  -0.079  54.449  1.00  0.00     0.124 C 
BRANCH  23  24
HETATM   24  C2  UNL     1      28.870  -0.044  54.139  1.00  0.00     0.009 C 
HETATM   25  C1  UNL     1      29.838  -0.752  53.570  1.00  0.00     0.007 C 
ENDBRANCH  23  24
ENDBRANCH  21  23
ENDBRANCH   1  21
TORSDOF 5
ENDMDL
