MODEL 1
REMARK VINA RESULT:      -7.5      0.000      0.000
REMARK  5 active torsions:
REMARK  status: ('A' for Active; 'I' for Inactive)
REMARK    1  A    between atoms: O1_2  and  C2_3 
REMARK    2  A    between atoms: C4_5  and  C5_6 
REMARK    3  A    between atoms: C5_6  and  N1_7 
REMARK    4  A    between atoms: N1_7  and  C6_8 
REMARK    5  A    between atoms: C14_19  and  O2_20 
ROOT
HETATM    1  C2  UNL     1      24.366   2.143  50.958  1.00  0.00     0.102 A 
HETATM    2  C3  UNL     1      25.204   1.680  51.859  1.00  0.00     0.054 A 
HETATM    3  C4  UNL     1      24.639   0.790  52.860  1.00  0.00     0.012 A 
HETATM    4  C11 UNL     1      23.236   0.406  52.902  1.00  0.00     0.083 A 
HETATM    5  N2  UNL     1      22.429  -0.295  53.566  1.00  0.00    -0.173 NA
HETATM    6  C12 UNL     1      22.619  -1.080  54.670  1.00  0.00     0.206 C 
HETATM    7  N3  UNL     1      22.759  -1.749  55.603  1.00  0.00    -0.170 NA
HETATM    8  C13 UNL     1      22.395   1.001  51.826  1.00  0.00     0.073 A 
HETATM    9  C14 UNL     1      22.946   1.822  50.912  1.00  0.00     0.103 A 
ENDROOT
BRANCH   3  10
HETATM   10  C5  UNL     1      25.290   0.233  53.824  1.00  0.00     0.102 C 
BRANCH  10  11
HETATM   11  N1  UNL     1      26.357  -0.310  54.561  1.00  0.00    -0.367 N 
HETATM   12  H6  UNL     1      26.226  -0.857  55.465  1.00  0.00     0.165 HD
BRANCH  11  13
HETATM   13  C6  UNL     1      27.752  -0.221  54.240  1.00  0.00     0.027 A 
HETATM   14  C7  UNL     1      28.058  -1.271  53.497  1.00  0.00     0.026 A 
HETATM   15  C8  UNL     1      29.481  -1.183  53.168  1.00  0.00    -0.001 A 
HETATM   16  C9  UNL     1      29.998  -0.078  53.724  1.00  0.00    -0.005 A 
HETATM   17  C10 UNL     1      28.935   0.644  54.466  1.00  0.00     0.130 A 
HETATM   18 BR1  UNL     1      28.595   2.357  53.631  1.00  0.00    -0.080 Br
ENDBRANCH  11  13
ENDBRANCH  10  11
ENDBRANCH   3  10
BRANCH   9  19
HETATM   19  O2  UNL     1      22.316   2.452  49.858  1.00  0.00    -0.353 OA
HETATM   20  C15 UNL     1      21.880   1.782  48.695  1.00  0.00     0.210 C 
ENDBRANCH   9  19
BRANCH   1  21
HETATM   21  O1  UNL     1      25.030   2.980  50.061  1.00  0.00    -0.353 OA
HETATM   22  C1  UNL     1      26.412   3.250  50.279  1.00  0.00     0.210 C 
ENDBRANCH   1  21
TORSDOF 5
ENDMDL
MODEL 2
REMARK VINA RESULT:      -7.0      2.274      3.472
REMARK  5 active torsions:
REMARK  status: ('A' for Active; 'I' for Inactive)
REMARK    1  A    between atoms: O1_2  and  C2_3 
REMARK    2  A    between atoms: C4_5  and  C5_6 
REMARK    3  A    between atoms: C5_6  and  N1_7 
REMARK    4  A    between atoms: N1_7  and  C6_8 
REMARK    5  A    between atoms: C14_19  and  O2_20 
ROOT
HETATM    1  C2  UNL     1      20.524   0.469  51.942  1.00  0.00     0.102 A 
HETATM    2  C3  UNL     1      21.795   0.777  51.809  1.00  0.00     0.054 A 
HETATM    3  C4  UNL     1      22.689   0.259  52.832  1.00  0.00     0.012 A 
HETATM    4  C11 UNL     1      22.248  -0.555  53.955  1.00  0.00     0.083 A 
HETATM    5  N2  UNL     1      22.692  -1.150  54.971  1.00  0.00    -0.173 NA
HETATM    6  C12 UNL     1      23.963  -1.259  55.464  1.00  0.00     0.206 C 
HETATM    7  N3  UNL     1      25.031  -1.364  55.896  1.00  0.00    -0.170 NA
HETATM    8  C13 UNL     1      20.784  -0.830  53.988  1.00  0.00     0.073 A 
HETATM    9  C14 UNL     1      19.981  -0.337  53.026  1.00  0.00     0.103 A 
ENDROOT
BRANCH   3  10
HETATM   10  C5  UNL     1      23.963   0.448  52.882  1.00  0.00     0.102 C 
BRANCH  10  11
HETATM   11  N1  UNL     1      25.201   1.104  53.002  1.00  0.00    -0.367 N 
HETATM   12  H6  UNL     1      25.326   2.151  52.856  1.00  0.00     0.165 HD
BRANCH  11  13
HETATM   13  C6  UNL     1      26.462   0.500  53.322  1.00  0.00     0.027 A 
HETATM   14  C7  UNL     1      26.564  -0.610  52.611  1.00  0.00     0.026 A 
HETATM   15  C8  UNL     1      27.850  -1.229  52.936  1.00  0.00    -0.001 A 
HETATM   16  C9  UNL     1      28.491  -0.473  53.838  1.00  0.00    -0.005 A 
HETATM   17  C10 UNL     1      27.659   0.709  54.172  1.00  0.00     0.130 A 
HETATM   18 BR1  UNL     1      28.542   2.326  53.578  1.00  0.00    -0.080 Br
ENDBRANCH  11  13
ENDBRANCH  10  11
ENDBRANCH   3  10
BRANCH   9  19
HETATM   19  O2  UNL     1      18.615  -0.497  52.907  1.00  0.00    -0.353 OA
HETATM   20  C15 UNL     1      17.917  -1.631  53.372  1.00  0.00     0.210 C 
ENDBRANCH   9  19
BRANCH   1  21
HETATM   21  O1  UNL     1      19.778   1.023  50.901  1.00  0.00    -0.353 OA
HETATM   22  C1  UNL     1      20.390   1.152  49.620  1.00  0.00     0.210 C 
ENDBRANCH   1  21
TORSDOF 5
ENDMDL
MODEL 3
REMARK VINA RESULT:      -6.9      3.496      5.907
REMARK  5 active torsions:
REMARK  status: ('A' for Active; 'I' for Inactive)
REMARK    1  A    between atoms: O1_2  and  C2_3 
REMARK    2  A    between atoms: C4_5  and  C5_6 
REMARK    3  A    between atoms: C5_6  and  N1_7 
REMARK    4  A    between atoms: N1_7  and  C6_8 
REMARK    5  A    between atoms: C14_19  and  O2_20 
ROOT
HETATM    1  C2  UNL     1      26.360   0.912  54.018  1.00  0.00     0.102 A 
HETATM    2  C3  UNL     1      26.492   1.936  53.205  1.00  0.00     0.054 A 
HETATM    3  C4  UNL     1      25.429   2.118  52.230  1.00  0.00     0.012 A 
HETATM    4  C11 UNL     1      24.271   1.245  52.122  1.00  0.00     0.083 A 
HETATM    5  N2  UNL     1      23.215   1.091  51.456  1.00  0.00    -0.173 NA
HETATM    6  C12 UNL     1      22.694   1.814  50.419  1.00  0.00     0.206 C 
HETATM    7  N3  UNL     1      22.237   2.415  49.542  1.00  0.00    -0.170 NA
HETATM    8  C13 UNL     1      24.245   0.122  53.102  1.00  0.00     0.073 A 
HETATM    9  C14 UNL     1      25.243  -0.021  53.994  1.00  0.00     0.103 A 
ENDROOT
BRANCH   3  10
HETATM   10  C5  UNL     1      25.372   3.057  51.347  1.00  0.00     0.102 C 
BRANCH  10  11
HETATM   11  N1  UNL     1      25.097   4.302  50.754  1.00  0.00    -0.367 N 
HETATM   12  H6  UNL     1      24.189   4.836  50.908  1.00  0.00     0.165 HD
BRANCH  11  13
HETATM   13  C6  UNL     1      25.954   5.036  49.870  1.00  0.00     0.027 A 
HETATM   14  C7  UNL     1      26.870   4.198  49.415  1.00  0.00     0.026 A 
HETATM   15  C8  UNL     1      27.746   4.945  48.513  1.00  0.00    -0.001 A 
HETATM   16  C9  UNL     1      27.335   6.218  48.446  1.00  0.00    -0.005 A 
HETATM   17  C10 UNL     1      26.144   6.398  49.313  1.00  0.00     0.130 A 
HETATM   18 BR1  UNL     1      24.598   6.825  48.230  1.00  0.00    -0.080 Br
ENDBRANCH  11  13
ENDBRANCH  10  11
ENDBRANCH   3  10
BRANCH   9  19
HETATM   19  O2  UNL     1      25.372  -0.996  54.963  1.00  0.00    -0.353 OA
HETATM   20  C15 UNL     1      24.327  -1.379  55.830  1.00  0.00     0.210 C 
ENDBRANCH   9  19
BRANCH   1  21
HETATM   21  O1  UNL     1      27.440   0.850  54.900  1.00  0.00    -0.353 OA
HETATM   22  C1  UNL     1      28.685   0.355  54.416  1.00  0.00     0.210 C 
ENDBRANCH   1  21
TORSDOF 5
ENDMDL
MODEL 4
REMARK VINA RESULT:      -6.8      3.490      6.819
REMARK  5 active torsions:
REMARK  status: ('A' for Active; 'I' for Inactive)
REMARK    1  A    between atoms: O1_2  and  C2_3 
REMARK    2  A    between atoms: C4_5  and  C5_6 
REMARK    3  A    between atoms: C5_6  and  N1_7 
REMARK    4  A    between atoms: N1_7  and  C6_8 
REMARK    5  A    between atoms: C14_19  and  O2_20 
ROOT
HETATM    1  C2  UNL     1      25.897  -0.301  53.997  1.00  0.00     0.102 A 
HETATM    2  C3  UNL     1      24.861   0.433  53.657  1.00  0.00     0.054 A 
HETATM    3  C4  UNL     1      25.100   1.447  52.644  1.00  0.00     0.012 A 
HETATM    4  C11 UNL     1      26.393   1.673  52.015  1.00  0.00     0.083 A 
HETATM    5  N2  UNL     1      26.953   2.402  51.156  1.00  0.00    -0.173 NA
HETATM    6  C12 UNL     1      26.461   3.413  50.378  1.00  0.00     0.206 C 
HETATM    7  N3  UNL     1      26.063   4.270  49.710  1.00  0.00    -0.170 NA
HETATM    8  C13 UNL     1      27.482   0.775  52.490  1.00  0.00     0.073 A 
HETATM    9  C14 UNL     1      27.231  -0.156  53.430  1.00  0.00     0.103 A 
ENDROOT
BRANCH   3  10
HETATM   10  C5  UNL     1      24.220   2.265  52.176  1.00  0.00     0.102 C 
BRANCH  10  11
HETATM   11  N1  UNL     1      23.119   2.753  51.451  1.00  0.00    -0.367 N 
HETATM   12  H6  UNL     1      22.431   3.466  51.839  1.00  0.00     0.165 HD
BRANCH  11  13
HETATM   13  C6  UNL     1      22.742   2.384  50.117  1.00  0.00     0.027 A 
HETATM   14  C7  UNL     1      21.834   1.428  50.209  1.00  0.00     0.026 A 
HETATM   15  C8  UNL     1      21.448   1.049  48.850  1.00  0.00    -0.001 A 
HETATM   16  C9  UNL     1      22.136   1.790  47.970  1.00  0.00    -0.005 A 
HETATM   17  C10 UNL     1      23.033   2.718  48.701  1.00  0.00     0.130 A 
HETATM   18 BR1  UNL     1      22.485   4.548  48.392  1.00  0.00    -0.080 Br
ENDBRANCH  11  13
ENDBRANCH  10  11
ENDBRANCH   3  10
BRANCH   9  19
HETATM   19  O2  UNL     1      28.118  -1.061  53.976  1.00  0.00    -0.353 OA
HETATM   20  C15 UNL     1      29.396  -1.324  53.440  1.00  0.00     0.210 C 
ENDBRANCH   9  19
BRANCH   1  21
HETATM   21  O1  UNL     1      25.536  -1.232  54.972  1.00  0.00    -0.353 OA
HETATM   22  C1  UNL     1      24.204  -1.203  55.478  1.00  0.00     0.210 C 
ENDBRANCH   1  21
TORSDOF 5
ENDMDL
MODEL 5
REMARK VINA RESULT:      -6.8      3.482      6.883
REMARK  5 active torsions:
REMARK  status: ('A' for Active; 'I' for Inactive)
REMARK    1  A    between atoms: O1_2  and  C2_3 
REMARK    2  A    between atoms: C4_5  and  C5_6 
REMARK    3  A    between atoms: C5_6  and  N1_7 
REMARK    4  A    between atoms: N1_7  and  C6_8 
REMARK    5  A    between atoms: C14_19  and  O2_20 
ROOT
HETATM    1  C2  UNL     1      26.133  -0.034  54.280  1.00  0.00     0.102 A 
HETATM    2  C3  UNL     1      25.042   0.541  53.826  1.00  0.00     0.054 A 
HETATM    3  C4  UNL     1      25.221   1.476  52.728  1.00  0.00     0.012 A 
HETATM    4  C11 UNL     1      26.513   1.790  52.136  1.00  0.00     0.083 A 
HETATM    5  N2  UNL     1      27.034   2.496  51.234  1.00  0.00    -0.173 NA
HETATM    6  C12 UNL     1      26.476   3.365  50.338  1.00  0.00     0.206 C 
HETATM    7  N3  UNL     1      26.022   4.104  49.572  1.00  0.00    -0.170 NA
HETATM    8  C13 UNL     1      27.668   1.072  52.744  1.00  0.00     0.073 A 
HETATM    9  C14 UNL     1      27.471   0.211  53.760  1.00  0.00     0.103 A 
ENDROOT
BRANCH   3  10
HETATM   10  C5  UNL     1      24.282   2.140  52.144  1.00  0.00     0.102 C 
BRANCH  10  11
HETATM   11  N1  UNL     1      23.004   2.645  51.851  1.00  0.00    -0.367 N 
HETATM   12  H6  UNL     1      22.798   3.682  51.725  1.00  0.00     0.165 HD
BRANCH  11  13
HETATM   13  C6  UNL     1      21.800   1.884  51.683  1.00  0.00     0.027 A 
HETATM   14  C7  UNL     1      21.784   1.434  50.440  1.00  0.00     0.026 A 
HETATM   15  C8  UNL     1      20.557   0.656  50.265  1.00  0.00    -0.001 A 
HETATM   16  C9  UNL     1      19.862   0.658  51.411  1.00  0.00    -0.005 A 
HETATM   17  C10 UNL     1      20.596   1.448  52.431  1.00  0.00     0.130 A 
HETATM   18 BR1  UNL     1      21.171   0.292  53.873  1.00  0.00    -0.080 Br
ENDBRANCH  11  13
ENDBRANCH  10  11
ENDBRANCH   3  10
BRANCH   9  19
HETATM   19  O2  UNL     1      28.422  -0.531  54.430  1.00  0.00    -0.353 OA
HETATM   20  C15 UNL     1      29.662  -0.904  53.869  1.00  0.00     0.210 C 
ENDBRANCH   9  19
BRANCH   1  21
HETATM   21  O1  UNL     1      25.825  -0.904  55.326  1.00  0.00    -0.353 OA
HETATM   22  C1  UNL     1      24.461  -1.262  55.533  1.00  0.00     0.210 C 
ENDBRANCH   1  21
TORSDOF 5
ENDMDL
MODEL 6
REMARK VINA RESULT:      -6.8      2.299      5.785
REMARK  5 active torsions:
REMARK  status: ('A' for Active; 'I' for Inactive)
REMARK    1  A    between atoms: O1_2  and  C2_3 
REMARK    2  A    between atoms: C4_5  and  C5_6 
REMARK    3  A    between atoms: C5_6  and  N1_7 
REMARK    4  A    between atoms: N1_7  and  C6_8 
REMARK    5  A    between atoms: C14_19  and  O2_20 
ROOT
HETATM    1  C2  UNL     1      26.744   1.670  52.329  1.00  0.00     0.102 A 
HETATM    2  C3  UNL     1      25.440   1.686  52.169  1.00  0.00     0.054 A 
HETATM    3  C4  UNL     1      24.679   0.807  53.042  1.00  0.00     0.012 A 
HETATM    4  C11 UNL     1      25.282  -0.056  54.046  1.00  0.00     0.083 A 
HETATM    5  N2  UNL     1      24.976  -0.897  54.931  1.00  0.00    -0.173 NA
HETATM    6  C12 UNL     1      23.760  -1.379  55.329  1.00  0.00     0.206 C 
HETATM    7  N3  UNL     1      22.740  -1.797  55.681  1.00  0.00    -0.170 NA
HETATM    8  C13 UNL     1      26.768   0.021  54.122  1.00  0.00     0.073 A 
HETATM    9  C14 UNL     1      27.446   0.845  53.301  1.00  0.00     0.103 A 
ENDROOT
BRANCH   3  10
HETATM   10  C5  UNL     1      23.396   0.676  53.044  1.00  0.00     0.102 C 
BRANCH  10  11
HETATM   11  N1  UNL     1      22.071   0.616  52.580  1.00  0.00    -0.367 N 
HETATM   12  H6  UNL     1      21.246   0.344  53.196  1.00  0.00     0.165 HD
BRANCH  11  13
HETATM   13  C6  UNL     1      21.617   0.894  51.248  1.00  0.00     0.027 A 
HETATM   14  C7  UNL     1      20.329   0.600  51.197  1.00  0.00     0.026 A 
HETATM   15  C8  UNL     1      19.863   0.882  49.839  1.00  0.00    -0.001 A 
HETATM   16  C9  UNL     1      20.885   1.341  49.104  1.00  0.00    -0.005 A 
HETATM   17  C10 UNL     1      22.110   1.391  49.941  1.00  0.00     0.130 A 
HETATM   18 BR1  UNL     1      22.676   3.228  50.172  1.00  0.00    -0.080 Br
ENDBRANCH  11  13
ENDBRANCH  10  11
ENDBRANCH   3  10
BRANCH   9  19
HETATM   19  O2  UNL     1      28.812   1.037  53.242  1.00  0.00    -0.353 OA
HETATM   20  C15 UNL     1      29.755   0.072  53.654  1.00  0.00     0.210 C 
ENDBRANCH   9  19
BRANCH   1  21
HETATM   21  O1  UNL     1      27.353   2.553  51.436  1.00  0.00    -0.353 OA
HETATM   22  C1  UNL     1      26.538   3.216  50.473  1.00  0.00     0.210 C 
ENDBRANCH   1  21
TORSDOF 5
ENDMDL
MODEL 7
REMARK VINA RESULT:      -6.7      3.051      6.212
REMARK  5 active torsions:
REMARK  status: ('A' for Active; 'I' for Inactive)
REMARK    1  A    between atoms: O1_2  and  C2_3 
REMARK    2  A    between atoms: C4_5  and  C5_6 
REMARK    3  A    between atoms: C5_6  and  N1_7 
REMARK    4  A    between atoms: N1_7  and  C6_8 
REMARK    5  A    between atoms: C14_19  and  O2_20 
ROOT
HETATM    1  C2  UNL     1      26.505   1.644  52.196  1.00  0.00     0.102 A 
HETATM    2  C3  UNL     1      25.215   1.670  51.945  1.00  0.00     0.054 A 
HETATM    3  C4  UNL     1      24.384   0.815  52.776  1.00  0.00     0.012 A 
HETATM    4  C11 UNL     1      24.905  -0.038  53.834  1.00  0.00     0.083 A 
HETATM    5  N2  UNL     1      24.528  -0.860  54.709  1.00  0.00    -0.173 NA
HETATM    6  C12 UNL     1      23.281  -1.321  55.028  1.00  0.00     0.206 C 
HETATM    7  N3  UNL     1      22.234  -1.723  55.314  1.00  0.00    -0.170 NA
HETATM    8  C13 UNL     1      26.383   0.025  54.013  1.00  0.00     0.073 A 
HETATM    9  C14 UNL     1      27.127   0.828  53.229  1.00  0.00     0.103 A 
ENDROOT
BRANCH   3  10
HETATM   10  C5  UNL     1      23.103   0.698  52.690  1.00  0.00     0.102 C 
BRANCH  10  11
HETATM   11  N1  UNL     1      21.825   0.112  52.672  1.00  0.00    -0.367 N 
HETATM   12  H6  UNL     1      21.555  -0.724  53.272  1.00  0.00     0.165 HD
BRANCH  11  13
HETATM   13  C6  UNL     1      20.709   0.520  51.869  1.00  0.00     0.027 A 
HETATM   14  C7  UNL     1      21.130   0.611  50.618  1.00  0.00     0.026 A 
HETATM   15  C8  UNL     1      19.993   1.027  49.796  1.00  0.00    -0.001 A 
HETATM   16  C9  UNL     1      18.913   1.176  50.575  1.00  0.00    -0.005 A 
HETATM   17  C10 UNL     1      19.271   0.865  51.981  1.00  0.00     0.130 A 
HETATM   18 BR1  UNL     1      18.319  -0.714  52.570  1.00  0.00    -0.080 Br
ENDBRANCH  11  13
ENDBRANCH  10  11
ENDBRANCH   3  10
BRANCH   9  19
HETATM   19  O2  UNL     1      28.495   1.004  53.262  1.00  0.00    -0.353 OA
HETATM   20  C15 UNL     1      29.373   0.174  53.992  1.00  0.00     0.210 C 
ENDBRANCH   9  19
BRANCH   1  21
HETATM   21  O1  UNL     1      27.185   2.505  51.334  1.00  0.00    -0.353 OA
HETATM   22  C1  UNL     1      26.435   3.221  50.357  1.00  0.00     0.210 C 
ENDBRANCH   1  21
TORSDOF 5
ENDMDL
MODEL 8
REMARK VINA RESULT:      -6.5      2.913      5.750
REMARK  5 active torsions:
REMARK  status: ('A' for Active; 'I' for Inactive)
REMARK    1  A    between atoms: O1_2  and  C2_3 
REMARK    2  A    between atoms: C4_5  and  C5_6 
REMARK    3  A    between atoms: C5_6  and  N1_7 
REMARK    4  A    between atoms: N1_7  and  C6_8 
REMARK    5  A    between atoms: C14_19  and  O2_20 
ROOT
HETATM    1  C2  UNL     1      27.631   0.897  53.223  1.00  0.00     0.102 A 
HETATM    2  C3  UNL     1      26.762   1.810  52.850  1.00  0.00     0.054 A 
HETATM    3  C4  UNL     1      25.367   1.402  52.851  1.00  0.00     0.012 A 
HETATM    4  C11 UNL     1      24.912   0.074  53.233  1.00  0.00     0.083 A 
HETATM    5  N2  UNL     1      23.861  -0.608  53.355  1.00  0.00    -0.173 NA
HETATM    6  C12 UNL     1      22.551  -0.284  53.135  1.00  0.00     0.206 C 
HETATM    7  N3  UNL     1      21.437  -0.029  52.956  1.00  0.00    -0.170 NA
HETATM    8  C13 UNL     1      25.998  -0.865  53.632  1.00  0.00     0.073 A 
HETATM    9  C14 UNL     1      27.282  -0.459  53.623  1.00  0.00     0.103 A 
ENDROOT
BRANCH   3  10
HETATM   10  C5  UNL     1      24.366   2.145  52.520  1.00  0.00     0.102 C 
BRANCH  10  11
HETATM   11  N1  UNL     1      23.536   2.986  51.758  1.00  0.00    -0.367 N 
HETATM   12  H6  UNL     1      22.499   2.798  51.600  1.00  0.00     0.165 HD
BRANCH  11  13
HETATM   13  C6  UNL     1      23.924   4.190  51.084  1.00  0.00     0.027 A 
HETATM   14  C7  UNL     1      23.657   5.203  51.891  1.00  0.00     0.026 A 
HETATM   15  C8  UNL     1      24.052   6.433  51.206  1.00  0.00    -0.001 A 
HETATM   16  C9  UNL     1      24.549   6.130  49.999  1.00  0.00    -0.005 A 
HETATM   17  C10 UNL     1      24.514   4.659  49.806  1.00  0.00     0.130 A 
HETATM   18 BR1  UNL     1      26.316   3.965  49.686  1.00  0.00    -0.080 Br
ENDBRANCH  11  13
ENDBRANCH  10  11
ENDBRANCH   3  10
BRANCH   9  19
HETATM   19  O2  UNL     1      28.399  -1.194  53.962  1.00  0.00    -0.353 OA
HETATM   20  C15 UNL     1      29.041  -2.092  53.082  1.00  0.00     0.210 C 
ENDBRANCH   9  19
BRANCH   1  21
HETATM   21  O1  UNL     1      28.927   1.413  53.180  1.00  0.00    -0.353 OA
HETATM   22  C1  UNL     1      29.420   2.108  54.322  1.00  0.00     0.210 C 
ENDBRANCH   1  21
TORSDOF 5
ENDMDL
MODEL 9
REMARK VINA RESULT:      -6.4      3.216      6.034
REMARK  5 active torsions:
REMARK  status: ('A' for Active; 'I' for Inactive)
REMARK    1  A    between atoms: O1_2  and  C2_3 
REMARK    2  A    between atoms: C4_5  and  C5_6 
REMARK    3  A    between atoms: C5_6  and  N1_7 
REMARK    4  A    between atoms: N1_7  and  C6_8 
REMARK    5  A    between atoms: C14_19  and  O2_20 
ROOT
HETATM    1  C2  UNL     1      26.451   1.497  53.937  1.00  0.00     0.102 A 
HETATM    2  C3  UNL     1      25.586   2.399  53.531  1.00  0.00     0.054 A 
HETATM    3  C4  UNL     1      24.304   1.893  53.069  1.00  0.00     0.012 A 
HETATM    4  C11 UNL     1      23.955   0.481  53.040  1.00  0.00     0.083 A 
HETATM    5  N2  UNL     1      23.010  -0.291  52.732  1.00  0.00    -0.173 NA
HETATM    6  C12 UNL     1      21.765  -0.031  52.232  1.00  0.00     0.206 C 
HETATM    7  N3  UNL     1      20.706   0.169  51.809  1.00  0.00    -0.170 NA
HETATM    8  C13 UNL     1      25.025  -0.435  53.525  1.00  0.00     0.073 A 
HETATM    9  C14 UNL     1      26.202   0.063  53.948  1.00  0.00     0.103 A 
ENDROOT
BRANCH   3  10
HETATM   10  C5  UNL     1      23.326   2.611  52.632  1.00  0.00     0.102 C 
BRANCH  10  11
HETATM   11  N1  UNL     1      22.312   3.094  51.786  1.00  0.00    -0.367 N 
HETATM   12  H6  UNL     1      21.298   3.205  52.091  1.00  0.00     0.165 HD
BRANCH  11  13
HETATM   13  C6  UNL     1      22.460   3.499  50.419  1.00  0.00     0.027 A 
HETATM   14  C7  UNL     1      23.599   4.165  50.321  1.00  0.00     0.026 A 
HETATM   15  C8  UNL     1      23.752   4.580  48.927  1.00  0.00    -0.001 A 
HETATM   16  C9  UNL     1      22.699   4.152  48.217  1.00  0.00    -0.005 A 
HETATM   17  C10 UNL     1      21.768   3.417  49.109  1.00  0.00     0.130 A 
HETATM   18 BR1  UNL     1      21.687   1.555  48.588  1.00  0.00    -0.080 Br
ENDBRANCH  11  13
ENDBRANCH  10  11
ENDBRANCH   3  10
BRANCH   9  19
HETATM   19  O2  UNL     1      27.290  -0.640  54.426  1.00  0.00    -0.353 OA
HETATM   20  C15 UNL     1      28.335  -1.117  53.606  1.00  0.00     0.210 C 
ENDBRANCH   9  19
BRANCH   1  21
HETATM   21  O1  UNL     1      27.634   2.110  54.353  1.00  0.00    -0.353 OA
HETATM   22  C1  UNL     1      28.579   2.506  53.362  1.00  0.00     0.210 C 
ENDBRANCH   1  21
TORSDOF 5
ENDMDL
