MODEL 1
REMARK VINA RESULT:      -8.4      0.000      0.000
REMARK  9 active torsions:
REMARK  status: ('A' for Active; 'I' for Inactive)
REMARK    1  A    between atoms: O1_2  and  C2_3 
REMARK    2  A    between atoms: C6_9  and  N3_10 
REMARK    3  A    between atoms: N3_10  and  C7_11 
REMARK    4  A    between atoms: C12_17  and  O2_18 
REMARK    5  A    between atoms: C16_22  and  C17_23 
REMARK    6  A    between atoms: C17_23  and  C18_24 
REMARK    7  A    between atoms: C18_24  and  C19_25 
REMARK    8  A    between atoms: C19_25  and  S1_26 
REMARK    9  A    between atoms: S1_26  and  C20_27 
ROOT
HETATM    1  C2  UNL     1      19.440  -0.046  52.249  1.00  0.00     0.076 A 
HETATM    2  C3  UNL     1      19.864  -0.632  53.425  1.00  0.00     0.070 A 
HETATM    3  C4  UNL     1      21.187  -0.688  53.776  1.00  0.00     0.074 A 
HETATM    4  N1  UNL     1      21.516  -1.293  54.955  1.00  0.00    -0.241 NA
HETATM    5  C5  UNL     1      22.818  -1.373  55.332  1.00  0.00     0.236 A 
HETATM    6  N2  UNL     1      23.746  -0.862  54.549  1.00  0.00    -0.224 NA
HETATM    7  C6  UNL     1      23.470  -0.268  53.399  1.00  0.00     0.141 A 
HETATM    8  C14 UNL     1      22.164  -0.166  52.979  1.00  0.00     0.039 A 
HETATM    9  C15 UNL     1      21.721   0.412  51.816  1.00  0.00     0.027 A 
HETATM   10  C16 UNL     1      20.410   0.498  51.411  1.00  0.00    -0.023 A 
ENDROOT
BRANCH   7  11
HETATM   11  N3  UNL     1      24.470   0.275  52.555  1.00  0.00    -0.343 N 
HETATM   12  H6  UNL     1      24.281   0.759  51.679  1.00  0.00     0.167 HD
BRANCH  11  13
HETATM   13  C7  UNL     1      25.910   0.304  52.696  1.00  0.00     0.017 C 
HETATM   14  C8  UNL     1      26.486  -0.891  52.889  1.00  0.00     0.027 C 
HETATM   15  C9  UNL     1      27.889  -1.323  53.079  1.00  0.00     0.026 C 
HETATM   16  C10 UNL     1      28.814  -0.489  53.582  1.00  0.00     0.036 C 
HETATM   17 CL1  UNL     1      30.406  -1.205  53.721  1.00  0.00    -0.084 Cl
HETATM   18  C11 UNL     1      28.686   0.915  54.027  1.00  0.00     0.056 C 
HETATM   19  C12 UNL     1      27.719   1.659  53.540  1.00  0.00     0.050 C 
HETATM   20  C13 UNL     1      26.576   1.625  52.605  1.00  0.00     0.121 C 
BRANCH  19  21
HETATM   21  O2  UNL     1      27.860   2.924  54.147  1.00  0.00    -0.365 OA
HETATM   22  H10 UNL     1      28.642   2.986  54.815  1.00  0.00     0.217 HD
ENDBRANCH  19  21
ENDBRANCH  11  13
ENDBRANCH   7  11
BRANCH  10  23
HETATM   23  C17 UNL     1      20.020   1.127  50.143  1.00  0.00     0.053 C 
BRANCH  23  24
HETATM   24  C18 UNL     1      20.142   2.637  50.127  1.00  0.00     0.098 C 
BRANCH  24  25
HETATM   25  C19 UNL     1      18.905   3.189  50.597  1.00  0.00    -0.105 C 
BRANCH  25  26
HETATM   26  S1  UNL     1      17.805   3.681  51.038  1.00  0.00    -0.023 SA
BRANCH  26  27
HETATM   27  C20 UNL     1      16.502   4.241  51.564  1.00  0.00     0.316 C 
HETATM   28  O3  UNL     1      16.319   4.399  52.772  1.00  0.00    -0.294 OA
ENDBRANCH  26  27
ENDBRANCH  25  26
ENDBRANCH  24  25
ENDBRANCH  23  24
ENDBRANCH  10  23
BRANCH   1  29
HETATM   29  O1  UNL     1      18.106   0.002  51.911  1.00  0.00    -0.355 OA
HETATM   30  C1  UNL     1      17.184  -0.936  52.468  1.00  0.00     0.210 C 
ENDBRANCH   1  29
TORSDOF 9
ENDMDL
MODEL 2
REMARK VINA RESULT:      -8.1      4.320      5.765
REMARK  9 active torsions:
REMARK  status: ('A' for Active; 'I' for Inactive)
REMARK    1  A    between atoms: O1_2  and  C2_3 
REMARK    2  A    between atoms: C6_9  and  N3_10 
REMARK    3  A    between atoms: N3_10  and  C7_11 
REMARK    4  A    between atoms: C12_17  and  O2_18 
REMARK    5  A    between atoms: C16_22  and  C17_23 
REMARK    6  A    between atoms: C17_23  and  C18_24 
REMARK    7  A    between atoms: C18_24  and  C19_25 
REMARK    8  A    between atoms: C19_25  and  S1_26 
REMARK    9  A    between atoms: S1_26  and  C20_27 
ROOT
HETATM    1  C2  UNL     1      23.525   0.049  53.465  1.00  0.00     0.076 A 
HETATM    2  C3  UNL     1      24.815   0.248  53.913  1.00  0.00     0.070 A 
HETATM    3  C4  UNL     1      25.719   1.007  53.219  1.00  0.00     0.074 A 
HETATM    4  N1  UNL     1      26.976   1.144  53.734  1.00  0.00    -0.241 NA
HETATM    5  C5  UNL     1      27.900   1.886  53.069  1.00  0.00     0.236 A 
HETATM    6  N2  UNL     1      27.565   2.463  51.933  1.00  0.00    -0.224 NA
HETATM    7  C6  UNL     1      26.358   2.355  51.401  1.00  0.00     0.141 A 
HETATM    8  C14 UNL     1      25.392   1.613  52.040  1.00  0.00     0.039 A 
HETATM    9  C15 UNL     1      24.105   1.403  51.613  1.00  0.00     0.027 A 
HETATM   10  C16 UNL     1      23.156   0.652  52.266  1.00  0.00    -0.023 A 
ENDROOT
BRANCH   7  11
HETATM   11  N3  UNL     1      26.001   2.971  50.176  1.00  0.00    -0.343 N 
HETATM   12  H6  UNL     1      25.766   2.464  49.325  1.00  0.00     0.167 HD
BRANCH  11  13
HETATM   13  C7  UNL     1      25.871   4.369  49.826  1.00  0.00     0.017 C 
HETATM   14  C8  UNL     1      26.846   4.854  49.044  1.00  0.00     0.027 C 
HETATM   15  C9  UNL     1      27.111   6.187  48.458  1.00  0.00     0.026 C 
HETATM   16  C10 UNL     1      26.639   7.306  49.031  1.00  0.00     0.036 C 
HETATM   17 CL1  UNL     1      27.070   8.771  48.173  1.00  0.00    -0.084 Cl
HETATM   18  C11 UNL     1      25.826   7.478  50.254  1.00  0.00     0.056 C 
HETATM   19  C12 UNL     1      25.079   6.485  50.675  1.00  0.00     0.050 C 
HETATM   20  C13 UNL     1      24.692   5.095  50.354  1.00  0.00     0.121 C 
BRANCH  19  21
HETATM   21  O2  UNL     1      24.438   6.949  51.842  1.00  0.00    -0.365 OA
HETATM   22  H10 UNL     1      23.939   7.842  51.723  1.00  0.00     0.217 HD
ENDBRANCH  19  21
ENDBRANCH  11  13
ENDBRANCH   7  11
BRANCH  10  23
HETATM   23  C17 UNL     1      21.799   0.470  51.734  1.00  0.00     0.053 C 
BRANCH  23  24
HETATM   24  C18 UNL     1      20.739   1.309  52.417  1.00  0.00     0.098 C 
BRANCH  24  25
HETATM   25  C19 UNL     1      20.805   2.636  51.878  1.00  0.00    -0.105 C 
BRANCH  25  26
HETATM   26  S1  UNL     1      20.869   3.831  51.415  1.00  0.00    -0.023 SA
BRANCH  26  27
HETATM   27  C20 UNL     1      20.958   5.233  50.854  1.00  0.00     0.316 C 
HETATM   28  O3  UNL     1      21.592   6.113  51.437  1.00  0.00    -0.294 OA
ENDBRANCH  26  27
ENDBRANCH  25  26
ENDBRANCH  24  25
ENDBRANCH  23  24
ENDBRANCH  10  23
BRANCH   1  29
HETATM   29  O1  UNL     1      22.628  -0.719  54.175  1.00  0.00    -0.355 OA
HETATM   30  C1  UNL     1      23.023  -1.353  55.393  1.00  0.00     0.210 C 
ENDBRANCH   1  29
TORSDOF 9
ENDMDL
MODEL 3
REMARK VINA RESULT:      -8.1      1.989      2.386
REMARK  9 active torsions:
REMARK  status: ('A' for Active; 'I' for Inactive)
REMARK    1  A    between atoms: O1_2  and  C2_3 
REMARK    2  A    between atoms: C6_9  and  N3_10 
REMARK    3  A    between atoms: N3_10  and  C7_11 
REMARK    4  A    between atoms: C12_17  and  O2_18 
REMARK    5  A    between atoms: C16_22  and  C17_23 
REMARK    6  A    between atoms: C17_23  and  C18_24 
REMARK    7  A    between atoms: C18_24  and  C19_25 
REMARK    8  A    between atoms: C19_25  and  S1_26 
REMARK    9  A    between atoms: S1_26  and  C20_27 
ROOT
HETATM    1  C2  UNL     1      19.552   0.118  52.212  1.00  0.00     0.076 A 
HETATM    2  C3  UNL     1      19.948  -0.454  53.404  1.00  0.00     0.070 A 
HETATM    3  C4  UNL     1      21.267  -0.578  53.751  1.00  0.00     0.074 A 
HETATM    4  N1  UNL     1      21.567  -1.164  54.947  1.00  0.00    -0.241 NA
HETATM    5  C5  UNL     1      22.865  -1.309  55.321  1.00  0.00     0.236 A 
HETATM    6  N2  UNL     1      23.817  -0.879  54.518  1.00  0.00    -0.224 NA
HETATM    7  C6  UNL     1      23.569  -0.306  53.350  1.00  0.00     0.141 A 
HETATM    8  C14 UNL     1      22.268  -0.140  52.933  1.00  0.00     0.039 A 
HETATM    9  C15 UNL     1      21.853   0.426  51.754  1.00  0.00     0.027 A 
HETATM   10  C16 UNL     1      20.547   0.577  51.352  1.00  0.00    -0.023 A 
ENDROOT
BRANCH   7  11
HETATM   11  N3  UNL     1      24.594   0.149  52.485  1.00  0.00    -0.343 N 
HETATM   12  H6  UNL     1      24.433   0.529  51.554  1.00  0.00     0.167 HD
BRANCH  11  13
HETATM   13  C7  UNL     1      26.028   0.209  52.671  1.00  0.00     0.017 C 
HETATM   14  C8  UNL     1      26.622  -0.971  52.893  1.00  0.00     0.027 C 
HETATM   15  C9  UNL     1      28.027  -1.373  53.131  1.00  0.00     0.026 C 
HETATM   16  C10 UNL     1      28.918  -0.515  53.655  1.00  0.00     0.036 C 
HETATM   17 CL1  UNL     1      30.520  -1.197  53.851  1.00  0.00    -0.084 Cl
HETATM   18  C11 UNL     1      28.747   0.890  54.082  1.00  0.00     0.056 C 
HETATM   19  C12 UNL     1      27.781   1.609  53.559  1.00  0.00     0.050 C 
HETATM   20  C13 UNL     1      26.669   1.543  52.589  1.00  0.00     0.121 C 
BRANCH  19  21
HETATM   21  O2  UNL     1      27.877   2.882  54.158  1.00  0.00    -0.365 OA
HETATM   22  H10 UNL     1      27.988   3.656  53.488  1.00  0.00     0.217 HD
ENDBRANCH  19  21
ENDBRANCH  11  13
ENDBRANCH   7  11
BRANCH  10  23
HETATM   23  C17 UNL     1      20.187   1.187  50.066  1.00  0.00     0.053 C 
BRANCH  23  24
HETATM   24  C18 UNL     1      21.241   1.045  48.987  1.00  0.00     0.098 C 
BRANCH  24  25
HETATM   25  C19 UNL     1      21.925   2.299  48.864  1.00  0.00    -0.105 C 
BRANCH  25  26
HETATM   26  S1  UNL     1      22.554   3.413  48.763  1.00  0.00    -0.023 SA
BRANCH  26  27
HETATM   27  C20 UNL     1      23.301   4.722  48.624  1.00  0.00     0.316 C 
HETATM   28  O3  UNL     1      22.860   5.761  49.117  1.00  0.00    -0.294 OA
ENDBRANCH  26  27
ENDBRANCH  25  26
ENDBRANCH  24  25
ENDBRANCH  23  24
ENDBRANCH  10  23
BRANCH   1  29
HETATM   29  O1  UNL     1      18.221   0.235  51.878  1.00  0.00    -0.355 OA
HETATM   30  C1  UNL     1      17.300  -0.807  52.202  1.00  0.00     0.210 C 
ENDBRANCH   1  29
TORSDOF 9
ENDMDL
MODEL 4
REMARK VINA RESULT:      -8.1      2.708      4.862
REMARK  9 active torsions:
REMARK  status: ('A' for Active; 'I' for Inactive)
REMARK    1  A    between atoms: O1_2  and  C2_3 
REMARK    2  A    between atoms: C6_9  and  N3_10 
REMARK    3  A    between atoms: N3_10  and  C7_11 
REMARK    4  A    between atoms: C12_17  and  O2_18 
REMARK    5  A    between atoms: C16_22  and  C17_23 
REMARK    6  A    between atoms: C17_23  and  C18_24 
REMARK    7  A    between atoms: C18_24  and  C19_25 
REMARK    8  A    between atoms: C19_25  and  S1_26 
REMARK    9  A    between atoms: S1_26  and  C20_27 
ROOT
HETATM    1  C2  UNL     1      20.533   1.248  51.635  1.00  0.00     0.076 A 
HETATM    2  C3  UNL     1      21.064   1.829  50.502  1.00  0.00     0.070 A 
HETATM    3  C4  UNL     1      22.372   2.233  50.434  1.00  0.00     0.074 A 
HETATM    4  N1  UNL     1      22.810   2.806  49.275  1.00  0.00    -0.241 NA
HETATM    5  C5  UNL     1      24.099   3.223  49.174  1.00  0.00     0.236 A 
HETATM    6  N2  UNL     1      24.907   3.068  50.203  1.00  0.00    -0.224 NA
HETATM    7  C6  UNL     1      24.522   2.518  51.344  1.00  0.00     0.141 A 
HETATM    8  C14 UNL     1      23.225   2.082  51.489  1.00  0.00     0.039 A 
HETATM    9  C15 UNL     1      22.677   1.501  52.605  1.00  0.00     0.027 A 
HETATM   10  C16 UNL     1      21.375   1.077  52.731  1.00  0.00    -0.023 A 
ENDROOT
BRANCH   7  11
HETATM   11  N3  UNL     1      25.390   2.358  52.451  1.00  0.00    -0.343 N 
HETATM   12  H6  UNL     1      25.268   2.822  53.349  1.00  0.00     0.167 HD
BRANCH  11  13
HETATM   13  C7  UNL     1      26.581   1.550  52.606  1.00  0.00     0.017 C 
HETATM   14  C8  UNL     1      26.382   0.226  52.554  1.00  0.00     0.027 C 
HETATM   15  C9  UNL     1      27.283  -0.943  52.662  1.00  0.00     0.026 C 
HETATM   16  C10 UNL     1      28.444  -0.868  53.334  1.00  0.00     0.036 C 
HETATM   17 CL1  UNL     1      29.354  -2.365  53.335  1.00  0.00    -0.084 Cl
HETATM   18  C11 UNL     1      29.052   0.269  54.057  1.00  0.00     0.056 C 
HETATM   19  C12 UNL     1      28.718   1.495  53.726  1.00  0.00     0.050 C 
HETATM   20  C13 UNL     1      27.867   2.264  52.795  1.00  0.00     0.121 C 
BRANCH  19  21
HETATM   21  O2  UNL     1      29.453   2.341  54.582  1.00  0.00    -0.365 OA
HETATM   22  H10 UNL     1      29.923   3.122  54.102  1.00  0.00     0.217 HD
ENDBRANCH  19  21
ENDBRANCH  11  13
ENDBRANCH   7  11
BRANCH  10  23
HETATM   23  C17 UNL     1      20.864   0.472  53.967  1.00  0.00     0.053 C 
BRANCH  23  24
HETATM   24  C18 UNL     1      21.183  -1.001  54.124  1.00  0.00     0.098 C 
BRANCH  24  25
HETATM   25  C19 UNL     1      22.477  -1.114  54.732  1.00  0.00    -0.105 C 
BRANCH  25  26
HETATM   26  S1  UNL     1      23.634  -1.237  55.272  1.00  0.00    -0.023 SA
BRANCH  26  27
HETATM   27  C20 UNL     1      24.998  -1.363  55.916  1.00  0.00     0.316 C 
HETATM   28  O3  UNL     1      25.851  -0.485  55.777  1.00  0.00    -0.294 OA
ENDBRANCH  26  27
ENDBRANCH  25  26
ENDBRANCH  24  25
ENDBRANCH  23  24
ENDBRANCH  10  23
BRANCH   1  29
HETATM   29  O1  UNL     1      19.216   0.848  51.687  1.00  0.00    -0.355 OA
HETATM   30  C1  UNL     1      18.164   1.808  51.584  1.00  0.00     0.210 C 
ENDBRANCH   1  29
TORSDOF 9
ENDMDL
MODEL 5
REMARK VINA RESULT:      -8.0      4.109      6.177
REMARK  9 active torsions:
REMARK  status: ('A' for Active; 'I' for Inactive)
REMARK    1  A    between atoms: O1_2  and  C2_3 
REMARK    2  A    between atoms: C6_9  and  N3_10 
REMARK    3  A    between atoms: N3_10  and  C7_11 
REMARK    4  A    between atoms: C12_17  and  O2_18 
REMARK    5  A    between atoms: C16_22  and  C17_23 
REMARK    6  A    between atoms: C17_23  and  C18_24 
REMARK    7  A    between atoms: C18_24  and  C19_25 
REMARK    8  A    between atoms: C19_25  and  S1_26 
REMARK    9  A    between atoms: S1_26  and  C20_27 
ROOT
HETATM    1  C2  UNL     1      25.139  -0.551  54.730  1.00  0.00     0.076 A 
HETATM    2  C3  UNL     1      26.380   0.025  54.906  1.00  0.00     0.070 A 
HETATM    3  C4  UNL     1      26.903   0.921  54.011  1.00  0.00     0.074 A 
HETATM    4  N1  UNL     1      28.142   1.435  54.263  1.00  0.00    -0.241 NA
HETATM    5  C5  UNL     1      28.693   2.322  53.393  1.00  0.00     0.236 A 
HETATM    6  N2  UNL     1      28.018   2.671  52.317  1.00  0.00    -0.224 NA
HETATM    7  C6  UNL     1      26.815   2.196  52.037  1.00  0.00     0.141 A 
HETATM    8  C14 UNL     1      26.220   1.295  52.890  1.00  0.00     0.039 A 
HETATM    9  C15 UNL     1      24.988   0.712  52.735  1.00  0.00     0.027 A 
HETATM   10  C16 UNL     1      24.413  -0.192  53.597  1.00  0.00    -0.023 A 
ENDROOT
BRANCH   7  11
HETATM   11  N3  UNL     1      26.094   2.568  50.877  1.00  0.00    -0.343 N 
HETATM   12  H6  UNL     1      25.604   1.912  50.270  1.00  0.00     0.167 HD
BRANCH  11  13
HETATM   13  C7  UNL     1      25.859   3.869  50.288  1.00  0.00     0.017 C 
HETATM   14  C8  UNL     1      26.773   4.260  49.389  1.00  0.00     0.027 C 
HETATM   15  C9  UNL     1      26.930   5.478  48.563  1.00  0.00     0.026 C 
HETATM   16  C10 UNL     1      26.404   6.653  48.946  1.00  0.00     0.036 C 
HETATM   17 CL1  UNL     1      26.708   7.960  47.821  1.00  0.00    -0.084 Cl
HETATM   18  C11 UNL     1      25.623   6.996  50.154  1.00  0.00     0.056 C 
HETATM   19  C12 UNL     1      24.957   6.053  50.779  1.00  0.00     0.050 C 
HETATM   20  C13 UNL     1      24.653   4.608  50.730  1.00  0.00     0.121 C 
BRANCH  19  21
HETATM   21  O2  UNL     1      24.326   6.683  51.871  1.00  0.00    -0.365 OA
HETATM   22  H10 UNL     1      23.820   6.038  52.495  1.00  0.00     0.217 HD
ENDBRANCH  19  21
ENDBRANCH  11  13
ENDBRANCH   7  11
BRANCH  10  23
HETATM   23  C17 UNL     1      23.090  -0.778  53.352  1.00  0.00     0.053 C 
BRANCH  23  24
HETATM   24  C18 UNL     1      21.986  -0.228  54.231  1.00  0.00     0.098 C 
BRANCH  24  25
HETATM   25  C19 UNL     1      21.188   0.663  53.440  1.00  0.00    -0.105 C 
BRANCH  25  26
HETATM   26  S1  UNL     1      20.486   1.477  52.740  1.00  0.00    -0.023 SA
BRANCH  26  27
HETATM   27  C20 UNL     1      19.662   2.426  51.897  1.00  0.00     0.316 C 
HETATM   28  O3  UNL     1      19.398   3.563  52.292  1.00  0.00    -0.294 OA
ENDBRANCH  26  27
ENDBRANCH  25  26
ENDBRANCH  24  25
ENDBRANCH  23  24
ENDBRANCH  10  23
BRANCH   1  29
HETATM   29  O1  UNL     1      24.629  -1.452  55.640  1.00  0.00    -0.355 OA
HETATM   30  C1  UNL     1      24.858  -1.275  57.038  1.00  0.00     0.210 C 
ENDBRANCH   1  29
TORSDOF 9
ENDMDL
MODEL 6
REMARK VINA RESULT:      -8.0      4.254      6.243
REMARK  9 active torsions:
REMARK  status: ('A' for Active; 'I' for Inactive)
REMARK    1  A    between atoms: O1_2  and  C2_3 
REMARK    2  A    between atoms: C6_9  and  N3_10 
REMARK    3  A    between atoms: N3_10  and  C7_11 
REMARK    4  A    between atoms: C12_17  and  O2_18 
REMARK    5  A    between atoms: C16_22  and  C17_23 
REMARK    6  A    between atoms: C17_23  and  C18_24 
REMARK    7  A    between atoms: C18_24  and  C19_25 
REMARK    8  A    between atoms: C19_25  and  S1_26 
REMARK    9  A    between atoms: S1_26  and  C20_27 
ROOT
HETATM    1  C2  UNL     1      23.183   3.871  49.070  1.00  0.00     0.076 A 
HETATM    2  C3  UNL     1      22.267   3.060  49.710  1.00  0.00     0.070 A 
HETATM    3  C4  UNL     1      22.539   2.460  50.912  1.00  0.00     0.074 A 
HETATM    4  N1  UNL     1      21.576   1.668  51.469  1.00  0.00    -0.241 NA
HETATM    5  C5  UNL     1      21.813   1.053  52.657  1.00  0.00     0.236 A 
HETATM    6  N2  UNL     1      22.974   1.231  53.252  1.00  0.00    -0.224 NA
HETATM    7  C6  UNL     1      23.933   1.990  52.746  1.00  0.00     0.141 A 
HETATM    8  C14 UNL     1      23.736   2.632  51.545  1.00  0.00     0.039 A 
HETATM    9  C15 UNL     1      24.631   3.441  50.892  1.00  0.00     0.027 A 
HETATM   10  C16 UNL     1      24.415   4.069  49.688  1.00  0.00    -0.023 A 
ENDROOT
BRANCH   7  11
HETATM   11  N3  UNL     1      25.184   2.176  53.385  1.00  0.00    -0.343 N 
HETATM   12  H6  UNL     1      25.375   2.902  54.073  1.00  0.00     0.167 HD
BRANCH  11  13
HETATM   13  C7  UNL     1      26.425   1.442  53.261  1.00  0.00     0.017 C 
HETATM   14  C8  UNL     1      26.295   0.109  53.204  1.00  0.00     0.027 C 
HETATM   15  C9  UNL     1      27.264  -1.002  53.081  1.00  0.00     0.026 C 
HETATM   16  C10 UNL     1      28.534  -0.870  53.499  1.00  0.00     0.036 C 
HETATM   17 CL1  UNL     1      29.507  -2.306  53.258  1.00  0.00    -0.084 Cl
HETATM   18  C11 UNL     1      29.214   0.287  54.120  1.00  0.00     0.056 C 
HETATM   19  C12 UNL     1      28.748   1.496  53.909  1.00  0.00     0.050 C 
HETATM   20  C13 UNL     1      27.678   2.230  53.203  1.00  0.00     0.121 C 
BRANCH  19  21
HETATM   21  O2  UNL     1      29.597   2.367  54.623  1.00  0.00    -0.365 OA
HETATM   22  H10 UNL     1      29.102   3.016  55.253  1.00  0.00     0.217 HD
ENDBRANCH  19  21
ENDBRANCH  11  13
ENDBRANCH   7  11
BRANCH  10  23
HETATM   23  C17 UNL     1      25.432   4.914  49.051  1.00  0.00     0.053 C 
BRANCH  23  24
HETATM   24  C18 UNL     1      26.842   4.367  49.131  1.00  0.00     0.098 C 
BRANCH  24  25
HETATM   25  C19 UNL     1      27.735   5.355  48.597  1.00  0.00    -0.105 C 
BRANCH  25  26
HETATM   26  S1  UNL     1      28.550   6.224  48.122  1.00  0.00    -0.023 SA
BRANCH  26  27
HETATM   27  C20 UNL     1      29.523   7.249  47.581  1.00  0.00     0.316 C 
HETATM   28  O3  UNL     1      30.380   7.758  48.305  1.00  0.00    -0.294 OA
ENDBRANCH  26  27
ENDBRANCH  25  26
ENDBRANCH  24  25
ENDBRANCH  23  24
ENDBRANCH  10  23
BRANCH   1  29
HETATM   29  O1  UNL     1      22.894   4.466  47.862  1.00  0.00    -0.355 OA
HETATM   30  C1  UNL     1      22.053   3.808  46.914  1.00  0.00     0.210 C 
ENDBRANCH   1  29
TORSDOF 9
ENDMDL
MODEL 7
REMARK VINA RESULT:      -7.9      4.745      6.102
REMARK  9 active torsions:
REMARK  status: ('A' for Active; 'I' for Inactive)
REMARK    1  A    between atoms: O1_2  and  C2_3 
REMARK    2  A    between atoms: C6_9  and  N3_10 
REMARK    3  A    between atoms: N3_10  and  C7_11 
REMARK    4  A    between atoms: C12_17  and  O2_18 
REMARK    5  A    between atoms: C16_22  and  C17_23 
REMARK    6  A    between atoms: C17_23  and  C18_24 
REMARK    7  A    between atoms: C18_24  and  C19_25 
REMARK    8  A    between atoms: C19_25  and  S1_26 
REMARK    9  A    between atoms: S1_26  and  C20_27 
ROOT
HETATM    1  C2  UNL     1      22.870   0.672  52.603  1.00  0.00     0.076 A 
HETATM    2  C3  UNL     1      24.102   0.650  53.224  1.00  0.00     0.070 A 
HETATM    3  C4  UNL     1      25.196   1.286  52.699  1.00  0.00     0.074 A 
HETATM    4  N1  UNL     1      26.377   1.205  53.379  1.00  0.00    -0.241 NA
HETATM    5  C5  UNL     1      27.484   1.818  52.884  1.00  0.00     0.236 A 
HETATM    6  N2  UNL     1      27.397   2.483  51.750  1.00  0.00    -0.224 NA
HETATM    7  C6  UNL     1      26.272   2.586  51.061  1.00  0.00     0.141 A 
HETATM    8  C14 UNL     1      25.127   1.980  51.526  1.00  0.00     0.039 A 
HETATM    9  C15 UNL     1      23.894   1.990  50.925  1.00  0.00     0.027 A 
HETATM   10  C16 UNL     1      22.763   1.372  51.404  1.00  0.00    -0.023 A 
ENDROOT
BRANCH   7  11
HETATM   11  N3  UNL     1      26.182   3.297  49.839  1.00  0.00    -0.343 N 
HETATM   12  H6  UNL     1      26.186   2.860  48.919  1.00  0.00     0.167 HD
BRANCH  11  13
HETATM   13  C7  UNL     1      26.058   4.715  49.579  1.00  0.00     0.017 C 
HETATM   14  C8  UNL     1      27.030   5.242  48.822  1.00  0.00     0.027 C 
HETATM   15  C9  UNL     1      27.299   6.608  48.320  1.00  0.00     0.026 C 
HETATM   16  C10 UNL     1      26.838   7.692  48.967  1.00  0.00     0.036 C 
HETATM   17 CL1  UNL     1      27.272   9.206  48.200  1.00  0.00    -0.084 Cl
HETATM   18  C11 UNL     1      26.035   7.790  50.204  1.00  0.00     0.056 C 
HETATM   19  C12 UNL     1      25.284   6.776  50.567  1.00  0.00     0.050 C 
HETATM   20  C13 UNL     1      24.887   5.412  50.162  1.00  0.00     0.121 C 
BRANCH  19  21
HETATM   21  O2  UNL     1      24.655   7.170  51.766  1.00  0.00    -0.365 OA
HETATM   22  H10 UNL     1      23.670   7.449  51.653  1.00  0.00     0.217 HD
ENDBRANCH  19  21
ENDBRANCH  11  13
ENDBRANCH   7  11
BRANCH  10  23
HETATM   23  C17 UNL     1      21.480   1.424  50.692  1.00  0.00     0.053 C 
BRANCH  23  24
HETATM   24  C18 UNL     1      21.495   0.776  49.323  1.00  0.00     0.098 C 
BRANCH  24  25
HETATM   25  C19 UNL     1      21.589   1.814  48.339  1.00  0.00    -0.105 C 
BRANCH  25  26
HETATM   26  S1  UNL     1      21.688   2.731  47.447  1.00  0.00    -0.023 SA
BRANCH  26  27
HETATM   27  C20 UNL     1      21.827   3.810  46.394  1.00  0.00     0.316 C 
HETATM   28  O3  UNL     1      22.121   3.530  45.232  1.00  0.00    -0.294 OA
ENDBRANCH  26  27
ENDBRANCH  25  26
ENDBRANCH  24  25
ENDBRANCH  23  24
ENDBRANCH  10  23
BRANCH   1  29
HETATM   29  O1  UNL     1      21.780   0.027  53.145  1.00  0.00    -0.355 OA
HETATM   30  C1  UNL     1      21.961  -1.054  54.060  1.00  0.00     0.210 C 
ENDBRANCH   1  29
TORSDOF 9
ENDMDL
MODEL 8
REMARK VINA RESULT:      -7.8      4.908      7.340
REMARK  9 active torsions:
REMARK  status: ('A' for Active; 'I' for Inactive)
REMARK    1  A    between atoms: O1_2  and  C2_3 
REMARK    2  A    between atoms: C6_9  and  N3_10 
REMARK    3  A    between atoms: N3_10  and  C7_11 
REMARK    4  A    between atoms: C12_17  and  O2_18 
REMARK    5  A    between atoms: C16_22  and  C17_23 
REMARK    6  A    between atoms: C17_23  and  C18_24 
REMARK    7  A    between atoms: C18_24  and  C19_25 
REMARK    8  A    between atoms: C19_25  and  S1_26 
REMARK    9  A    between atoms: S1_26  and  C20_27 
ROOT
HETATM    1  C2  UNL     1      22.130   0.195  52.192  1.00  0.00     0.076 A 
HETATM    2  C3  UNL     1      21.447   0.512  51.036  1.00  0.00     0.070 A 
HETATM    3  C4  UNL     1      21.938   1.404  50.119  1.00  0.00     0.074 A 
HETATM    4  N1  UNL     1      21.191   1.663  49.006  1.00  0.00    -0.241 NA
HETATM    5  C5  UNL     1      21.645   2.546  48.080  1.00  0.00     0.236 A 
HETATM    6  N2  UNL     1      22.805   3.141  48.273  1.00  0.00    -0.224 NA
HETATM    7  C6  UNL     1      23.559   2.918  49.337  1.00  0.00     0.141 A 
HETATM    8  C14 UNL     1      23.137   2.031  50.301  1.00  0.00     0.039 A 
HETATM    9  C15 UNL     1      23.800   1.701  51.456  1.00  0.00     0.027 A 
HETATM   10  C16 UNL     1      23.357   0.815  52.410  1.00  0.00    -0.023 A 
ENDROOT
BRANCH   7  11
HETATM   11  N3  UNL     1      24.803   3.563  49.546  1.00  0.00    -0.343 N 
HETATM   12  H6  UNL     1      25.655   3.087  49.838  1.00  0.00     0.167 HD
BRANCH  11  13
HETATM   13  C7  UNL     1      25.181   4.952  49.401  1.00  0.00     0.017 C 
HETATM   14  C8  UNL     1      26.383   5.160  48.847  1.00  0.00     0.027 C 
HETATM   15  C9  UNL     1      27.152   6.381  48.517  1.00  0.00     0.026 C 
HETATM   16  C10 UNL     1      26.957   7.530  49.184  1.00  0.00     0.036 C 
HETATM   17 CL1  UNL     1      27.972   8.846  48.631  1.00  0.00    -0.084 Cl
HETATM   18  C11 UNL     1      26.030   7.839  50.294  1.00  0.00     0.056 C 
HETATM   19  C12 UNL     1      24.947   7.113  50.449  1.00  0.00     0.050 C 
HETATM   20  C13 UNL     1      24.211   5.972  49.866  1.00  0.00     0.121 C 
BRANCH  19  21
HETATM   21  O2  UNL     1      24.282   7.645  51.573  1.00  0.00    -0.365 OA
HETATM   22  H10 UNL     1      24.342   7.056  52.416  1.00  0.00     0.217 HD
ENDBRANCH  19  21
ENDBRANCH  11  13
ENDBRANCH   7  11
BRANCH  10  23
HETATM   23  C17 UNL     1      24.126   0.524  53.627  1.00  0.00     0.053 C 
BRANCH  23  24
HETATM   24  C18 UNL     1      25.085  -0.641  53.499  1.00  0.00     0.098 C 
BRANCH  24  25
HETATM   25  C19 UNL     1      26.392  -0.186  53.874  1.00  0.00    -0.105 C 
BRANCH  25  26
HETATM   26  S1  UNL     1      27.568   0.219  54.189  1.00  0.00    -0.023 SA
BRANCH  26  27
HETATM   27  C20 UNL     1      28.963   0.687  54.544  1.00  0.00     0.316 C 
HETATM   28  O3  UNL     1      29.171   1.841  54.918  1.00  0.00    -0.294 OA
ENDBRANCH  26  27
ENDBRANCH  25  26
ENDBRANCH  24  25
ENDBRANCH  23  24
ENDBRANCH  10  23
BRANCH   1  29
HETATM   29  O1  UNL     1      21.621  -0.704  53.104  1.00  0.00    -0.355 OA
HETATM   30  C1  UNL     1      20.448  -0.387  53.854  1.00  0.00     0.210 C 
ENDBRANCH   1  29
TORSDOF 9
ENDMDL
MODEL 9
REMARK VINA RESULT:      -7.8      5.947      8.585
REMARK  9 active torsions:
REMARK  status: ('A' for Active; 'I' for Inactive)
REMARK    1  A    between atoms: O1_2  and  C2_3 
REMARK    2  A    between atoms: C6_9  and  N3_10 
REMARK    3  A    between atoms: N3_10  and  C7_11 
REMARK    4  A    between atoms: C12_17  and  O2_18 
REMARK    5  A    between atoms: C16_22  and  C17_23 
REMARK    6  A    between atoms: C17_23  and  C18_24 
REMARK    7  A    between atoms: C18_24  and  C19_25 
REMARK    8  A    between atoms: C19_25  and  S1_26 
REMARK    9  A    between atoms: S1_26  and  C20_27 
ROOT
HETATM    1  C2  UNL     1      24.241   1.322  52.452  1.00  0.00     0.076 A 
HETATM    2  C3  UNL     1      23.442   1.615  51.366  1.00  0.00     0.070 A 
HETATM    3  C4  UNL     1      23.702   2.670  50.532  1.00  0.00     0.074 A 
HETATM    4  N1  UNL     1      22.852   2.889  49.485  1.00  0.00    -0.241 NA
HETATM    5  C5  UNL     1      23.076   3.930  48.641  1.00  0.00     0.236 A 
HETATM    6  N2  UNL     1      24.115   4.713  48.849  1.00  0.00    -0.224 NA
HETATM    7  C6  UNL     1      24.962   4.535  49.850  1.00  0.00     0.141 A 
HETATM    8  C14 UNL     1      24.772   3.494  50.729  1.00  0.00     0.039 A 
HETATM    9  C15 UNL     1      25.554   3.185  51.813  1.00  0.00     0.027 A 
HETATM   10  C16 UNL     1      25.343   2.141  52.684  1.00  0.00    -0.023 A 
ENDROOT
BRANCH   7  11
HETATM   11  N3  UNL     1      26.074   5.382  50.075  1.00  0.00    -0.343 N 
HETATM   12  H6  UNL     1      26.825   5.182  50.734  1.00  0.00     0.167 HD
BRANCH  11  13
HETATM   13  C7  UNL     1      26.431   6.650  49.476  1.00  0.00     0.017 C 
HETATM   14  C8  UNL     1      27.010   6.567  48.270  1.00  0.00     0.027 C 
HETATM   15  C9  UNL     1      27.524   7.576  47.318  1.00  0.00     0.026 C 
HETATM   16  C10 UNL     1      27.939   8.783  47.738  1.00  0.00     0.036 C 
HETATM   17 CL1  UNL     1      28.507   9.820  46.445  1.00  0.00    -0.084 Cl
HETATM   18  C11 UNL     1      27.986   9.350  49.102  1.00  0.00     0.056 C 
HETATM   19  C12 UNL     1      27.180   8.878  50.023  1.00  0.00     0.050 C 
HETATM   20  C13 UNL     1      26.115   7.878  50.244  1.00  0.00     0.121 C 
BRANCH  19  21
HETATM   21  O2  UNL     1      27.460   9.609  51.196  1.00  0.00    -0.365 OA
HETATM   22  H10 UNL     1      28.257   9.247  51.739  1.00  0.00     0.217 HD
ENDBRANCH  19  21
ENDBRANCH  11  13
ENDBRANCH   7  11
BRANCH  10  23
HETATM   23  C17 UNL     1      26.226   1.885  53.829  1.00  0.00     0.053 C 
BRANCH  23  24
HETATM   24  C18 UNL     1      27.700   2.080  53.541  1.00  0.00     0.098 C 
BRANCH  24  25
HETATM   25  C19 UNL     1      28.320   0.789  53.492  1.00  0.00    -0.105 C 
BRANCH  25  26
HETATM   26  S1  UNL     1      28.884  -0.364  53.469  1.00  0.00    -0.023 SA
BRANCH  26  27
HETATM   27  C20 UNL     1      29.532  -1.731  53.449  1.00  0.00     0.316 C 
HETATM   28  O3  UNL     1      28.853  -2.756  53.377  1.00  0.00    -0.294 OA
ENDBRANCH  26  27
ENDBRANCH  25  26
ENDBRANCH  24  25
ENDBRANCH  23  24
ENDBRANCH  10  23
BRANCH   1  29
HETATM   29  O1  UNL     1      23.965   0.258  53.282  1.00  0.00    -0.355 OA
HETATM   30  C1  UNL     1      22.619  -0.178  53.476  1.00  0.00     0.210 C 
ENDBRANCH   1  29
TORSDOF 9
ENDMDL
