MODEL 1
REMARK VINA RESULT:      -7.1      0.000      0.000
REMARK  7 active torsions:
REMARK  status: ('A' for Active; 'I' for Inactive)
REMARK    1  A    between atoms: N1_2  and  C2_3 
REMARK    2  A    between atoms: C3_4  and  N2_5 
REMARK    3  A    between atoms: N2_5  and  C4_6 
REMARK    4  A    between atoms: C11_16  and  O1_17 
REMARK    5  A    between atoms: O1_17  and  C12_18 
REMARK    6  A    between atoms: C13_19  and  C14_20 
REMARK    7  A    between atoms: C15_21  and  C16_22 
ROOT
HETATM    1  C2  UNL     1      22.405   0.230  53.124  1.00  0.00     0.129 A 
HETATM    2  C3  UNL     1      23.702  -0.153  53.329  1.00  0.00     0.160 A 
HETATM    3  N3  UNL     1      24.083  -0.885  54.394  1.00  0.00    -0.222 NA
HETATM    4  C10 UNL     1      23.225  -1.290  55.326  1.00  0.00     0.238 A 
HETATM    5  N4  UNL     1      21.950  -0.917  55.128  1.00  0.00    -0.215 NA
HETATM    6  C11 UNL     1      21.512  -0.190  54.092  1.00  0.00     0.211 A 
ENDROOT
BRANCH   2   7
HETATM    7  N2  UNL     1      24.764   0.187  52.453  1.00  0.00    -0.339 N 
HETATM    8  H5  UNL     1      24.316   0.091  51.516  1.00  0.00     0.167 HD
BRANCH   7   9
HETATM    9  C4  UNL     1      26.055   0.557  52.915  1.00  0.00     0.035 A 
HETATM   10  C5  UNL     1      26.183   1.877  53.287  1.00  0.00     0.029 A 
HETATM   11  C6  UNL     1      27.401   2.325  53.748  1.00  0.00     0.004 A 
HETATM   12  C7  UNL     1      28.433   1.405  53.810  1.00  0.00     0.019 A 
HETATM   13  C8  UNL     1      28.290   0.085  53.434  1.00  0.00     0.013 A 
HETATM   14 BR1  UNL     1      29.789  -1.116  53.556  1.00  0.00    -0.051 Br
HETATM   15  C9  UNL     1      27.069  -0.372  52.969  1.00  0.00     0.048 A 
ENDBRANCH   7   9
ENDBRANCH   2   7
BRANCH   1  16
HETATM   16  N1  UNL     1      22.014   0.987  52.018  1.00  0.00    -0.388 N 
HETATM   17  C1  UNL     1      21.482   0.634  50.745  1.00  0.00     0.146 C 
HETATM   18  H4  UNL     1      22.126   2.038  52.128  1.00  0.00     0.159 HD
ENDBRANCH   1  16
BRANCH   6  19
HETATM   19  O1  UNL     1      20.188   0.176  53.922  1.00  0.00    -0.238 OA
BRANCH  19  20
HETATM   20  C12 UNL     1      19.219  -0.737  53.637  1.00  0.00     0.066 C 
HETATM   21  C13 UNL     1      18.354  -1.547  53.404  1.00  0.00    -0.048 C 
BRANCH  21  22
HETATM   22  C14 UNL     1      17.325  -2.515  53.151  1.00  0.00     0.065 C 
HETATM   23  C15 UNL     1      17.394  -3.704  53.756  1.00  0.00     0.013 C 
BRANCH  23  24
HETATM   24  C16 UNL     1      16.311  -4.710  53.485  1.00  0.00     0.250 C 
HETATM   25  F1  UNL     1      15.857  -5.116  54.711  1.00  0.00    -0.251 F 
ENDBRANCH  23  24
ENDBRANCH  21  22
ENDBRANCH  19  20
ENDBRANCH   6  19
TORSDOF 7
ENDMDL
MODEL 2
REMARK VINA RESULT:      -6.8      5.422      8.834
REMARK  7 active torsions:
REMARK  status: ('A' for Active; 'I' for Inactive)
REMARK    1  A    between atoms: N1_2  and  C2_3 
REMARK    2  A    between atoms: C3_4  and  N2_5 
REMARK    3  A    between atoms: N2_5  and  C4_6 
REMARK    4  A    between atoms: C11_16  and  O1_17 
REMARK    5  A    between atoms: O1_17  and  C12_18 
REMARK    6  A    between atoms: C13_19  and  C14_20 
REMARK    7  A    between atoms: C15_21  and  C16_22 
ROOT
HETATM    1  C2  UNL     1      22.498   3.429  50.900  1.00  0.00     0.129 A 
HETATM    2  C3  UNL     1      21.799   2.257  50.985  1.00  0.00     0.160 A 
HETATM    3  N3  UNL     1      21.596   1.454  49.921  1.00  0.00    -0.222 NA
HETATM    4  C10 UNL     1      22.062   1.743  48.710  1.00  0.00     0.238 A 
HETATM    5  N4  UNL     1      22.750   2.894  48.622  1.00  0.00    -0.215 NA
HETATM    6  C11 UNL     1      22.983   3.731  49.642  1.00  0.00     0.211 A 
ENDROOT
BRANCH   2   7
HETATM    7  N2  UNL     1      21.218   1.780  52.187  1.00  0.00    -0.339 N 
HETATM    8  H5  UNL     1      20.308   2.289  52.209  1.00  0.00     0.167 HD
BRANCH   7   9
HETATM    9  C4  UNL     1      21.856   0.830  53.028  1.00  0.00     0.035 A 
HETATM   10  C5  UNL     1      21.025   0.200  53.928  1.00  0.00     0.029 A 
HETATM   11  C6  UNL     1      21.558  -0.737  54.784  1.00  0.00     0.004 A 
HETATM   12  C7  UNL     1      22.914  -0.992  54.683  1.00  0.00     0.019 A 
HETATM   13  C8  UNL     1      23.735  -0.353  53.775  1.00  0.00     0.013 A 
HETATM   14 BR1  UNL     1      25.611  -0.777  53.713  1.00  0.00    -0.051 Br
HETATM   15  C9  UNL     1      23.206   0.590  52.911  1.00  0.00     0.048 A 
ENDBRANCH   7   9
ENDBRANCH   2   7
BRANCH   1  16
HETATM   16  N1  UNL     1      22.708   4.256  52.005  1.00  0.00    -0.388 N 
HETATM   17  C1  UNL     1      23.735   4.311  52.990  1.00  0.00     0.146 C 
HETATM   18  H4  UNL     1      21.966   5.002  52.158  1.00  0.00     0.159 HD
ENDBRANCH   1  16
BRANCH   6  19
HETATM   19  O1  UNL     1      23.697   4.910  49.513  1.00  0.00    -0.238 OA
BRANCH  19  20
HETATM   20  C12 UNL     1      25.030   4.917  49.235  1.00  0.00     0.066 C 
HETATM   21  C13 UNL     1      26.210   4.906  48.978  1.00  0.00    -0.048 C 
BRANCH  21  22
HETATM   22  C14 UNL     1      27.611   4.869  48.668  1.00  0.00     0.065 C 
HETATM   23  C15 UNL     1      28.231   6.008  48.346  1.00  0.00     0.013 C 
BRANCH  23  24
HETATM   24  C16 UNL     1      29.697   5.959  48.023  1.00  0.00     0.250 C 
HETATM   25  F1  UNL     1      29.973   4.654  47.715  1.00  0.00    -0.251 F 
ENDBRANCH  23  24
ENDBRANCH  21  22
ENDBRANCH  19  20
ENDBRANCH   6  19
TORSDOF 7
ENDMDL
MODEL 3
REMARK VINA RESULT:      -6.5      5.896      8.898
REMARK  7 active torsions:
REMARK  status: ('A' for Active; 'I' for Inactive)
REMARK    1  A    between atoms: N1_2  and  C2_3 
REMARK    2  A    between atoms: C3_4  and  N2_5 
REMARK    3  A    between atoms: N2_5  and  C4_6 
REMARK    4  A    between atoms: C11_16  and  O1_17 
REMARK    5  A    between atoms: O1_17  and  C12_18 
REMARK    6  A    between atoms: C13_19  and  C14_20 
REMARK    7  A    between atoms: C15_21  and  C16_22 
ROOT
HETATM    1  C2  UNL     1      23.532   3.653  50.216  1.00  0.00     0.129 A 
HETATM    2  C3  UNL     1      23.184   3.070  51.403  1.00  0.00     0.160 A 
HETATM    3  N3  UNL     1      23.093   3.766  52.554  1.00  0.00    -0.222 NA
HETATM    4  C10 UNL     1      23.336   5.071  52.620  1.00  0.00     0.238 A 
HETATM    5  N4  UNL     1      23.679   5.648  51.456  1.00  0.00    -0.215 NA
HETATM    6  C11 UNL     1      23.785   5.009  50.283  1.00  0.00     0.211 A 
ENDROOT
BRANCH   2   7
HETATM    7  N2  UNL     1      22.894   1.689  51.540  1.00  0.00    -0.339 N 
HETATM    8  H5  UNL     1      22.100   1.563  50.876  1.00  0.00     0.167 HD
BRANCH   7   9
HETATM    9  C4  UNL     1      23.620   0.832  52.409  1.00  0.00     0.035 A 
HETATM   10  C5  UNL     1      22.853   0.158  53.334  1.00  0.00     0.029 A 
HETATM   11  C6  UNL     1      23.472  -0.696  54.219  1.00  0.00     0.004 A 
HETATM   12  C7  UNL     1      24.847  -0.826  54.120  1.00  0.00     0.019 A 
HETATM   13  C8  UNL     1      25.602  -0.144  53.187  1.00  0.00     0.013 A 
HETATM   14 BR1  UNL     1      27.510  -0.393  53.130  1.00  0.00    -0.051 Br
HETATM   15  C9  UNL     1      24.987   0.716  52.295  1.00  0.00     0.048 A 
ENDBRANCH   7   9
ENDBRANCH   2   7
BRANCH   1  16
HETATM   16  N1  UNL     1      23.622   2.929  49.025  1.00  0.00    -0.388 N 
HETATM   17  C1  UNL     1      22.653   2.531  48.061  1.00  0.00     0.146 C 
HETATM   18  H4  UNL     1      24.600   2.602  48.769  1.00  0.00     0.159 HD
ENDBRANCH   1  16
BRANCH   6  19
HETATM   19  O1  UNL     1      24.141   5.638  49.102  1.00  0.00    -0.238 OA
BRANCH  19  20
HETATM   20  C12 UNL     1      25.439   5.915  48.797  1.00  0.00     0.066 C 
HETATM   21  C13 UNL     1      26.596   6.146  48.539  1.00  0.00    -0.048 C 
BRANCH  21  22
HETATM   22  C14 UNL     1      27.978   6.410  48.254  1.00  0.00     0.065 C 
HETATM   23  C15 UNL     1      28.840   5.389  48.238  1.00  0.00     0.013 C 
BRANCH  23  24
HETATM   24  C16 UNL     1      30.284   5.676  47.938  1.00  0.00     0.250 C 
HETATM   25  F1  UNL     1      30.832   4.483  47.548  1.00  0.00    -0.251 F 
ENDBRANCH  23  24
ENDBRANCH  21  22
ENDBRANCH  19  20
ENDBRANCH   6  19
TORSDOF 7
ENDMDL
MODEL 4
REMARK VINA RESULT:      -6.5      6.386      9.735
REMARK  7 active torsions:
REMARK  status: ('A' for Active; 'I' for Inactive)
REMARK    1  A    between atoms: N1_2  and  C2_3 
REMARK    2  A    between atoms: C3_4  and  N2_5 
REMARK    3  A    between atoms: N2_5  and  C4_6 
REMARK    4  A    between atoms: C11_16  and  O1_17 
REMARK    5  A    between atoms: O1_17  and  C12_18 
REMARK    6  A    between atoms: C13_19  and  C14_20 
REMARK    7  A    between atoms: C15_21  and  C16_22 
ROOT
HETATM    1  C2  UNL     1      25.062   2.760  51.169  1.00  0.00     0.129 A 
HETATM    2  C3  UNL     1      24.878   2.495  52.498  1.00  0.00     0.160 A 
HETATM    3  N3  UNL     1      25.901   2.240  53.336  1.00  0.00    -0.222 NA
HETATM    4  C10 UNL     1      27.168   2.229  52.934  1.00  0.00     0.238 A 
HETATM    5  N4  UNL     1      27.355   2.491  51.629  1.00  0.00    -0.215 NA
HETATM    6  C11 UNL     1      26.379   2.749  50.749  1.00  0.00     0.211 A 
ENDROOT
BRANCH   2   7
HETATM    7  N2  UNL     1      23.602   2.453  53.115  1.00  0.00    -0.339 N 
HETATM    8  H5  UNL     1      23.525   3.407  53.528  1.00  0.00     0.167 HD
BRANCH   7   9
HETATM    9  C4  UNL     1      22.761   1.308  53.071  1.00  0.00     0.035 A 
HETATM   10  C5  UNL     1      23.316   0.161  53.594  1.00  0.00     0.029 A 
HETATM   11  C6  UNL     1      22.574  -0.999  53.594  1.00  0.00     0.004 A 
HETATM   12  C7  UNL     1      21.298  -0.936  53.061  1.00  0.00     0.019 A 
HETATM   13  C8  UNL     1      20.755   0.222  52.541  1.00  0.00     0.013 A 
HETATM   14 BR1  UNL     1      18.970   0.206  51.822  1.00  0.00    -0.051 Br
HETATM   15  C9  UNL     1      21.496   1.391  52.538  1.00  0.00     0.048 A 
ENDBRANCH   7   9
ENDBRANCH   2   7
BRANCH   1  16
HETATM   16  N1  UNL     1      23.999   3.026  50.304  1.00  0.00    -0.388 N 
HETATM   17  C1  UNL     1      23.305   4.222  49.964  1.00  0.00     0.146 C 
HETATM   18  H4  UNL     1      23.619   2.181  49.784  1.00  0.00     0.159 HD
ENDBRANCH   1  16
BRANCH   6  19
HETATM   19  O1  UNL     1      26.611   3.014  49.410  1.00  0.00    -0.238 OA
BRANCH  19  20
HETATM   20  C12 UNL     1      27.120   4.205  48.989  1.00  0.00     0.066 C 
HETATM   21  C13 UNL     1      27.568   5.268  48.635  1.00  0.00    -0.048 C 
BRANCH  21  22
HETATM   22  C14 UNL     1      28.091   6.543  48.233  1.00  0.00     0.065 C 
HETATM   23  C15 UNL     1      29.399   6.655  47.985  1.00  0.00     0.013 C 
BRANCH  23  24
HETATM   24  C16 UNL     1      29.937   7.994  47.565  1.00  0.00     0.250 C 
HETATM   25  F1  UNL     1      29.793   8.816  48.649  1.00  0.00    -0.251 F 
ENDBRANCH  23  24
ENDBRANCH  21  22
ENDBRANCH  19  20
ENDBRANCH   6  19
TORSDOF 7
ENDMDL
MODEL 5
REMARK VINA RESULT:      -6.4      5.928      7.884
REMARK  7 active torsions:
REMARK  status: ('A' for Active; 'I' for Inactive)
REMARK    1  A    between atoms: N1_2  and  C2_3 
REMARK    2  A    between atoms: C3_4  and  N2_5 
REMARK    3  A    between atoms: N2_5  and  C4_6 
REMARK    4  A    between atoms: C11_16  and  O1_17 
REMARK    5  A    between atoms: O1_17  and  C12_18 
REMARK    6  A    between atoms: C13_19  and  C14_20 
REMARK    7  A    between atoms: C15_21  and  C16_22 
ROOT
HETATM    1  C2  UNL     1      23.723   3.381  51.027  1.00  0.00     0.129 A 
HETATM    2  C3  UNL     1      23.634   4.056  49.841  1.00  0.00     0.160 A 
HETATM    3  N3  UNL     1      23.087   3.514  48.735  1.00  0.00    -0.222 NA
HETATM    4  C10 UNL     1      22.593   2.280  48.716  1.00  0.00     0.238 A 
HETATM    5  N4  UNL     1      22.677   1.612  49.879  1.00  0.00    -0.215 NA
HETATM    6  C11 UNL     1      23.209   2.098  51.008  1.00  0.00     0.211 A 
ENDROOT
BRANCH   2   7
HETATM    7  N2  UNL     1      24.112   5.379  49.659  1.00  0.00    -0.339 N 
HETATM    8  H5  UNL     1      23.318   5.952  50.017  1.00  0.00     0.167 HD
BRANCH   7   9
HETATM    9  C4  UNL     1      25.393   5.667  49.116  1.00  0.00     0.035 A 
HETATM   10  C5  UNL     1      26.322   4.660  49.254  1.00  0.00     0.029 A 
HETATM   11  C6  UNL     1      27.592   4.851  48.757  1.00  0.00     0.004 A 
HETATM   12  C7  UNL     1      27.856   6.061  48.140  1.00  0.00     0.019 A 
HETATM   13  C8  UNL     1      26.914   7.061  48.008  1.00  0.00     0.013 A 
HETATM   14 BR1  UNL     1      27.381   8.710  47.133  1.00  0.00    -0.051 Br
HETATM   15  C9  UNL     1      25.636   6.876  48.506  1.00  0.00     0.048 A 
ENDBRANCH   7   9
ENDBRANCH   2   7
BRANCH   1  16
HETATM   16  N1  UNL     1      24.288   3.948  52.171  1.00  0.00    -0.388 N 
HETATM   17  C1  UNL     1      23.745   4.723  53.235  1.00  0.00     0.146 C 
HETATM   18  H4  UNL     1      25.330   3.777  52.291  1.00  0.00     0.159 HD
ENDBRANCH   1  16
BRANCH   6  19
HETATM   19  O1  UNL     1      23.279   1.379  52.189  1.00  0.00    -0.238 OA
BRANCH  19  20
HETATM   20  C12 UNL     1      24.361   0.615  52.504  1.00  0.00     0.066 C 
HETATM   21  C13 UNL     1      25.332  -0.045  52.784  1.00  0.00    -0.048 C 
BRANCH  21  22
HETATM   22  C14 UNL     1      26.501  -0.812  53.110  1.00  0.00     0.065 C 
HETATM   23  C15 UNL     1      27.669  -0.179  53.255  1.00  0.00     0.013 C 
BRANCH  23  24
HETATM   24  C16 UNL     1      28.886  -0.990  53.597  1.00  0.00     0.250 C 
HETATM   25  F1  UNL     1      29.949  -0.330  53.039  1.00  0.00    -0.251 F 
ENDBRANCH  23  24
ENDBRANCH  21  22
ENDBRANCH  19  20
ENDBRANCH   6  19
TORSDOF 7
ENDMDL
MODEL 6
REMARK VINA RESULT:      -6.4      6.525     10.188
REMARK  7 active torsions:
REMARK  status: ('A' for Active; 'I' for Inactive)
REMARK    1  A    between atoms: N1_2  and  C2_3 
REMARK    2  A    between atoms: C3_4  and  N2_5 
REMARK    3  A    between atoms: N2_5  and  C4_6 
REMARK    4  A    between atoms: C11_16  and  O1_17 
REMARK    5  A    between atoms: O1_17  and  C12_18 
REMARK    6  A    between atoms: C13_19  and  C14_20 
REMARK    7  A    between atoms: C15_21  and  C16_22 
ROOT
HETATM    1  C2  UNL     1      24.817   4.035  50.599  1.00  0.00     0.129 A 
HETATM    2  C3  UNL     1      24.617   3.171  51.640  1.00  0.00     0.160 A 
HETATM    3  N3  UNL     1      25.573   2.329  52.079  1.00  0.00    -0.222 NA
HETATM    4  C10 UNL     1      26.783   2.277  51.532  1.00  0.00     0.238 A 
HETATM    5  N4  UNL     1      26.985   3.125  50.509  1.00  0.00    -0.215 NA
HETATM    6  C11 UNL     1      26.074   3.982  50.029  1.00  0.00     0.211 A 
ENDROOT
BRANCH   2   7
HETATM    7  N2  UNL     1      23.392   3.072  52.347  1.00  0.00    -0.339 N 
HETATM    8  H5  UNL     1      23.386   3.953  52.904  1.00  0.00     0.167 HD
BRANCH   7   9
HETATM    9  C4  UNL     1      22.504   1.972  52.201  1.00  0.00     0.035 A 
HETATM   10  C5  UNL     1      21.800   1.948  51.018  1.00  0.00     0.029 A 
HETATM   11  C6  UNL     1      20.916   0.917  50.789  1.00  0.00     0.004 A 
HETATM   12  C7  UNL     1      20.791  -0.044  51.777  1.00  0.00     0.019 A 
HETATM   13  C8  UNL     1      21.505  -0.007  52.958  1.00  0.00     0.013 A 
HETATM   14 BR1  UNL     1      21.260  -1.392  54.271  1.00  0.00    -0.051 Br
HETATM   15  C9  UNL     1      22.395   1.026  53.195  1.00  0.00     0.048 A 
ENDBRANCH   7   9
ENDBRANCH   2   7
BRANCH   1  16
HETATM   16  N1  UNL     1      23.824   4.908  50.150  1.00  0.00    -0.388 N 
HETATM   17  C1  UNL     1      23.441   6.221  50.543  1.00  0.00     0.146 C 
HETATM   18  H4  UNL     1      23.224   4.537  49.354  1.00  0.00     0.159 HD
ENDBRANCH   1  16
BRANCH   6  19
HETATM   19  O1  UNL     1      26.319   4.841  48.972  1.00  0.00    -0.238 OA
BRANCH  19  20
HETATM   20  C12 UNL     1      27.584   5.183  48.600  1.00  0.00     0.066 C 
HETATM   21  C13 UNL     1      28.712   5.468  48.277  1.00  0.00    -0.048 C 
BRANCH  21  22
HETATM   22  C14 UNL     1      30.061   5.789  47.908  1.00  0.00     0.065 C 
HETATM   23  C15 UNL     1      30.965   5.986  48.872  1.00  0.00     0.013 C 
BRANCH  23  24
HETATM   24  C16 UNL     1      32.375   6.321  48.476  1.00  0.00     0.250 C 
HETATM   25  F1  UNL     1      33.006   5.123  48.276  1.00  0.00    -0.251 F 
ENDBRANCH  23  24
ENDBRANCH  21  22
ENDBRANCH  19  20
ENDBRANCH   6  19
TORSDOF 7
ENDMDL
MODEL 7
REMARK VINA RESULT:      -6.3      6.547      9.891
REMARK  7 active torsions:
REMARK  status: ('A' for Active; 'I' for Inactive)
REMARK    1  A    between atoms: N1_2  and  C2_3 
REMARK    2  A    between atoms: C3_4  and  N2_5 
REMARK    3  A    between atoms: N2_5  and  C4_6 
REMARK    4  A    between atoms: C11_16  and  O1_17 
REMARK    5  A    between atoms: O1_17  and  C12_18 
REMARK    6  A    between atoms: C13_19  and  C14_20 
REMARK    7  A    between atoms: C15_21  and  C16_22 
ROOT
HETATM    1  C2  UNL     1      25.143   2.929  51.096  1.00  0.00     0.129 A 
HETATM    2  C3  UNL     1      23.823   2.882  51.447  1.00  0.00     0.160 A 
HETATM    3  N3  UNL     1      22.830   3.172  50.583  1.00  0.00    -0.222 NA
HETATM    4  C10 UNL     1      23.062   3.525  49.323  1.00  0.00     0.238 A 
HETATM    5  N4  UNL     1      24.358   3.572  48.972  1.00  0.00    -0.215 NA
HETATM    6  C11 UNL     1      25.386   3.296  49.786  1.00  0.00     0.211 A 
ENDROOT
BRANCH   2   7
HETATM    7  N2  UNL     1      23.373   2.535  52.747  1.00  0.00    -0.339 N 
HETATM    8  H5  UNL     1      23.587   3.398  53.292  1.00  0.00     0.167 HD
BRANCH   7   9
HETATM    9  C4  UNL     1      22.788   1.277  53.049  1.00  0.00     0.035 A 
HETATM   10  C5  UNL     1      23.673   0.314  53.481  1.00  0.00     0.029 A 
HETATM   11  C6  UNL     1      23.194  -0.938  53.798  1.00  0.00     0.004 A 
HETATM   12  C7  UNL     1      21.833  -1.150  53.661  1.00  0.00     0.019 A 
HETATM   13  C8  UNL     1      20.958  -0.175  53.228  1.00  0.00     0.013 A 
HETATM   14 BR1  UNL     1      19.081  -0.570  53.070  1.00  0.00    -0.051 Br
HETATM   15  C9  UNL     1      21.433   1.085  52.907  1.00  0.00     0.048 A 
ENDBRANCH   7   9
ENDBRANCH   2   7
BRANCH   1  16
HETATM   16  N1  UNL     1      26.168   2.624  51.993  1.00  0.00    -0.388 N 
HETATM   17  C1  UNL     1      26.915   1.438  52.242  1.00  0.00     0.146 C 
HETATM   18  H4  UNL     1      26.467   3.425  52.625  1.00  0.00     0.159 HD
ENDBRANCH   1  16
BRANCH   6  19
HETATM   19  O1  UNL     1      26.711   3.355  49.388  1.00  0.00    -0.238 OA
BRANCH  19  20
HETATM   20  C12 UNL     1      27.266   4.499  48.900  1.00  0.00     0.066 C 
HETATM   21  C13 UNL     1      27.741   5.524  48.475  1.00  0.00    -0.048 C 
BRANCH  21  22
HETATM   22  C14 UNL     1      28.285   6.753  47.971  1.00  0.00     0.065 C 
HETATM   23  C15 UNL     1      27.582   7.879  48.121  1.00  0.00     0.013 C 
BRANCH  23  24
HETATM   24  C16 UNL     1      28.160   9.161  47.590  1.00  0.00     0.250 C 
HETATM   25  F1  UNL     1      29.495   9.127  47.891  1.00  0.00    -0.251 F 
ENDBRANCH  23  24
ENDBRANCH  21  22
ENDBRANCH  19  20
ENDBRANCH   6  19
TORSDOF 7
ENDMDL
MODEL 8
REMARK VINA RESULT:      -6.2      6.549      8.017
REMARK  7 active torsions:
REMARK  status: ('A' for Active; 'I' for Inactive)
REMARK    1  A    between atoms: N1_2  and  C2_3 
REMARK    2  A    between atoms: C3_4  and  N2_5 
REMARK    3  A    between atoms: N2_5  and  C4_6 
REMARK    4  A    between atoms: C11_16  and  O1_17 
REMARK    5  A    between atoms: O1_17  and  C12_18 
REMARK    6  A    between atoms: C13_19  and  C14_20 
REMARK    7  A    between atoms: C15_21  and  C16_22 
ROOT
HETATM    1  C2  UNL     1      24.835   5.068  50.563  1.00  0.00     0.129 A 
HETATM    2  C3  UNL     1      24.780   6.429  50.685  1.00  0.00     0.160 A 
HETATM    3  N3  UNL     1      23.617   7.101  50.797  1.00  0.00    -0.222 NA
HETATM    4  C10 UNL     1      22.437   6.491  50.797  1.00  0.00     0.238 A 
HETATM    5  N4  UNL     1      22.485   5.153  50.677  1.00  0.00    -0.215 NA
HETATM    6  C11 UNL     1      23.608   4.431  50.562  1.00  0.00     0.211 A 
ENDROOT
BRANCH   2   7
HETATM    7  N2  UNL     1      25.930   7.258  50.698  1.00  0.00    -0.339 N 
HETATM    8  H5  UNL     1      26.292   7.118  51.665  1.00  0.00     0.167 HD
BRANCH   7   9
HETATM    9  C4  UNL     1      26.345   8.018  49.571  1.00  0.00     0.035 A 
HETATM   10  C5  UNL     1      27.060   7.313  48.628  1.00  0.00     0.029 A 
HETATM   11  C6  UNL     1      27.503   7.968  47.501  1.00  0.00     0.004 A 
HETATM   12  C7  UNL     1      27.196   9.312  47.386  1.00  0.00     0.019 A 
HETATM   13  C8  UNL     1      26.477  10.005  48.340  1.00  0.00     0.013 A 
HETATM   14 BR1  UNL     1      26.102  11.876  48.087  1.00  0.00    -0.051 Br
HETATM   15  C9  UNL     1      26.029   9.353  49.475  1.00  0.00     0.048 A 
ENDBRANCH   7   9
ENDBRANCH   2   7
BRANCH   1  16
HETATM   16  N1  UNL     1      26.041   4.375  50.450  1.00  0.00    -0.388 N 
HETATM   17  C1  UNL     1      26.722   3.792  49.344  1.00  0.00     0.146 C 
HETATM   18  H4  UNL     1      26.575   4.248  51.361  1.00  0.00     0.159 HD
ENDBRANCH   1  16
BRANCH   6  19
HETATM   19  O1  UNL     1      23.619   3.053  50.441  1.00  0.00    -0.238 OA
BRANCH  19  20
HETATM   20  C12 UNL     1      23.155   2.239  51.430  1.00  0.00     0.066 C 
HETATM   21  C13 UNL     1      22.736   1.505  52.291  1.00  0.00    -0.048 C 
BRANCH  21  22
HETATM   22  C14 UNL     1      22.223   0.622  53.300  1.00  0.00     0.065 C 
HETATM   23  C15 UNL     1      23.030  -0.311  53.813  1.00  0.00     0.013 C 
BRANCH  23  24
HETATM   24  C16 UNL     1      22.484  -1.230  54.869  1.00  0.00     0.250 C 
HETATM   25  F1  UNL     1      21.315  -0.660  55.298  1.00  0.00    -0.251 F 
ENDBRANCH  23  24
ENDBRANCH  21  22
ENDBRANCH  19  20
ENDBRANCH   6  19
TORSDOF 7
ENDMDL
MODEL 9
REMARK VINA RESULT:      -6.1      5.398      9.170
REMARK  7 active torsions:
REMARK  status: ('A' for Active; 'I' for Inactive)
REMARK    1  A    between atoms: N1_2  and  C2_3 
REMARK    2  A    between atoms: C3_4  and  N2_5 
REMARK    3  A    between atoms: N2_5  and  C4_6 
REMARK    4  A    between atoms: C11_16  and  O1_17 
REMARK    5  A    between atoms: O1_17  and  C12_18 
REMARK    6  A    between atoms: C13_19  and  C14_20 
REMARK    7  A    between atoms: C15_21  and  C16_22 
ROOT
HETATM    1  C2  UNL     1      20.021   0.068  52.238  1.00  0.00     0.129 A 
HETATM    2  C3  UNL     1      19.763  -0.671  53.359  1.00  0.00     0.160 A 
HETATM    3  N3  UNL     1      20.727  -1.325  54.037  1.00  0.00    -0.222 NA
HETATM    4  C10 UNL     1      22.003  -1.299  53.665  1.00  0.00     0.238 A 
HETATM    5  N4  UNL     1      22.262  -0.573  52.564  1.00  0.00    -0.215 NA
HETATM    6  C11 UNL     1      21.347   0.096  51.850  1.00  0.00     0.211 A 
ENDROOT
BRANCH   2   7
HETATM    7  N2  UNL     1      18.465  -0.827  53.908  1.00  0.00    -0.339 N 
HETATM    8  H5  UNL     1      18.439  -0.077  54.632  1.00  0.00     0.167 HD
BRANCH   7   9
HETATM    9  C4  UNL     1      17.549  -1.814  53.454  1.00  0.00     0.035 A 
HETATM   10  C5  UNL     1      17.820  -3.096  53.877  1.00  0.00     0.029 A 
HETATM   11  C6  UNL     1      16.985  -4.119  53.485  1.00  0.00     0.004 A 
HETATM   12  C7  UNL     1      15.910  -3.787  52.680  1.00  0.00     0.019 A 
HETATM   13  C8  UNL     1      15.650  -2.496  52.264  1.00  0.00     0.013 A 
HETATM   14 BR1  UNL     1      14.128  -2.137  51.143  1.00  0.00    -0.051 Br
HETATM   15  C9  UNL     1      16.486  -1.464  52.654  1.00  0.00     0.048 A 
ENDBRANCH   7   9
ENDBRANCH   2   7
BRANCH   1  16
HETATM   16  N1  UNL     1      19.019   0.746  51.541  1.00  0.00    -0.388 N 
HETATM   17  C1  UNL     1      18.602   2.107  51.528  1.00  0.00     0.146 C 
HETATM   18  H4  UNL     1      18.442   0.144  50.881  1.00  0.00     0.159 HD
ENDBRANCH   1  16
BRANCH   6  19
HETATM   19  O1  UNL     1      21.653   0.834  50.719  1.00  0.00    -0.238 OA
BRANCH  19  20
HETATM   20  C12 UNL     1      22.752   1.636  50.658  1.00  0.00     0.066 C 
HETATM   21  C13 UNL     1      23.734   2.334  50.591  1.00  0.00    -0.048 C 
BRANCH  21  22
HETATM   22  C14 UNL     1      24.916   3.144  50.502  1.00  0.00     0.065 C 
HETATM   23  C15 UNL     1      25.116   3.876  49.403  1.00  0.00     0.013 C 
BRANCH  23  24
HETATM   24  C16 UNL     1      26.355   4.721  49.320  1.00  0.00     0.250 C 
HETATM   25  F1  UNL     1      27.343   3.899  48.848  1.00  0.00    -0.251 F 
ENDBRANCH  23  24
ENDBRANCH  21  22
ENDBRANCH  19  20
ENDBRANCH   6  19
TORSDOF 7
ENDMDL
