MODEL 1
REMARK VINA RESULT:      -7.1      0.000      0.000
REMARK  6 active torsions:
REMARK  status: ('A' for Active; 'I' for Inactive)
REMARK    1  A    between atoms: C4_4  and  C5_5 
REMARK    2  A    between atoms: C6_6  and  C7_7 
REMARK    3  A    between atoms: C7_7  and  N1_8 
REMARK    4  A    between atoms: N1_8  and  C8_9 
REMARK    5  A    between atoms: C10_13  and  O1_14 
REMARK    6  A    between atoms: O1_14  and  C11_15 
ROOT
HETATM    1  C1  UNL     1      23.661   6.992  47.933  1.00  0.00     0.017 C 
HETATM    2  C2  UNL     1      24.818   7.279  47.773  1.00  0.00    -0.089 C 
HETATM    3  C3  UNL     1      26.198   7.623  47.601  1.00  0.00     0.063 C 
HETATM    4  C4  UNL     1      27.105   6.919  48.259  1.00  0.00     0.009 C 
ENDROOT
BRANCH   4   5
HETATM    5  C5  UNL     1      26.631   5.839  49.116  1.00  0.00    -0.002 C 
HETATM    6  C6  UNL     1      27.017   4.594  48.905  1.00  0.00    -0.007 C 
BRANCH   6   7
HETATM    7  C7  UNL     1      26.708   3.327  49.593  1.00  0.00     0.148 C 
BRANCH   7   8
HETATM    8  N1  UNL     1      26.450   3.483  51.011  1.00  0.00    -0.375 N 
HETATM    9  H8  UNL     1      26.790   4.288  51.618  1.00  0.00     0.161 HD
BRANCH   8  10
HETATM   10  C8  UNL     1      25.675   2.499  51.702  1.00  0.00     0.105 A 
HETATM   11  N2  UNL     1      24.530   2.931  52.172  1.00  0.00    -0.229 NA
HETATM   12  C9  UNL     1      23.683   2.029  52.877  1.00  0.00     0.231 A 
HETATM   13  N3  UNL     1      24.078   0.853  53.014  1.00  0.00    -0.250 NA
HETATM   14  C10 UNL     1      25.253   0.261  52.574  1.00  0.00     0.255 A 
HETATM   15  C15 UNL     1      26.190   1.129  51.837  1.00  0.00     0.134 A 
BRANCH  14  16
HETATM   16  O1  UNL     1      25.904  -0.506  53.566  1.00  0.00    -0.333 OA
BRANCH  16  17
HETATM   17  C11 UNL     1      27.270  -0.414  53.527  1.00  0.00     0.286 C 
HETATM   18  C12 UNL     1      27.782   0.300  54.751  1.00  0.00     0.228 C 
HETATM   19  O2  UNL     1      29.151   0.186  54.807  1.00  0.00    -0.384 OA
HETATM   20  C13 UNL     1      29.755  -0.336  53.691  1.00  0.00     0.194 C 
HETATM   21  C14 UNL     1      29.185  -1.676  53.284  1.00  0.00     0.197 C 
HETATM   22  O3  UNL     1      27.796  -1.699  53.383  1.00  0.00    -0.357 OA
ENDBRANCH  16  17
ENDBRANCH  14  16
ENDBRANCH   8  10
ENDBRANCH   7   8
ENDBRANCH   6   7
ENDBRANCH   4   5
TORSDOF 6
ENDMDL
MODEL 2
REMARK VINA RESULT:      -7.1      2.415      5.719
REMARK  6 active torsions:
REMARK  status: ('A' for Active; 'I' for Inactive)
REMARK    1  A    between atoms: C4_4  and  C5_5 
REMARK    2  A    between atoms: C6_6  and  C7_7 
REMARK    3  A    between atoms: C7_7  and  N1_8 
REMARK    4  A    between atoms: N1_8  and  C8_9 
REMARK    5  A    between atoms: C10_13  and  O1_14 
REMARK    6  A    between atoms: O1_14  and  C11_15 
ROOT
HETATM    1  C1  UNL     1      24.140  -0.489  53.866  1.00  0.00     0.017 C 
HETATM    2  C2  UNL     1      22.942  -0.598  53.851  1.00  0.00    -0.089 C 
HETATM    3  C3  UNL     1      21.515  -0.711  53.844  1.00  0.00     0.063 C 
HETATM    4  C4  UNL     1      20.807   0.316  53.402  1.00  0.00     0.009 C 
ENDROOT
BRANCH   4   5
HETATM    5  C5  UNL     1      21.537   1.495  52.952  1.00  0.00    -0.002 C 
HETATM    6  C6  UNL     1      21.305   2.016  51.761  1.00  0.00    -0.007 C 
BRANCH   6   7
HETATM    7  C7  UNL     1      21.877   3.177  51.055  1.00  0.00     0.148 C 
BRANCH   7   8
HETATM    8  N1  UNL     1      22.806   2.819  50.001  1.00  0.00    -0.375 N 
HETATM    9  H8  UNL     1      22.539   2.482  49.028  1.00  0.00     0.161 HD
BRANCH   8  10
HETATM   10  C8  UNL     1      24.214   2.907  50.238  1.00  0.00     0.105 A 
HETATM   11  N2  UNL     1      24.856   3.724  49.439  1.00  0.00    -0.229 NA
HETATM   12  C9  UNL     1      26.262   3.884  49.592  1.00  0.00     0.231 A 
HETATM   13  N3  UNL     1      26.823   3.228  50.494  1.00  0.00    -0.250 NA
HETATM   14  C10 UNL     1      26.277   2.337  51.406  1.00  0.00     0.255 A 
HETATM   15  C15 UNL     1      24.824   2.110  51.313  1.00  0.00     0.134 A 
BRANCH  14  16
HETATM   16  O1  UNL     1      27.000   1.127  51.513  1.00  0.00    -0.333 OA
BRANCH  16  17
HETATM   17  C11 UNL     1      27.463   0.872  52.778  1.00  0.00     0.286 C 
HETATM   18  C12 UNL     1      27.697  -0.605  52.961  1.00  0.00     0.228 C 
HETATM   19  O2  UNL     1      28.368  -0.818  54.142  1.00  0.00    -0.384 OA
HETATM   20  C13 UNL     1      28.487   0.271  54.968  1.00  0.00     0.194 C 
HETATM   21  C14 UNL     1      29.107   1.468  54.281  1.00  0.00     0.197 C 
HETATM   22  O3  UNL     1      28.609   1.639  52.992  1.00  0.00    -0.357 OA
ENDBRANCH  16  17
ENDBRANCH  14  16
ENDBRANCH   8  10
ENDBRANCH   7   8
ENDBRANCH   6   7
ENDBRANCH   4   5
TORSDOF 6
ENDMDL
MODEL 3
REMARK VINA RESULT:      -6.4      3.278      7.206
REMARK  6 active torsions:
REMARK  status: ('A' for Active; 'I' for Inactive)
REMARK    1  A    between atoms: C4_4  and  C5_5 
REMARK    2  A    between atoms: C6_6  and  C7_7 
REMARK    3  A    between atoms: C7_7  and  N1_8 
REMARK    4  A    between atoms: N1_8  and  C8_9 
REMARK    5  A    between atoms: C10_13  and  O1_14 
REMARK    6  A    between atoms: O1_14  and  C11_15 
ROOT
HETATM    1  C1  UNL     1      29.021  -2.674  53.170  1.00  0.00     0.017 C 
HETATM    2  C2  UNL     1      29.438  -1.564  53.367  1.00  0.00    -0.089 C 
HETATM    3  C3  UNL     1      29.925  -0.235  53.586  1.00  0.00     0.063 C 
HETATM    4  C4  UNL     1      29.043   0.746  53.696  1.00  0.00     0.009 C 
ENDROOT
BRANCH   4   5
HETATM    5  C5  UNL     1      27.631   0.400  53.584  1.00  0.00    -0.002 C 
HETATM    6  C6  UNL     1      26.926   0.099  54.659  1.00  0.00    -0.007 C 
BRANCH   6   7
HETATM    7  C7  UNL     1      25.513  -0.280  54.847  1.00  0.00     0.148 C 
BRANCH   7   8
HETATM    8  N1  UNL     1      24.801  -0.504  53.604  1.00  0.00    -0.375 N 
HETATM    9  H8  UNL     1      24.927  -1.341  52.960  1.00  0.00     0.161 HD
BRANCH   8  10
HETATM   10  C8  UNL     1      23.834   0.453  53.160  1.00  0.00     0.105 A 
HETATM   11  N2  UNL     1      22.593   0.162  53.464  1.00  0.00    -0.229 NA
HETATM   12  C9  UNL     1      21.554   1.050  53.067  1.00  0.00     0.231 A 
HETATM   13  N3  UNL     1      21.881   2.079  52.440  1.00  0.00    -0.250 NA
HETATM   14  C10 UNL     1      23.140   2.512  52.054  1.00  0.00     0.255 A 
HETATM   15  C15 UNL     1      24.274   1.646  52.423  1.00  0.00     0.134 A 
BRANCH  14  16
HETATM   16  O1  UNL     1      23.204   2.929  50.705  1.00  0.00    -0.333 OA
BRANCH  16  17
HETATM   17  C11 UNL     1      23.639   4.219  50.547  1.00  0.00     0.286 C 
HETATM   18  C12 UNL     1      23.375   5.018  51.797  1.00  0.00     0.228 C 
HETATM   19  O2  UNL     1      24.014   6.232  51.706  1.00  0.00    -0.384 OA
HETATM   20  C13 UNL     1      24.549   6.537  50.480  1.00  0.00     0.194 C 
HETATM   21  C14 UNL     1      25.487   5.469  49.963  1.00  0.00     0.197 C 
HETATM   22  O3  UNL     1      24.989   4.189  50.192  1.00  0.00    -0.357 OA
ENDBRANCH  16  17
ENDBRANCH  14  16
ENDBRANCH   8  10
ENDBRANCH   7   8
ENDBRANCH   6   7
ENDBRANCH   4   5
TORSDOF 6
ENDMDL
MODEL 4
REMARK VINA RESULT:      -6.4      3.901      7.102
REMARK  6 active torsions:
REMARK  status: ('A' for Active; 'I' for Inactive)
REMARK    1  A    between atoms: C4_4  and  C5_5 
REMARK    2  A    between atoms: C6_6  and  C7_7 
REMARK    3  A    between atoms: C7_7  and  N1_8 
REMARK    4  A    between atoms: N1_8  and  C8_9 
REMARK    5  A    between atoms: C10_13  and  O1_14 
REMARK    6  A    between atoms: O1_14  and  C11_15 
ROOT
HETATM    1  C1  UNL     1      23.809  -0.294  53.613  1.00  0.00     0.017 C 
HETATM    2  C2  UNL     1      24.936  -0.412  53.208  1.00  0.00    -0.089 C 
HETATM    3  C3  UNL     1      26.271  -0.548  52.708  1.00  0.00     0.063 C 
HETATM    4  C4  UNL     1      26.764   0.427  51.961  1.00  0.00     0.009 C 
ENDROOT
BRANCH   4   5
HETATM    5  C5  UNL     1      25.906   1.577  51.701  1.00  0.00    -0.002 C 
HETATM    6  C6  UNL     1      26.289   2.527  50.867  1.00  0.00    -0.007 C 
BRANCH   6   7
HETATM    7  C7  UNL     1      25.645   3.776  50.420  1.00  0.00     0.148 C 
BRANCH   7   8
HETATM    8  N1  UNL     1      24.922   4.466  51.471  1.00  0.00    -0.375 N 
HETATM    9  H8  UNL     1      25.356   4.905  52.337  1.00  0.00     0.161 HD
BRANCH   8  10
HETATM   10  C8  UNL     1      23.500   4.595  51.383  1.00  0.00     0.105 A 
HETATM   11  N2  UNL     1      23.078   5.775  50.999  1.00  0.00    -0.229 NA
HETATM   12  C9  UNL     1      21.678   6.008  50.881  1.00  0.00     0.231 A 
HETATM   13  N3  UNL     1      20.910   5.062  51.152  1.00  0.00    -0.250 NA
HETATM   14  C10 UNL     1      21.212   3.772  51.565  1.00  0.00     0.255 A 
HETATM   15  C15 UNL     1      22.642   3.449  51.717  1.00  0.00     0.134 A 
BRANCH  14  16
HETATM   16  O1  UNL     1      20.446   3.342  52.672  1.00  0.00    -0.333 OA
BRANCH  16  17
HETATM   17  C11 UNL     1      19.824   2.137  52.477  1.00  0.00     0.286 C 
HETATM   18  C12 UNL     1      19.744   1.820  51.006  1.00  0.00     0.228 C 
HETATM   19  O2  UNL     1      19.327   0.521  50.841  1.00  0.00    -0.384 OA
HETATM   20  C13 UNL     1      18.885  -0.115  51.973  1.00  0.00     0.194 C 
HETATM   21  C14 UNL     1      19.894  -0.083  53.100  1.00  0.00     0.197 C 
HETATM   22  O3  UNL     1      20.505   1.164  53.211  1.00  0.00    -0.357 OA
ENDBRANCH  16  17
ENDBRANCH  14  16
ENDBRANCH   8  10
ENDBRANCH   7   8
ENDBRANCH   6   7
ENDBRANCH   4   5
TORSDOF 6
ENDMDL
MODEL 5
REMARK VINA RESULT:      -6.3      3.679      7.785
REMARK  6 active torsions:
REMARK  status: ('A' for Active; 'I' for Inactive)
REMARK    1  A    between atoms: C4_4  and  C5_5 
REMARK    2  A    between atoms: C6_6  and  C7_7 
REMARK    3  A    between atoms: C7_7  and  N1_8 
REMARK    4  A    between atoms: N1_8  and  C8_9 
REMARK    5  A    between atoms: C10_13  and  O1_14 
REMARK    6  A    between atoms: O1_14  and  C11_15 
ROOT
HETATM    1  C1  UNL     1      21.287   0.789  52.976  1.00  0.00     0.017 C 
HETATM    2  C2  UNL     1      21.483   0.027  53.886  1.00  0.00    -0.089 C 
HETATM    3  C3  UNL     1      21.726  -0.892  54.957  1.00  0.00     0.063 C 
HETATM    4  C4  UNL     1      22.972  -1.278  55.182  1.00  0.00     0.009 C 
ENDROOT
BRANCH   4   5
HETATM    5  C5  UNL     1      24.013  -0.736  54.317  1.00  0.00    -0.002 C 
HETATM    6  C6  UNL     1      25.246  -0.584  54.763  1.00  0.00    -0.007 C 
BRANCH   6   7
HETATM    7  C7  UNL     1      26.477  -0.073  54.130  1.00  0.00     0.148 C 
BRANCH   7   8
HETATM    8  N1  UNL     1      26.569   1.374  54.121  1.00  0.00    -0.375 N 
HETATM    9  H8  UNL     1      27.004   1.971  54.886  1.00  0.00     0.161 HD
BRANCH   8  10
HETATM   10  C8  UNL     1      26.045   2.109  53.012  1.00  0.00     0.105 A 
HETATM   11  N2  UNL     1      26.844   2.186  51.976  1.00  0.00    -0.229 NA
HETATM   12  C9  UNL     1      26.417   2.897  50.819  1.00  0.00     0.231 A 
HETATM   13  N3  UNL     1      25.284   3.421  50.848  1.00  0.00    -0.250 NA
HETATM   14  C10 UNL     1      24.339   3.421  51.864  1.00  0.00     0.255 A 
HETATM   15  C15 UNL     1      24.705   2.708  53.101  1.00  0.00     0.134 A 
BRANCH  14  16
HETATM   16  O1  UNL     1      23.792   4.697  52.125  1.00  0.00    -0.333 OA
BRANCH  16  17
HETATM   17  C11 UNL     1      22.552   4.889  51.576  1.00  0.00     0.286 C 
HETATM   18  C12 UNL     1      22.628   5.878  50.441  1.00  0.00     0.228 C 
HETATM   19  O2  UNL     1      21.433   5.887  49.763  1.00  0.00    -0.384 OA
HETATM   20  C13 UNL     1      20.404   5.198  50.352  1.00  0.00     0.194 C 
HETATM   21  C14 UNL     1      20.759   3.761  50.664  1.00  0.00     0.197 C 
HETATM   22  O3  UNL     1      22.045   3.648  51.187  1.00  0.00    -0.357 OA
ENDBRANCH  16  17
ENDBRANCH  14  16
ENDBRANCH   8  10
ENDBRANCH   7   8
ENDBRANCH   6   7
ENDBRANCH   4   5
TORSDOF 6
ENDMDL
MODEL 6
REMARK VINA RESULT:      -6.2      3.706      7.593
REMARK  6 active torsions:
REMARK  status: ('A' for Active; 'I' for Inactive)
REMARK    1  A    between atoms: C4_4  and  C5_5 
REMARK    2  A    between atoms: C6_6  and  C7_7 
REMARK    3  A    between atoms: C7_7  and  N1_8 
REMARK    4  A    between atoms: N1_8  and  C8_9 
REMARK    5  A    between atoms: C10_13  and  O1_14 
REMARK    6  A    between atoms: O1_14  and  C11_15 
ROOT
HETATM    1  C1  UNL     1      29.550  -0.799  53.670  1.00  0.00     0.017 C 
HETATM    2  C2  UNL     1      29.398   0.385  53.820  1.00  0.00    -0.089 C 
HETATM    3  C3  UNL     1      29.212   1.796  53.977  1.00  0.00     0.063 C 
HETATM    4  C4  UNL     1      28.072   2.328  53.568  1.00  0.00     0.009 C 
ENDROOT
BRANCH   4   5
HETATM    5  C5  UNL     1      27.081   1.433  52.982  1.00  0.00    -0.002 C 
HETATM    6  C6  UNL     1      25.845   1.401  53.446  1.00  0.00    -0.007 C 
BRANCH   6   7
HETATM    7  C7  UNL     1      24.658   0.616  53.060  1.00  0.00     0.148 C 
BRANCH   7   8
HETATM    8  N1  UNL     1      23.447   1.406  52.954  1.00  0.00    -0.375 N 
HETATM    9  H8  UNL     1      22.563   1.266  53.529  1.00  0.00     0.161 HD
BRANCH   8  10
HETATM   10  C8  UNL     1      23.383   2.479  52.010  1.00  0.00     0.105 A 
HETATM   11  N2  UNL     1      23.499   2.116  50.756  1.00  0.00    -0.229 NA
HETATM   12  C9  UNL     1      23.448   3.109  49.738  1.00  0.00     0.231 A 
HETATM   13  N3  UNL     1      23.294   4.295  50.094  1.00  0.00    -0.250 NA
HETATM   14  C10 UNL     1      23.158   4.821  51.370  1.00  0.00     0.255 A 
HETATM   15  C15 UNL     1      23.203   3.859  52.486  1.00  0.00     0.134 A 
BRANCH  14  16
HETATM   16  O1  UNL     1      23.976   5.949  51.605  1.00  0.00    -0.333 OA
BRANCH  16  17
HETATM   17  C11 UNL     1      24.297   6.644  50.468  1.00  0.00     0.286 C 
HETATM   18  C12 UNL     1      23.649   8.004  50.484  1.00  0.00     0.228 C 
HETATM   19  O2  UNL     1      24.158   8.764  49.459  1.00  0.00    -0.384 OA
HETATM   20  C13 UNL     1      24.944   8.099  48.553  1.00  0.00     0.194 C 
HETATM   21  C14 UNL     1      26.089   7.352  49.200  1.00  0.00     0.197 C 
HETATM   22  O3  UNL     1      25.688   6.702  50.365  1.00  0.00    -0.357 OA
ENDBRANCH  16  17
ENDBRANCH  14  16
ENDBRANCH   8  10
ENDBRANCH   7   8
ENDBRANCH   6   7
ENDBRANCH   4   5
TORSDOF 6
ENDMDL
MODEL 7
REMARK VINA RESULT:      -6.1      3.884      7.369
REMARK  6 active torsions:
REMARK  status: ('A' for Active; 'I' for Inactive)
REMARK    1  A    between atoms: C4_4  and  C5_5 
REMARK    2  A    between atoms: C6_6  and  C7_7 
REMARK    3  A    between atoms: C7_7  and  N1_8 
REMARK    4  A    between atoms: N1_8  and  C8_9 
REMARK    5  A    between atoms: C10_13  and  O1_14 
REMARK    6  A    between atoms: O1_14  and  C11_15 
ROOT
HETATM    1  C1  UNL     1      26.434   1.826  51.310  1.00  0.00     0.017 C 
HETATM    2  C2  UNL     1      26.636   0.776  51.862  1.00  0.00    -0.089 C 
HETATM    3  C3  UNL     1      26.874  -0.464  52.537  1.00  0.00     0.063 C 
HETATM    4  C4  UNL     1      25.954  -0.905  53.380  1.00  0.00     0.009 C 
ENDROOT
BRANCH   4   5
HETATM    5  C5  UNL     1      24.758  -0.091  53.561  1.00  0.00    -0.002 C 
HETATM    6  C6  UNL     1      23.568  -0.655  53.660  1.00  0.00    -0.007 C 
BRANCH   6   7
HETATM    7  C7  UNL     1      22.216  -0.097  53.844  1.00  0.00     0.148 C 
BRANCH   7   8
HETATM    8  N1  UNL     1      21.547   0.229  52.600  1.00  0.00    -0.375 N 
HETATM    9  H8  UNL     1      21.145  -0.474  51.910  1.00  0.00     0.161 HD
BRANCH   8  10
HETATM   10  C8  UNL     1      21.387   1.599  52.220  1.00  0.00     0.105 A 
HETATM   11  N2  UNL     1      20.187   2.087  52.416  1.00  0.00    -0.229 NA
HETATM   12  C9  UNL     1      19.923   3.443  52.071  1.00  0.00     0.231 A 
HETATM   13  N3  UNL     1      20.862   4.110  51.591  1.00  0.00    -0.250 NA
HETATM   14  C10 UNL     1      22.170   3.729  51.330  1.00  0.00     0.255 A 
HETATM   15  C15 UNL     1      22.526   2.337  51.656  1.00  0.00     0.134 A 
BRANCH  14  16
HETATM   16  O1  UNL     1      22.623   4.110  50.047  1.00  0.00    -0.333 OA
BRANCH  16  17
HETATM   17  C11 UNL     1      23.719   4.932  50.069  1.00  0.00     0.286 C 
HETATM   18  C12 UNL     1      24.090   5.350  48.670  1.00  0.00     0.228 C 
HETATM   19  O2  UNL     1      25.039   6.342  48.727  1.00  0.00    -0.384 OA
HETATM   20  C13 UNL     1      25.581   6.583  49.963  1.00  0.00     0.194 C 
HETATM   21  C14 UNL     1      24.538   6.867  51.020  1.00  0.00     0.197 C 
HETATM   22  O3  UNL     1      23.443   6.012  50.909  1.00  0.00    -0.357 OA
ENDBRANCH  16  17
ENDBRANCH  14  16
ENDBRANCH   8  10
ENDBRANCH   7   8
ENDBRANCH   6   7
ENDBRANCH   4   5
TORSDOF 6
ENDMDL
MODEL 8
REMARK VINA RESULT:      -6.1      3.660      7.375
REMARK  6 active torsions:
REMARK  status: ('A' for Active; 'I' for Inactive)
REMARK    1  A    between atoms: C4_4  and  C5_5 
REMARK    2  A    between atoms: C6_6  and  C7_7 
REMARK    3  A    between atoms: C7_7  and  N1_8 
REMARK    4  A    between atoms: N1_8  and  C8_9 
REMARK    5  A    between atoms: C10_13  and  O1_14 
REMARK    6  A    between atoms: O1_14  and  C11_15 
ROOT
HETATM    1  C1  UNL     1      29.472  -1.040  53.501  1.00  0.00     0.017 C 
HETATM    2  C2  UNL     1      29.335   0.135  53.717  1.00  0.00    -0.089 C 
HETATM    3  C3  UNL     1      29.166   1.538  53.953  1.00  0.00     0.063 C 
HETATM    4  C4  UNL     1      28.027   2.103  53.587  1.00  0.00     0.009 C 
ENDROOT
BRANCH   4   5
HETATM    5  C5  UNL     1      27.020   1.251  52.966  1.00  0.00    -0.002 C 
HETATM    6  C6  UNL     1      25.738   1.558  53.045  1.00  0.00    -0.007 C 
BRANCH   6   7
HETATM    7  C7  UNL     1      24.525   0.900  52.526  1.00  0.00     0.148 C 
BRANCH   7   8
HETATM    8  N1  UNL     1      23.982   1.533  51.340  1.00  0.00    -0.375 N 
HETATM    9  H8  UNL     1      23.384   1.056  50.601  1.00  0.00     0.161 HD
BRANCH   8  10
HETATM   10  C8  UNL     1      24.243   2.918  51.095  1.00  0.00     0.105 A 
HETATM   11  N2  UNL     1      23.368   3.743  51.617  1.00  0.00    -0.229 NA
HETATM   12  C9  UNL     1      23.537   5.144  51.431  1.00  0.00     0.231 A 
HETATM   13  N3  UNL     1      24.525   5.525  50.770  1.00  0.00    -0.250 NA
HETATM   14  C10 UNL     1      25.522   4.774  50.165  1.00  0.00     0.255 A 
HETATM   15  C15 UNL     1      25.420   3.311  50.306  1.00  0.00     0.134 A 
BRANCH  14  16
HETATM   16  O1  UNL     1      25.792   5.164  48.833  1.00  0.00    -0.333 OA
BRANCH  16  17
HETATM   17  C11 UNL     1      26.829   6.052  48.718  1.00  0.00     0.286 C 
HETATM   18  C12 UNL     1      28.111   5.322  48.410  1.00  0.00     0.228 C 
HETATM   19  O2  UNL     1      29.086   6.233  48.077  1.00  0.00    -0.384 OA
HETATM   20  C13 UNL     1      28.772   7.551  48.291  1.00  0.00     0.194 C 
HETATM   21  C14 UNL     1      27.485   7.969  47.616  1.00  0.00     0.197 C 
HETATM   22  O3  UNL     1      26.493   7.000  47.751  1.00  0.00    -0.357 OA
ENDBRANCH  16  17
ENDBRANCH  14  16
ENDBRANCH   8  10
ENDBRANCH   7   8
ENDBRANCH   6   7
ENDBRANCH   4   5
TORSDOF 6
ENDMDL
MODEL 9
REMARK VINA RESULT:      -6.1      4.326      6.930
REMARK  6 active torsions:
REMARK  status: ('A' for Active; 'I' for Inactive)
REMARK    1  A    between atoms: C4_4  and  C5_5 
REMARK    2  A    between atoms: C6_6  and  C7_7 
REMARK    3  A    between atoms: C7_7  and  N1_8 
REMARK    4  A    between atoms: N1_8  and  C8_9 
REMARK    5  A    between atoms: C10_13  and  O1_14 
REMARK    6  A    between atoms: O1_14  and  C11_15 
ROOT
HETATM    1  C1  UNL     1      26.455   2.488  51.277  1.00  0.00     0.017 C 
HETATM    2  C2  UNL     1      27.300   2.403  52.129  1.00  0.00    -0.089 C 
HETATM    3  C3  UNL     1      28.291   2.302  53.157  1.00  0.00     0.063 C 
HETATM    4  C4  UNL     1      28.230   1.273  53.988  1.00  0.00     0.009 C 
ENDROOT
BRANCH   4   5
HETATM    5  C5  UNL     1      27.150   0.312  53.794  1.00  0.00    -0.002 C 
HETATM    6  C6  UNL     1      26.245   0.118  54.735  1.00  0.00    -0.007 C 
BRANCH   6   7
HETATM    7  C7  UNL     1      25.068  -0.767  54.816  1.00  0.00     0.148 C 
BRANCH   7   8
HETATM    8  N1  UNL     1      24.408  -0.974  53.542  1.00  0.00    -0.375 N 
HETATM    9  H8  UNL     1      24.854  -1.397  52.674  1.00  0.00     0.161 HD
BRANCH   8  10
HETATM   10  C8  UNL     1      23.038  -0.593  53.385  1.00  0.00     0.105 A 
HETATM   11  N2  UNL     1      22.188  -1.290  54.100  1.00  0.00    -0.229 NA
HETATM   12  C9  UNL     1      20.799  -0.990  54.015  1.00  0.00     0.231 A 
HETATM   13  N3  UNL     1      20.453  -0.064  53.253  1.00  0.00    -0.250 NA
HETATM   14  C10 UNL     1      21.233   0.750  52.445  1.00  0.00     0.255 A 
HETATM   15  C15 UNL     1      22.686   0.503  52.471  1.00  0.00     0.134 A 
BRANCH  14  16
HETATM   16  O1  UNL     1      20.737   0.880  51.128  1.00  0.00    -0.333 OA
BRANCH  16  17
HETATM   17  C11 UNL     1      21.596   1.521  50.275  1.00  0.00     0.286 C 
HETATM   18  C12 UNL     1      21.466   0.961  48.882  1.00  0.00     0.228 C 
HETATM   19  O2  UNL     1      22.162   1.757  48.004  1.00  0.00    -0.384 OA
HETATM   20  C13 UNL     1      22.963   2.716  48.569  1.00  0.00     0.194 C 
HETATM   21  C14 UNL     1      22.219   3.614  49.533  1.00  0.00     0.197 C 
HETATM   22  O3  UNL     1      21.343   2.892  50.340  1.00  0.00    -0.357 OA
ENDBRANCH  16  17
ENDBRANCH  14  16
ENDBRANCH   8  10
ENDBRANCH   7   8
ENDBRANCH   6   7
ENDBRANCH   4   5
TORSDOF 6
ENDMDL
