MODEL 1
REMARK VINA RESULT:      -7.9      0.000      0.000
REMARK  9 active torsions:
REMARK  status: ('A' for Active; 'I' for Inactive)
REMARK    1  A    between atoms: N1_2  and  C2_3 
REMARK    2  A    between atoms: C2_3  and  C3_4 
REMARK    3  A    between atoms: C3_4  and  O1_5 
REMARK    4  A    between atoms: C3_4  and  C4_6 
REMARK    5  A    between atoms: C4_6  and  O2_7 
REMARK    6  A    between atoms: O2_7  and  C5_8 
REMARK    7  A    between atoms: C8_11  and  N2_12 
REMARK    8  A    between atoms: N2_12  and  C9_13 
REMARK    9  A    between atoms: C18_26  and  O3_27 
ROOT
HETATM    1  C5  UNL     1      24.400   2.865  50.452  1.00  0.00     0.103 A 
HETATM    2  C6  UNL     1      24.551   2.032  51.570  1.00  0.00     0.057 A 
HETATM    3  C7  UNL     1      23.450   1.239  51.797  1.00  0.00     0.042 A 
HETATM    4  C8  UNL     1      23.560   0.407  52.897  1.00  0.00     0.142 A 
HETATM    5  N3  UNL     1      22.528  -0.427  53.228  1.00  0.00    -0.224 NA
HETATM    6  C15 UNL     1      21.392  -0.457  52.499  1.00  0.00     0.236 A 
HETATM    7  N4  UNL     1      21.276   0.348  51.429  1.00  0.00    -0.241 NA
HETATM    8  C16 UNL     1      22.278   1.177  51.082  1.00  0.00     0.075 A 
HETATM    9  C17 UNL     1      22.195   2.023  49.994  1.00  0.00     0.072 A 
HETATM   10  C18 UNL     1      23.244   2.863  49.675  1.00  0.00     0.103 A 
ENDROOT
BRANCH   4  11
HETATM   11  N2  UNL     1      24.635   0.253  53.797  1.00  0.00    -0.340 N 
HETATM   12  H12 UNL     1      24.133   0.386  54.701  1.00  0.00     0.167 HD
BRANCH  11  13
HETATM   13  C9  UNL     1      26.021  -0.005  53.670  1.00  0.00     0.035 A 
HETATM   14  C10 UNL     1      26.381  -1.192  53.029  1.00  0.00     0.032 A 
HETATM   15  C11 UNL     1      27.723  -1.431  52.894  1.00  0.00     0.046 A 
HETATM   16  C12 UNL     1      28.690  -0.558  53.361  1.00  0.00     0.138 A 
HETATM   17  F1  UNL     1      30.035  -0.793  53.228  1.00  0.00    -0.204 F 
HETATM   18  C13 UNL     1      28.238   0.604  53.989  1.00  0.00     0.074 A 
HETATM   19 CL1  UNL     1      29.495   1.704  54.578  1.00  0.00    -0.081 Cl
HETATM   20  C14 UNL     1      26.907   0.917  54.164  1.00  0.00     0.056 A 
ENDBRANCH  11  13
ENDBRANCH   4  11
BRANCH   1  21
HETATM   21  O2  UNL     1      25.359   3.725  50.050  1.00  0.00    -0.346 OA
BRANCH  21  22
HETATM   22  C4  UNL     1      26.687   3.591  49.742  1.00  0.00     0.209 C 
BRANCH  22  23
HETATM   23  C3  UNL     1      27.189   4.620  48.749  1.00  0.00     0.159 C 
BRANCH  23  24
HETATM   24  C2  UNL     1      26.297   5.858  48.726  1.00  0.00     0.147 C 
BRANCH  24  25
HETATM   25  N1  UNL     1      26.451   6.466  50.038  1.00  0.00    -0.423 N 
HETATM   26  C1  UNL     1      25.355   7.300  50.426  1.00  0.00     0.139 C 
HETATM   27  H4  UNL     1      27.392   6.831  50.216  1.00  0.00     0.152 HD
ENDBRANCH  24  25
ENDBRANCH  23  24
BRANCH  23  28
HETATM   28  O1  UNL     1      28.418   5.083  49.279  1.00  0.00    -0.392 OA
HETATM   29  H8  UNL     1      28.898   4.317  49.722  1.00  0.00     0.210 HD
ENDBRANCH  23  28
ENDBRANCH  22  23
ENDBRANCH  21  22
ENDBRANCH   1  21
BRANCH  10  30
HETATM   30  O3  UNL     1      23.107   3.681  48.582  1.00  0.00    -0.353 OA
HETATM   31  C19 UNL     1      22.228   3.382  47.513  1.00  0.00     0.210 C 
ENDBRANCH  10  30
TORSDOF 9
ENDMDL
MODEL 2
REMARK VINA RESULT:      -7.8      3.350      4.385
REMARK  9 active torsions:
REMARK  status: ('A' for Active; 'I' for Inactive)
REMARK    1  A    between atoms: N1_2  and  C2_3 
REMARK    2  A    between atoms: C2_3  and  C3_4 
REMARK    3  A    between atoms: C3_4  and  O1_5 
REMARK    4  A    between atoms: C3_4  and  C4_6 
REMARK    5  A    between atoms: C4_6  and  O2_7 
REMARK    6  A    between atoms: O2_7  and  C5_8 
REMARK    7  A    between atoms: C8_11  and  N2_12 
REMARK    8  A    between atoms: N2_12  and  C9_13 
REMARK    9  A    between atoms: C18_26  and  O3_27 
ROOT
HETATM    1  C5  UNL     1      21.061   0.591  51.785  1.00  0.00     0.103 A 
HETATM    2  C6  UNL     1      22.413   0.505  52.146  1.00  0.00     0.057 A 
HETATM    3  C7  UNL     1      22.613  -0.220  53.297  1.00  0.00     0.042 A 
HETATM    4  C8  UNL     1      23.936  -0.322  53.689  1.00  0.00     0.142 A 
HETATM    5  N3  UNL     1      24.262  -1.016  54.822  1.00  0.00    -0.224 NA
HETATM    6  C15 UNL     1      23.312  -1.610  55.575  1.00  0.00     0.236 A 
HETATM    7  N4  UNL     1      22.024  -1.516  55.202  1.00  0.00    -0.241 NA
HETATM    8  C16 UNL     1      21.678  -0.840  54.091  1.00  0.00     0.075 A 
HETATM    9  C17 UNL     1      20.366  -0.716  53.679  1.00  0.00     0.072 A 
HETATM   10  C18 UNL     1      20.053  -0.008  52.535  1.00  0.00     0.103 A 
ENDROOT
BRANCH   4  11
HETATM   11  N2  UNL     1      25.093   0.197  53.071  1.00  0.00    -0.340 N 
HETATM   12  H12 UNL     1      24.653   0.803  52.346  1.00  0.00     0.167 HD
BRANCH  11  13
HETATM   13  C9  UNL     1      26.487   0.042  53.260  1.00  0.00     0.035 A 
HETATM   14  C10 UNL     1      27.040  -1.181  52.872  1.00  0.00     0.032 A 
HETATM   15  C11 UNL     1      28.391  -1.323  53.043  1.00  0.00     0.046 A 
HETATM   16  C12 UNL     1      29.189  -0.322  53.571  1.00  0.00     0.138 A 
HETATM   17  F1  UNL     1      30.543  -0.460  53.743  1.00  0.00    -0.204 F 
HETATM   18  C13 UNL     1      28.551   0.866  53.932  1.00  0.00     0.074 A 
HETATM   19 CL1  UNL     1      29.593   2.129  54.605  1.00  0.00    -0.081 Cl
HETATM   20  C14 UNL     1      27.198   1.087  53.792  1.00  0.00     0.056 A 
ENDBRANCH  11  13
ENDBRANCH   4  11
BRANCH   1  21
HETATM   21  O2  UNL     1      20.640   1.257  50.689  1.00  0.00    -0.346 OA
BRANCH  21  22
HETATM   22  C4  UNL     1      20.465   2.583  50.392  1.00  0.00     0.209 C 
BRANCH  22  23
HETATM   23  C3  UNL     1      20.637   3.503  51.583  1.00  0.00     0.159 C 
BRANCH  23  24
HETATM   24  C2  UNL     1      21.084   4.898  51.153  1.00  0.00     0.147 C 
BRANCH  24  25
HETATM   25  N1  UNL     1      22.046   5.321  52.158  1.00  0.00    -0.423 N 
HETATM   26  C1  UNL     1      23.079   4.365  52.415  1.00  0.00     0.139 C 
HETATM   27  H4  UNL     1      21.619   5.767  52.976  1.00  0.00     0.152 HD
ENDBRANCH  24  25
ENDBRANCH  23  24
BRANCH  23  28
HETATM   28  O1  UNL     1      19.332   3.696  52.099  1.00  0.00    -0.392 OA
HETATM   29  H8  UNL     1      19.030   4.633  51.893  1.00  0.00     0.210 HD
ENDBRANCH  23  28
ENDBRANCH  22  23
ENDBRANCH  21  22
ENDBRANCH   1  21
BRANCH  10  30
HETATM   30  O3  UNL     1      18.732   0.081  52.173  1.00  0.00    -0.353 OA
HETATM   31  C19 UNL     1      17.739  -0.780  52.699  1.00  0.00     0.210 C 
ENDBRANCH  10  30
TORSDOF 9
ENDMDL
MODEL 3
REMARK VINA RESULT:      -7.8      2.281      3.132
REMARK  9 active torsions:
REMARK  status: ('A' for Active; 'I' for Inactive)
REMARK    1  A    between atoms: N1_2  and  C2_3 
REMARK    2  A    between atoms: C2_3  and  C3_4 
REMARK    3  A    between atoms: C3_4  and  O1_5 
REMARK    4  A    between atoms: C3_4  and  C4_6 
REMARK    5  A    between atoms: C4_6  and  O2_7 
REMARK    6  A    between atoms: O2_7  and  C5_8 
REMARK    7  A    between atoms: C8_11  and  N2_12 
REMARK    8  A    between atoms: N2_12  and  C9_13 
REMARK    9  A    between atoms: C18_26  and  O3_27 
ROOT
HETATM    1  C5  UNL     1      21.995   2.884  51.836  1.00  0.00     0.103 A 
HETATM    2  C6  UNL     1      23.048   1.982  52.044  1.00  0.00     0.057 A 
HETATM    3  C7  UNL     1      22.709   0.952  52.892  1.00  0.00     0.042 A 
HETATM    4  C8  UNL     1      23.727   0.045  53.127  1.00  0.00     0.142 A 
HETATM    5  N3  UNL     1      23.512  -1.021  53.957  1.00  0.00    -0.224 NA
HETATM    6  C15 UNL     1      22.319  -1.210  54.559  1.00  0.00     0.236 A 
HETATM    7  N4  UNL     1      21.325  -0.333  54.337  1.00  0.00    -0.241 NA
HETATM    8  C16 UNL     1      21.510   0.724  53.523  1.00  0.00     0.075 A 
HETATM    9  C17 UNL     1      20.516   1.649  53.275  1.00  0.00     0.072 A 
HETATM   10  C18 UNL     1      20.750   2.723  52.438  1.00  0.00     0.103 A 
ENDROOT
BRANCH   4  11
HETATM   11  N2  UNL     1      25.040   0.022  52.614  1.00  0.00    -0.340 N 
HETATM   12  H12 UNL     1      24.868  -0.455  51.703  1.00  0.00     0.167 HD
BRANCH  11  13
HETATM   13  C9  UNL     1      26.304   0.467  53.071  1.00  0.00     0.035 A 
HETATM   14  C10 UNL     1      26.394   1.805  53.460  1.00  0.00     0.032 A 
HETATM   15  C11 UNL     1      27.615   2.228  53.916  1.00  0.00     0.046 A 
HETATM   16  C12 UNL     1      28.716   1.393  53.994  1.00  0.00     0.138 A 
HETATM   17  F1  UNL     1      29.940   1.812  54.450  1.00  0.00    -0.204 F 
HETATM   18  C13 UNL     1      28.534   0.071  53.583  1.00  0.00     0.074 A 
HETATM   19 CL1  UNL     1      29.957  -0.977  53.692  1.00  0.00    -0.081 Cl
HETATM   20  C14 UNL     1      27.339  -0.432  53.113  1.00  0.00     0.056 A 
ENDBRANCH  11  13
ENDBRANCH   4  11
BRANCH   1  21
HETATM   21  O2  UNL     1      22.110   3.967  51.040  1.00  0.00    -0.346 OA
BRANCH  21  22
HETATM   22  C4  UNL     1      22.530   5.256  51.243  1.00  0.00     0.209 C 
BRANCH  22  23
HETATM   23  C3  UNL     1      24.010   5.374  51.548  1.00  0.00     0.159 C 
BRANCH  23  24
HETATM   24  C2  UNL     1      24.842   5.422  50.269  1.00  0.00     0.147 C 
BRANCH  24  25
HETATM   25  N1  UNL     1      25.100   4.033  49.925  1.00  0.00    -0.423 N 
HETATM   26  C1  UNL     1      26.460   3.762  49.578  1.00  0.00     0.139 C 
HETATM   27  H4  UNL     1      24.380   3.616  49.326  1.00  0.00     0.152 HD
ENDBRANCH  24  25
ENDBRANCH  23  24
BRANCH  23  28
HETATM   28  O1  UNL     1      24.172   6.658  52.122  1.00  0.00    -0.392 OA
HETATM   29  H8  UNL     1      24.828   6.601  52.882  1.00  0.00     0.210 HD
ENDBRANCH  23  28
ENDBRANCH  22  23
ENDBRANCH  21  22
ENDBRANCH   1  21
BRANCH  10  30
HETATM   30  O3  UNL     1      19.724   3.611  52.227  1.00  0.00    -0.353 OA
HETATM   31  C19 UNL     1      18.587   3.289  51.448  1.00  0.00     0.210 C 
ENDBRANCH  10  30
TORSDOF 9
ENDMDL
MODEL 4
REMARK VINA RESULT:      -7.7      3.630      6.045
REMARK  9 active torsions:
REMARK  status: ('A' for Active; 'I' for Inactive)
REMARK    1  A    between atoms: N1_2  and  C2_3 
REMARK    2  A    between atoms: C2_3  and  C3_4 
REMARK    3  A    between atoms: C3_4  and  O1_5 
REMARK    4  A    between atoms: C3_4  and  C4_6 
REMARK    5  A    between atoms: C4_6  and  O2_7 
REMARK    6  A    between atoms: O2_7  and  C5_8 
REMARK    7  A    between atoms: C8_11  and  N2_12 
REMARK    8  A    between atoms: N2_12  and  C9_13 
REMARK    9  A    between atoms: C18_26  and  O3_27 
ROOT
HETATM    1  C5  UNL     1      23.988   0.736  53.069  1.00  0.00     0.103 A 
HETATM    2  C6  UNL     1      24.175   2.027  52.553  1.00  0.00     0.057 A 
HETATM    3  C7  UNL     1      23.037   2.540  51.974  1.00  0.00     0.042 A 
HETATM    4  C8  UNL     1      23.184   3.811  51.447  1.00  0.00     0.142 A 
HETATM    5  N3  UNL     1      22.124   4.426  50.841  1.00  0.00    -0.224 NA
HETATM    6  C15 UNL     1      20.924   3.815  50.744  1.00  0.00     0.236 A 
HETATM    7  N4  UNL     1      20.771   2.581  51.253  1.00  0.00    -0.241 NA
HETATM    8  C16 UNL     1      21.799   1.954  51.855  1.00  0.00     0.075 A 
HETATM    9  C17 UNL     1      21.683   0.684  52.384  1.00  0.00     0.072 A 
HETATM   10  C18 UNL     1      22.766   0.074  52.988  1.00  0.00     0.103 A 
ENDROOT
BRANCH   4  11
HETATM   11  N2  UNL     1      24.321   4.646  51.433  1.00  0.00    -0.340 N 
HETATM   12  H12 UNL     1      24.265   5.040  52.397  1.00  0.00     0.167 HD
BRANCH  11  13
HETATM   13  C9  UNL     1      25.323   4.961  50.485  1.00  0.00     0.035 A 
HETATM   14  C10 UNL     1      26.104   3.900  50.023  1.00  0.00     0.032 A 
HETATM   15  C11 UNL     1      27.064   4.206  49.095  1.00  0.00     0.046 A 
HETATM   16  C12 UNL     1      27.269   5.492  48.625  1.00  0.00     0.138 A 
HETATM   17  F1  UNL     1      28.228   5.803  47.695  1.00  0.00    -0.204 F 
HETATM   18  C13 UNL     1      26.442   6.490  49.143  1.00  0.00     0.074 A 
HETATM   19 CL1  UNL     1      26.724   8.126  48.527  1.00  0.00    -0.081 Cl
HETATM   20  C14 UNL     1      25.455   6.264  50.079  1.00  0.00     0.056 A 
ENDBRANCH  11  13
ENDBRANCH   4  11
BRANCH   1  21
HETATM   21  O2  UNL     1      24.974   0.046  53.679  1.00  0.00    -0.346 OA
BRANCH  21  22
HETATM   22  C4  UNL     1      25.913  -0.853  53.246  1.00  0.00     0.209 C 
BRANCH  22  23
HETATM   23  C3  UNL     1      27.337  -0.344  53.349  1.00  0.00     0.159 C 
BRANCH  23  24
HETATM   24  C2  UNL     1      27.550   0.467  54.625  1.00  0.00     0.147 C 
BRANCH  24  25
HETATM   25  N1  UNL     1      27.399   1.857  54.226  1.00  0.00    -0.423 N 
HETATM   26  C1  UNL     1      28.554   2.409  53.588  1.00  0.00     0.139 C 
HETATM   27  H4  UNL     1      26.940   2.442  54.931  1.00  0.00     0.152 HD
ENDBRANCH  24  25
ENDBRANCH  23  24
BRANCH  23  28
HETATM   28  O1  UNL     1      28.135  -1.500  53.531  1.00  0.00    -0.392 OA
HETATM   29  H8  UNL     1      28.352  -1.897  52.633  1.00  0.00     0.210 HD
ENDBRANCH  23  28
ENDBRANCH  22  23
ENDBRANCH  21  22
ENDBRANCH   1  21
BRANCH  10  30
HETATM   30  O3  UNL     1      22.593  -1.189  53.498  1.00  0.00    -0.353 OA
HETATM   31  C19 UNL     1      21.532  -1.516  54.376  1.00  0.00     0.210 C 
ENDBRANCH  10  30
TORSDOF 9
ENDMDL
MODEL 5
REMARK VINA RESULT:      -7.6      2.762      5.419
REMARK  9 active torsions:
REMARK  status: ('A' for Active; 'I' for Inactive)
REMARK    1  A    between atoms: N1_2  and  C2_3 
REMARK    2  A    between atoms: C2_3  and  C3_4 
REMARK    3  A    between atoms: C3_4  and  O1_5 
REMARK    4  A    between atoms: C3_4  and  C4_6 
REMARK    5  A    between atoms: C4_6  and  O2_7 
REMARK    6  A    between atoms: O2_7  and  C5_8 
REMARK    7  A    between atoms: C8_11  and  N2_12 
REMARK    8  A    between atoms: N2_12  and  C9_13 
REMARK    9  A    between atoms: C18_26  and  O3_27 
ROOT
HETATM    1  C5  UNL     1      22.345   1.743  51.921  1.00  0.00     0.103 A 
HETATM    2  C6  UNL     1      23.691   1.822  52.306  1.00  0.00     0.057 A 
HETATM    3  C7  UNL     1      24.481   2.434  51.361  1.00  0.00     0.042 A 
HETATM    4  C8  UNL     1      25.819   2.525  51.703  1.00  0.00     0.142 A 
HETATM    5  N3  UNL     1      26.706   3.111  50.842  1.00  0.00    -0.224 NA
HETATM    6  C15 UNL     1      26.302   3.607  49.654  1.00  0.00     0.236 A 
HETATM    7  N4  UNL     1      25.005   3.523  49.313  1.00  0.00    -0.241 NA
HETATM    8  C16 UNL     1      24.112   2.952  50.143  1.00  0.00     0.075 A 
HETATM    9  C17 UNL     1      22.773   2.842  49.825  1.00  0.00     0.072 A 
HETATM   10  C18 UNL     1      21.890   2.243  50.704  1.00  0.00     0.103 A 
ENDROOT
BRANCH   4  11
HETATM   11  N2  UNL     1      26.472   2.094  52.877  1.00  0.00    -0.340 N 
HETATM   12  H12 UNL     1      25.973   2.676  53.583  1.00  0.00     0.167 HD
BRANCH  11  13
HETATM   13  C9  UNL     1      27.503   1.170  53.170  1.00  0.00     0.035 A 
HETATM   14  C10 UNL     1      28.655   1.684  53.769  1.00  0.00     0.032 A 
HETATM   15  C11 UNL     1      29.644   0.785  54.064  1.00  0.00     0.046 A 
HETATM   16  C12 UNL     1      29.533  -0.568  53.792  1.00  0.00     0.138 A 
HETATM   17  F1  UNL     1      30.521  -1.473  54.087  1.00  0.00    -0.204 F 
HETATM   18  C13 UNL     1      28.346  -0.993  53.192  1.00  0.00     0.074 A 
HETATM   19 CL1  UNL     1      28.228  -2.727  52.854  1.00  0.00    -0.081 Cl
HETATM   20  C14 UNL     1      27.305  -0.152  52.863  1.00  0.00     0.056 A 
ENDBRANCH  11  13
ENDBRANCH   4  11
BRANCH   1  21
HETATM   21  O2  UNL     1      21.397   1.180  52.698  1.00  0.00    -0.346 OA
BRANCH  21  22
HETATM   22  C4  UNL     1      20.681   0.013  52.630  1.00  0.00     0.209 C 
BRANCH  22  23
HETATM   23  C3  UNL     1      20.568  -0.711  53.957  1.00  0.00     0.159 C 
BRANCH  23  24
HETATM   24  C2  UNL     1      21.798  -1.571  54.232  1.00  0.00     0.147 C 
BRANCH  24  25
HETATM   25  N1  UNL     1      22.732  -0.697  54.923  1.00  0.00    -0.423 N 
HETATM   26  C1  UNL     1      24.107  -1.036  54.720  1.00  0.00     0.139 C 
HETATM   27  H4  UNL     1      22.452  -0.469  55.882  1.00  0.00     0.152 HD
ENDBRANCH  24  25
ENDBRANCH  23  24
BRANCH  23  28
HETATM   28  O1  UNL     1      20.623   0.305  54.943  1.00  0.00    -0.392 OA
HETATM   29  H8  UNL     1      21.577   0.434  55.232  1.00  0.00     0.210 HD
ENDBRANCH  23  28
ENDBRANCH  22  23
ENDBRANCH  21  22
ENDBRANCH   1  21
BRANCH  10  30
HETATM   30  O3  UNL     1      20.570   2.162  50.336  1.00  0.00    -0.353 OA
HETATM   31  C19 UNL     1      20.163   1.728  49.052  1.00  0.00     0.210 C 
ENDBRANCH  10  30
TORSDOF 9
ENDMDL
MODEL 6
REMARK VINA RESULT:      -7.6      3.035      4.758
REMARK  9 active torsions:
REMARK  status: ('A' for Active; 'I' for Inactive)
REMARK    1  A    between atoms: N1_2  and  C2_3 
REMARK    2  A    between atoms: C2_3  and  C3_4 
REMARK    3  A    between atoms: C3_4  and  O1_5 
REMARK    4  A    between atoms: C3_4  and  C4_6 
REMARK    5  A    between atoms: C4_6  and  O2_7 
REMARK    6  A    between atoms: O2_7  and  C5_8 
REMARK    7  A    between atoms: C8_11  and  N2_12 
REMARK    8  A    between atoms: N2_12  and  C9_13 
REMARK    9  A    between atoms: C18_26  and  O3_27 
ROOT
HETATM    1  C5  UNL     1      28.016   5.935  48.285  1.00  0.00     0.103 A 
HETATM    2  C6  UNL     1      27.570   4.793  48.965  1.00  0.00     0.057 A 
HETATM    3  C7  UNL     1      26.244   4.869  49.323  1.00  0.00     0.042 A 
HETATM    4  C8  UNL     1      25.769   3.762  50.003  1.00  0.00     0.142 A 
HETATM    5  N3  UNL     1      24.465   3.721  50.416  1.00  0.00    -0.224 NA
HETATM    6  C15 UNL     1      23.623   4.748  50.174  1.00  0.00     0.236 A 
HETATM    7  N4  UNL     1      24.076   5.828  49.515  1.00  0.00    -0.241 NA
HETATM    8  C16 UNL     1      25.354   5.892  49.097  1.00  0.00     0.075 A 
HETATM    9  C17 UNL     1      25.857   6.986  48.422  1.00  0.00     0.072 A 
HETATM   10  C18 UNL     1      27.178   7.014  48.016  1.00  0.00     0.103 A 
ENDROOT
BRANCH   4  11
HETATM   11  N2  UNL     1      26.444   2.576  50.362  1.00  0.00    -0.340 N 
HETATM   12  H12 UNL     1      26.729   2.239  49.418  1.00  0.00     0.167 HD
BRANCH  11  13
HETATM   13  C9  UNL     1      26.729   1.913  51.580  1.00  0.00     0.035 A 
HETATM   14  C10 UNL     1      25.903   0.839  51.917  1.00  0.00     0.032 A 
HETATM   15  C11 UNL     1      26.191   0.191  53.089  1.00  0.00     0.046 A 
HETATM   16  C12 UNL     1      27.240   0.562  53.912  1.00  0.00     0.138 A 
HETATM   17  F1  UNL     1      27.532  -0.085  55.086  1.00  0.00    -0.204 F 
HETATM   18  C13 UNL     1      28.013   1.647  53.496  1.00  0.00     0.074 A 
HETATM   19 CL1  UNL     1      29.348   2.103  54.566  1.00  0.00    -0.081 Cl
HETATM   20  C14 UNL     1      27.788   2.352  52.332  1.00  0.00     0.056 A 
ENDBRANCH  11  13
ENDBRANCH   4  11
BRANCH   1  21
HETATM   21  O2  UNL     1      29.284   6.071  47.843  1.00  0.00    -0.346 OA
BRANCH  21  22
HETATM   22  C4  UNL     1      30.391   5.264  47.867  1.00  0.00     0.209 C 
BRANCH  22  23
HETATM   23  C3  UNL     1      31.506   5.784  48.751  1.00  0.00     0.159 C 
BRANCH  23  24
HETATM   24  C2  UNL     1      31.712   7.285  48.566  1.00  0.00     0.147 C 
BRANCH  24  25
HETATM   25  N1  UNL     1      30.998   7.909  49.669  1.00  0.00    -0.423 N 
HETATM   26  C1  UNL     1      30.334   9.127  49.318  1.00  0.00     0.139 C 
HETATM   27  H4  UNL     1      31.519   7.907  50.551  1.00  0.00     0.152 HD
ENDBRANCH  24  25
ENDBRANCH  23  24
BRANCH  23  28
HETATM   28  O1  UNL     1      31.022   5.656  50.076  1.00  0.00    -0.392 OA
HETATM   29  H8  UNL     1      30.810   6.570  50.441  1.00  0.00     0.210 HD
ENDBRANCH  23  28
ENDBRANCH  22  23
ENDBRANCH  21  22
ENDBRANCH   1  21
BRANCH  10  30
HETATM   30  O3  UNL     1      27.624   8.127  47.348  1.00  0.00    -0.353 OA
HETATM   31  C19 UNL     1      27.072   8.546  46.114  1.00  0.00     0.210 C 
ENDBRANCH  10  30
TORSDOF 9
ENDMDL
MODEL 7
REMARK VINA RESULT:      -7.5      5.843      9.511
REMARK  9 active torsions:
REMARK  status: ('A' for Active; 'I' for Inactive)
REMARK    1  A    between atoms: N1_2  and  C2_3 
REMARK    2  A    between atoms: C2_3  and  C3_4 
REMARK    3  A    between atoms: C3_4  and  O1_5 
REMARK    4  A    between atoms: C3_4  and  C4_6 
REMARK    5  A    between atoms: C4_6  and  O2_7 
REMARK    6  A    between atoms: O2_7  and  C5_8 
REMARK    7  A    between atoms: C8_11  and  N2_12 
REMARK    8  A    between atoms: N2_12  and  C9_13 
REMARK    9  A    between atoms: C18_26  and  O3_27 
ROOT
HETATM    1  C5  UNL     1      31.915   5.329  48.362  1.00  0.00     0.103 A 
HETATM    2  C6  UNL     1      30.574   5.725  48.258  1.00  0.00     0.057 A 
HETATM    3  C7  UNL     1      30.391   7.064  48.515  1.00  0.00     0.042 A 
HETATM    4  C8  UNL     1      29.078   7.491  48.429  1.00  0.00     0.142 A 
HETATM    5  N3  UNL     1      28.769   8.802  48.667  1.00  0.00    -0.224 NA
HETATM    6  C15 UNL     1      29.726   9.698  48.989  1.00  0.00     0.236 A 
HETATM    7  N4  UNL     1      31.004   9.293  49.075  1.00  0.00    -0.241 NA
HETATM    8  C16 UNL     1      31.334   8.008  48.845  1.00  0.00     0.075 A 
HETATM    9  C17 UNL     1      32.635   7.552  48.930  1.00  0.00     0.072 A 
HETATM   10  C18 UNL     1      32.930   6.224  48.691  1.00  0.00     0.103 A 
ENDROOT
BRANCH   4  11
HETATM   11  N2  UNL     1      27.919   6.755  48.105  1.00  0.00    -0.340 N 
HETATM   12  H12 UNL     1      27.906   6.888  47.071  1.00  0.00     0.167 HD
BRANCH  11  13
HETATM   13  C9  UNL     1      26.964   6.012  48.839  1.00  0.00     0.035 A 
HETATM   14  C10 UNL     1      27.117   4.624  48.842  1.00  0.00     0.032 A 
HETATM   15  C11 UNL     1      26.200   3.909  49.566  1.00  0.00     0.046 A 
HETATM   16  C12 UNL     1      25.166   4.508  50.265  1.00  0.00     0.138 A 
HETATM   17  F1  UNL     1      24.246   3.796  50.991  1.00  0.00    -0.204 F 
HETATM   18  C13 UNL     1      25.090   5.900  50.206  1.00  0.00     0.074 A 
HETATM   19 CL1  UNL     1      23.759   6.642  51.108  1.00  0.00    -0.081 Cl
HETATM   20  C14 UNL     1      25.973   6.691  49.501  1.00  0.00     0.056 A 
ENDBRANCH  11  13
ENDBRANCH   4  11
BRANCH   1  21
HETATM   21  O2  UNL     1      32.318   4.059  48.151  1.00  0.00    -0.346 OA
BRANCH  21  22
HETATM   22  C4  UNL     1      32.628   3.333  47.030  1.00  0.00     0.209 C 
BRANCH  22  23
HETATM   23  C3  UNL     1      34.024   2.744  47.052  1.00  0.00     0.159 C 
BRANCH  23  24
HETATM   24  C2  UNL     1      34.993   3.569  46.209  1.00  0.00     0.147 C 
BRANCH  24  25
HETATM   25  N1  UNL     1      34.205   4.677  45.692  1.00  0.00    -0.423 N 
HETATM   26  C1  UNL     1      34.389   4.920  44.295  1.00  0.00     0.139 C 
HETATM   27  H4  UNL     1      34.197   5.498  46.305  1.00  0.00     0.152 HD
ENDBRANCH  24  25
ENDBRANCH  23  24
BRANCH  23  28
HETATM   28  O1  UNL     1      34.481   2.916  48.382  1.00  0.00    -0.392 OA
HETATM   29  H8  UNL     1      34.337   3.872  48.661  1.00  0.00     0.210 HD
ENDBRANCH  23  28
ENDBRANCH  22  23
ENDBRANCH  21  22
ENDBRANCH   1  21
BRANCH  10  30
HETATM   30  O3  UNL     1      34.241   5.827  48.789  1.00  0.00    -0.353 OA
HETATM   31  C19 UNL     1      35.322   6.706  48.544  1.00  0.00     0.210 C 
ENDBRANCH  10  30
TORSDOF 9
ENDMDL
MODEL 8
REMARK VINA RESULT:      -7.4      3.371      6.240
REMARK  9 active torsions:
REMARK  status: ('A' for Active; 'I' for Inactive)
REMARK    1  A    between atoms: N1_2  and  C2_3 
REMARK    2  A    between atoms: C2_3  and  C3_4 
REMARK    3  A    between atoms: C3_4  and  O1_5 
REMARK    4  A    between atoms: C3_4  and  C4_6 
REMARK    5  A    between atoms: C4_6  and  O2_7 
REMARK    6  A    between atoms: O2_7  and  C5_8 
REMARK    7  A    between atoms: C8_11  and  N2_12 
REMARK    8  A    between atoms: N2_12  and  C9_13 
REMARK    9  A    between atoms: C18_26  and  O3_27 
ROOT
HETATM    1  C5  UNL     1      25.241   0.404  52.908  1.00  0.00     0.103 A 
HETATM    2  C6  UNL     1      24.588   1.156  51.921  1.00  0.00     0.057 A 
HETATM    3  C7  UNL     1      23.224   0.972  51.926  1.00  0.00     0.042 A 
HETATM    4  C8  UNL     1      22.544   1.693  50.961  1.00  0.00     0.142 A 
HETATM    5  N3  UNL     1      21.184   1.590  50.863  1.00  0.00    -0.224 NA
HETATM    6  C15 UNL     1      20.482   0.792  51.694  1.00  0.00     0.236 A 
HETATM    7  N4  UNL     1      21.133   0.087  52.635  1.00  0.00    -0.241 NA
HETATM    8  C16 UNL     1      22.472   0.172  52.753  1.00  0.00     0.075 A 
HETATM    9  C17 UNL     1      23.177  -0.541  53.702  1.00  0.00     0.072 A 
HETATM   10  C18 UNL     1      24.552  -0.430  53.785  1.00  0.00     0.103 A 
ENDROOT
BRANCH   4  11
HETATM   11  N2  UNL     1      23.049   2.589  49.995  1.00  0.00    -0.340 N 
HETATM   12  H12 UNL     1      22.652   2.163  49.130  1.00  0.00     0.167 HD
BRANCH  11  13
HETATM   13  C9  UNL     1      23.856   3.751  50.029  1.00  0.00     0.035 A 
HETATM   14  C10 UNL     1      23.384   4.820  50.794  1.00  0.00     0.032 A 
HETATM   15  C11 UNL     1      24.174   5.937  50.837  1.00  0.00     0.046 A 
HETATM   16  C12 UNL     1      25.382   6.027  50.165  1.00  0.00     0.138 A 
HETATM   17  F1  UNL     1      26.177   7.144  50.206  1.00  0.00    -0.204 F 
HETATM   18  C13 UNL     1      25.775   4.911  49.426  1.00  0.00     0.074 A 
HETATM   19 CL1  UNL     1      27.322   5.050  48.577  1.00  0.00    -0.081 Cl
HETATM   20  C14 UNL     1      25.037   3.750  49.332  1.00  0.00     0.056 A 
ENDBRANCH  11  13
ENDBRANCH   4  11
BRANCH   1  21
HETATM   21  O2  UNL     1      26.579   0.434  53.080  1.00  0.00    -0.346 OA
BRANCH  21  22
HETATM   22  C4  UNL     1      27.527   1.420  52.991  1.00  0.00     0.209 C 
BRANCH  22  23
HETATM   23  C3  UNL     1      28.627   1.302  54.027  1.00  0.00     0.159 C 
BRANCH  23  24
HETATM   24  C2  UNL     1      28.685  -0.101  54.625  1.00  0.00     0.147 C 
BRANCH  24  25
HETATM   25  N1  UNL     1      29.636  -0.830  53.801  1.00  0.00    -0.423 N 
HETATM   26  C1  UNL     1      29.129  -2.061  53.278  1.00  0.00     0.139 C 
HETATM   27  H4  UNL     1      30.585  -0.851  54.187  1.00  0.00     0.152 HD
ENDBRANCH  24  25
ENDBRANCH  23  24
BRANCH  23  28
HETATM   28  O1  UNL     1      29.838   1.425  53.302  1.00  0.00    -0.392 OA
HETATM   29  H8  UNL     1      30.283   2.294  53.545  1.00  0.00     0.210 HD
ENDBRANCH  23  28
ENDBRANCH  22  23
ENDBRANCH  21  22
ENDBRANCH   1  21
BRANCH  10  30
HETATM   30  O3  UNL     1      25.201  -1.161  54.748  1.00  0.00    -0.353 OA
HETATM   31  C19 UNL     1      25.110  -0.853  56.127  1.00  0.00     0.210 C 
ENDBRANCH  10  30
TORSDOF 9
ENDMDL
MODEL 9
REMARK VINA RESULT:      -7.4      3.517      6.388
REMARK  9 active torsions:
REMARK  status: ('A' for Active; 'I' for Inactive)
REMARK    1  A    between atoms: N1_2  and  C2_3 
REMARK    2  A    between atoms: C2_3  and  C3_4 
REMARK    3  A    between atoms: C3_4  and  O1_5 
REMARK    4  A    between atoms: C3_4  and  C4_6 
REMARK    5  A    between atoms: C4_6  and  O2_7 
REMARK    6  A    between atoms: O2_7  and  C5_8 
REMARK    7  A    between atoms: C8_11  and  N2_12 
REMARK    8  A    between atoms: N2_12  and  C9_13 
REMARK    9  A    between atoms: C18_26  and  O3_27 
ROOT
HETATM    1  C5  UNL     1      24.202   1.425  53.110  1.00  0.00     0.103 A 
HETATM    2  C6  UNL     1      24.062   2.732  52.623  1.00  0.00     0.057 A 
HETATM    3  C7  UNL     1      22.762   3.042  52.294  1.00  0.00     0.042 A 
HETATM    4  C8  UNL     1      22.585   4.323  51.803  1.00  0.00     0.142 A 
HETATM    5  N3  UNL     1      21.337   4.747  51.436  1.00  0.00    -0.224 NA
HETATM    6  C15 UNL     1      20.263   3.936  51.543  1.00  0.00     0.236 A 
HETATM    7  N4  UNL     1      20.426   2.689  52.019  1.00  0.00    -0.241 NA
HETATM    8  C16 UNL     1      21.644   2.248  52.387  1.00  0.00     0.075 A 
HETATM    9  C17 UNL     1      21.852   0.973  52.874  1.00  0.00     0.072 A 
HETATM   10  C18 UNL     1      23.120   0.558  53.235  1.00  0.00     0.103 A 
ENDROOT
BRANCH   4  11
HETATM   11  N2  UNL     1      23.537   5.346  51.609  1.00  0.00    -0.340 N 
HETATM   12  H12 UNL     1      23.556   5.756  52.567  1.00  0.00     0.167 HD
BRANCH  11  13
HETATM   13  C9  UNL     1      24.312   5.801  50.516  1.00  0.00     0.035 A 
HETATM   14  C10 UNL     1      23.868   6.957  49.871  1.00  0.00     0.032 A 
HETATM   15  C11 UNL     1      24.628   7.403  48.823  1.00  0.00     0.046 A 
HETATM   16  C12 UNL     1      25.781   6.759  48.406  1.00  0.00     0.138 A 
HETATM   17  F1  UNL     1      26.546   7.203  47.358  1.00  0.00    -0.204 F 
HETATM   18  C13 UNL     1      26.150   5.611  49.110  1.00  0.00     0.074 A 
HETATM   19 CL1  UNL     1      27.627   4.806  48.557  1.00  0.00    -0.081 Cl
HETATM   20  C14 UNL     1      25.439   5.098  50.174  1.00  0.00     0.056 A 
ENDBRANCH  11  13
ENDBRANCH   4  11
BRANCH   1  21
HETATM   21  O2  UNL     1      25.392   0.913  53.491  1.00  0.00    -0.346 OA
BRANCH  21  22
HETATM   22  C4  UNL     1      26.619   0.809  52.890  1.00  0.00     0.209 C 
BRANCH  22  23
HETATM   23  C3  UNL     1      27.627   1.827  53.382  1.00  0.00     0.159 C 
BRANCH  23  24
HETATM   24  C2  UNL     1      29.016   1.211  53.531  1.00  0.00     0.147 C 
BRANCH  24  25
HETATM   25  N1  UNL     1      28.798  -0.078  54.168  1.00  0.00    -0.423 N 
HETATM   26  C1  UNL     1      29.667  -1.113  53.700  1.00  0.00     0.139 C 
HETATM   27  H4  UNL     1      27.809  -0.323  54.277  1.00  0.00     0.152 HD
ENDBRANCH  24  25
ENDBRANCH  23  24
BRANCH  23  28
HETATM   28  O1  UNL     1      27.768   2.757  52.324  1.00  0.00    -0.392 OA
HETATM   29  H8  UNL     1      26.974   2.683  51.710  1.00  0.00     0.210 HD
ENDBRANCH  23  28
ENDBRANCH  22  23
ENDBRANCH  21  22
ENDBRANCH   1  21
BRANCH  10  30
HETATM   30  O3  UNL     1      23.268  -0.720  53.714  1.00  0.00    -0.353 OA
HETATM   31  C19 UNL     1      22.471  -1.236  54.764  1.00  0.00     0.210 C 
ENDBRANCH  10  30
TORSDOF 9
ENDMDL
