MODEL 1
REMARK VINA RESULT:      -8.0      0.000      0.000
REMARK  3 active torsions:
REMARK  status: ('A' for Active; 'I' for Inactive)
REMARK    1  A    between atoms: C11_11  and  C12_12 
REMARK    2  A    between atoms: C12_12  and  N1_13 
REMARK    3  A    between atoms: C13_14  and  C14_15 
ROOT
HETATM    1  C1  UNL     1      18.426   2.317  51.559  1.00  0.00     0.067 C 
HETATM    2  C2  UNL     1      19.763   1.676  51.815  1.00  0.00    -0.002 C 
HETATM    3  C3  UNL     1      20.813   2.508  51.962  1.00  0.00     0.005 C 
HETATM    4  C4  UNL     1      21.946   1.613  52.195  1.00  0.00     0.049 C 
HETATM    5  C5  UNL     1      21.488   0.357  51.408  1.00  0.00     0.113 C 
HETATM    6  C6  UNL     1      21.397   0.637  49.966  1.00  0.00    -0.001 C 
HETATM    7  C7  UNL     1      21.644   1.409  48.884  1.00  0.00    -0.002 C 
HETATM    8  C8  UNL     1      22.315   2.681  48.610  1.00  0.00    -0.000 C 
HETATM    9  C9  UNL     1      22.992   3.632  49.172  1.00  0.00     0.000 C 
HETATM   10  C10 UNL     1      23.539   4.023  50.464  1.00  0.00     0.005 C 
HETATM   11  C11 UNL     1      23.596   3.431  51.682  1.00  0.00    -0.043 C 
HETATM   12  C13 UNL     1      23.268   2.027  51.716  1.00  0.00     0.059 C 
HETATM   13  N2  UNL     1      20.109   0.282  51.926  1.00  0.00    -0.385 N 
HETATM   14  H21 UNL     1      19.340  -0.304  52.306  1.00  0.00     0.160 HD
ENDROOT
BRANCH  12  15
HETATM   15  C14 UNL     1      24.352   1.123  52.232  1.00  0.00    -0.049 A 
HETATM   16  C15 UNL     1      25.616   1.076  51.650  1.00  0.00     0.011 A 
HETATM   17  C16 UNL     1      26.676   0.291  52.036  1.00  0.00     0.043 A 
HETATM   18  C17 UNL     1      26.458  -0.537  53.115  1.00  0.00     0.116 A 
HETATM   19  F1  UNL     1      27.477  -1.327  53.526  1.00  0.00    -0.206 F 
HETATM   20  C18 UNL     1      25.239  -0.559  53.755  1.00  0.00     0.043 A 
HETATM   21  C19 UNL     1      24.233   0.247  53.319  1.00  0.00     0.011 A 
ENDBRANCH  12  15
BRANCH  11  22
HETATM   22  C12 UNL     1      24.110   3.773  53.034  1.00  0.00     0.301 C 
BRANCH  22  23
HETATM   23  N1  UNL     1      23.823   5.195  53.320  1.00  0.00     0.082 N 
HETATM   24  H14 UNL     1      24.286   5.833  52.664  1.00  0.00     0.313 HD
HETATM   25  H15 UNL     1      24.037   5.457  54.287  1.00  0.00     0.313 HD
ENDBRANCH  22  23
ENDBRANCH  11  22
TORSDOF 3
ENDMDL
MODEL 2
REMARK VINA RESULT:      -7.5      2.593      4.839
REMARK  3 active torsions:
REMARK  status: ('A' for Active; 'I' for Inactive)
REMARK    1  A    between atoms: C11_11  and  C12_12 
REMARK    2  A    between atoms: C12_12  and  N1_13 
REMARK    3  A    between atoms: C13_14  and  C14_15 
ROOT
HETATM    1  C1  UNL     1      26.332   4.309  49.687  1.00  0.00     0.067 C 
HETATM    2  C2  UNL     1      25.556   3.371  50.571  1.00  0.00    -0.002 C 
HETATM    3  C3  UNL     1      24.335   3.001  50.135  1.00  0.00     0.005 C 
HETATM    4  C4  UNL     1      23.839   2.108  51.181  1.00  0.00     0.049 C 
HETATM    5  C5  UNL     1      24.566   2.687  52.424  1.00  0.00     0.113 C 
HETATM    6  C6  UNL     1      24.109   4.055  52.717  1.00  0.00    -0.001 C 
HETATM    7  C7  UNL     1      23.247   5.084  52.554  1.00  0.00    -0.002 C 
HETATM    8  C8  UNL     1      22.032   5.348  51.781  1.00  0.00    -0.000 C 
HETATM    9  C9  UNL     1      21.193   4.800  50.960  1.00  0.00     0.000 C 
HETATM   10  C10 UNL     1      20.921   3.533  50.295  1.00  0.00     0.005 C 
HETATM   11  C11 UNL     1      21.483   2.301  50.348  1.00  0.00    -0.043 C 
HETATM   12  C13 UNL     1      22.398   2.071  51.439  1.00  0.00     0.059 C 
HETATM   13  N2  UNL     1      25.917   2.794  51.842  1.00  0.00    -0.385 N 
HETATM   14  H21 UNL     1      26.939   2.643  51.949  1.00  0.00     0.160 HD
ENDROOT
BRANCH  12  15
HETATM   15  C14 UNL     1      22.028   0.948  52.366  1.00  0.00    -0.049 A 
HETATM   16  C15 UNL     1      20.894   0.998  53.173  1.00  0.00     0.011 A 
HETATM   17  C16 UNL     1      20.464   0.035  54.053  1.00  0.00     0.043 A 
HETATM   18  C17 UNL     1      21.241  -1.099  54.144  1.00  0.00     0.116 A 
HETATM   19  F1  UNL     1      20.851  -2.071  55.001  1.00  0.00    -0.206 F 
HETATM   20  C18 UNL     1      22.382  -1.237  53.384  1.00  0.00     0.043 A 
HETATM   21  C19 UNL     1      22.748  -0.242  52.531  1.00  0.00     0.011 A 
ENDBRANCH  12  15
BRANCH  11  22
HETATM   22  C12 UNL     1      21.278   0.984  49.690  1.00  0.00     0.301 C 
BRANCH  22  23
HETATM   23  N1  UNL     1      21.723   1.067  48.282  1.00  0.00     0.082 N 
HETATM   24  H14 UNL     1      20.973   0.858  47.615  1.00  0.00     0.313 HD
HETATM   25  H15 UNL     1      22.546   0.486  48.091  1.00  0.00     0.313 HD
ENDBRANCH  22  23
ENDBRANCH  11  22
TORSDOF 3
ENDMDL
MODEL 3
REMARK VINA RESULT:      -7.1      3.583      5.240
REMARK  3 active torsions:
REMARK  status: ('A' for Active; 'I' for Inactive)
REMARK    1  A    between atoms: C11_11  and  C12_12 
REMARK    2  A    between atoms: C12_12  and  N1_13 
REMARK    3  A    between atoms: C13_14  and  C14_15 
ROOT
HETATM    1  C1  UNL     1      20.790   1.339  48.906  1.00  0.00     0.067 C 
HETATM    2  C2  UNL     1      21.967   2.254  48.704  1.00  0.00    -0.002 C 
HETATM    3  C3  UNL     1      22.916   2.240  49.661  1.00  0.00     0.005 C 
HETATM    4  C4  UNL     1      23.908   3.208  49.194  1.00  0.00     0.049 C 
HETATM    5  C5  UNL     1      23.006   4.178  48.385  1.00  0.00     0.113 C 
HETATM    6  C6  UNL     1      22.050   4.871  49.264  1.00  0.00    -0.001 C 
HETATM    7  C7  UNL     1      21.603   5.234  50.487  1.00  0.00    -0.002 C 
HETATM    8  C8  UNL     1      22.011   5.030  51.878  1.00  0.00    -0.000 C 
HETATM    9  C9  UNL     1      22.931   4.492  52.614  1.00  0.00     0.000 C 
HETATM   10  C10 UNL     1      24.180   3.749  52.505  1.00  0.00     0.005 C 
HETATM   11  C11 UNL     1      24.956   3.358  51.466  1.00  0.00    -0.043 C 
HETATM   12  C13 UNL     1      24.661   3.969  50.194  1.00  0.00     0.059 C 
HETATM   13  N2  UNL     1      22.247   3.168  47.625  1.00  0.00    -0.385 N 
HETATM   14  H21 UNL     1      21.857   2.859  46.712  1.00  0.00     0.160 HD
ENDROOT
BRANCH  12  15
HETATM   15  C14 UNL     1      25.790   4.738  49.569  1.00  0.00    -0.049 A 
HETATM   16  C15 UNL     1      25.751   6.123  49.425  1.00  0.00     0.011 A 
HETATM   17  C16 UNL     1      26.721   6.924  48.871  1.00  0.00     0.043 A 
HETATM   18  C17 UNL     1      27.850   6.283  48.410  1.00  0.00     0.116 A 
HETATM   19  F1  UNL     1      28.828   7.036  47.856  1.00  0.00    -0.206 F 
HETATM   20  C18 UNL     1      27.977   4.915  48.510  1.00  0.00     0.043 A 
HETATM   21  C19 UNL     1      26.976   4.183  49.072  1.00  0.00     0.011 A 
ENDBRANCH  12  15
BRANCH  11  22
HETATM   22  C12 UNL     1      26.213   2.588  51.278  1.00  0.00     0.301 C 
BRANCH  22  23
HETATM   23  N1  UNL     1      26.958   2.549  52.556  1.00  0.00     0.082 N 
HETATM   24  H14 UNL     1      27.042   1.600  52.937  1.00  0.00     0.313 HD
HETATM   25  H15 UNL     1      26.572   3.186  53.260  1.00  0.00     0.313 HD
ENDBRANCH  22  23
ENDBRANCH  11  22
TORSDOF 3
ENDMDL
MODEL 4
REMARK VINA RESULT:      -6.8      9.931     12.378
REMARK  3 active torsions:
REMARK  status: ('A' for Active; 'I' for Inactive)
REMARK    1  A    between atoms: C11_11  and  C12_12 
REMARK    2  A    between atoms: C12_12  and  N1_13 
REMARK    3  A    between atoms: C13_14  and  C14_15 
ROOT
HETATM    1  C1  UNL     1      35.033   3.410  46.151  1.00  0.00     0.067 C 
HETATM    2  C2  UNL     1      33.851   4.125  46.746  1.00  0.00    -0.002 C 
HETATM    3  C3  UNL     1      33.427   5.231  46.102  1.00  0.00     0.005 C 
HETATM    4  C4  UNL     1      32.290   5.693  46.898  1.00  0.00     0.049 C 
HETATM    5  C5  UNL     1      32.697   5.183  48.306  1.00  0.00     0.113 C 
HETATM    6  C6  UNL     1      33.914   5.860  48.784  1.00  0.00    -0.001 C 
HETATM    7  C7  UNL     1      34.841   6.841  48.706  1.00  0.00    -0.002 C 
HETATM    8  C8  UNL     1      35.101   7.999  47.849  1.00  0.00    -0.000 C 
HETATM    9  C9  UNL     1      34.627   8.666  46.845  1.00  0.00     0.000 C 
HETATM   10  C10 UNL     1      33.493   8.685  45.931  1.00  0.00     0.005 C 
HETATM   11  C11 UNL     1      32.353   7.959  45.827  1.00  0.00    -0.043 C 
HETATM   12  C13 UNL     1      32.027   7.133  46.963  1.00  0.00     0.059 C 
HETATM   13  N2  UNL     1      33.083   3.812  47.925  1.00  0.00    -0.385 N 
HETATM   14  H21 UNL     1      33.040   2.794  48.129  1.00  0.00     0.160 HD
ENDROOT
BRANCH  12  15
HETATM   15  C14 UNL     1      30.706   7.425  47.617  1.00  0.00    -0.049 A 
HETATM   16  C15 UNL     1      30.503   8.560  48.398  1.00  0.00     0.011 A 
HETATM   17  C16 UNL     1      29.344   8.924  49.040  1.00  0.00     0.043 A 
HETATM   18  C17 UNL     1      28.271   8.072  48.893  1.00  0.00     0.116 A 
HETATM   19  F1  UNL     1      27.112   8.395  49.510  1.00  0.00    -0.206 F 
HETATM   20  C18 UNL     1      28.380   6.925  48.138  1.00  0.00     0.043 A 
HETATM   21  C19 UNL     1      29.559   6.626  47.528  1.00  0.00     0.011 A 
ENDBRANCH  12  15
BRANCH  11  22
HETATM   22  C12 UNL     1      31.177   7.905  44.921  1.00  0.00     0.301 C 
BRANCH  22  23
HETATM   23  N1  UNL     1      31.598   7.371  43.607  1.00  0.00     0.082 N 
HETATM   24  H14 UNL     1      32.475   7.784  43.272  1.00  0.00     0.313 HD
HETATM   25  H15 UNL     1      30.867   7.453  42.893  1.00  0.00     0.313 HD
ENDBRANCH  22  23
ENDBRANCH  11  22
TORSDOF 3
ENDMDL
MODEL 5
REMARK VINA RESULT:      -6.7      2.473      4.940
REMARK  3 active torsions:
REMARK  status: ('A' for Active; 'I' for Inactive)
REMARK    1  A    between atoms: C11_11  and  C12_12 
REMARK    2  A    between atoms: C12_12  and  N1_13 
REMARK    3  A    between atoms: C13_14  and  C14_15 
ROOT
HETATM    1  C1  UNL     1      25.293   6.790  48.152  1.00  0.00     0.067 C 
HETATM    2  C2  UNL     1      24.985   5.713  49.157  1.00  0.00    -0.002 C 
HETATM    3  C3  UNL     1      24.028   4.827  48.819  1.00  0.00     0.005 C 
HETATM    4  C4  UNL     1      23.958   3.924  49.967  1.00  0.00     0.049 C 
HETATM    5  C5  UNL     1      24.385   4.879  51.113  1.00  0.00     0.113 C 
HETATM    6  C6  UNL     1      23.400   5.957  51.300  1.00  0.00    -0.001 C 
HETATM    7  C7  UNL     1      22.186   6.513  51.086  1.00  0.00    -0.002 C 
HETATM    8  C8  UNL     1      20.967   6.166  50.354  1.00  0.00    -0.000 C 
HETATM    9  C9  UNL     1      20.427   5.237  49.631  1.00  0.00     0.000 C 
HETATM   10  C10 UNL     1      20.705   3.909  49.100  1.00  0.00     0.005 C 
HETATM   11  C11 UNL     1      21.730   3.034  49.238  1.00  0.00    -0.043 C 
HETATM   12  C13 UNL     1      22.665   3.320  50.299  1.00  0.00     0.059 C 
HETATM   13  N2  UNL     1      25.563   5.475  50.456  1.00  0.00    -0.385 N 
HETATM   14  H21 UNL     1      26.556   5.773  50.525  1.00  0.00     0.160 HD
ENDROOT
BRANCH  12  15
HETATM   15  C14 UNL     1      22.804   2.249  51.343  1.00  0.00    -0.049 A 
HETATM   16  C15 UNL     1      21.738   1.858  52.149  1.00  0.00     0.011 A 
HETATM   17  C16 UNL     1      21.753   0.896  53.130  1.00  0.00     0.043 A 
HETATM   18  C17 UNL     1      22.955   0.254  53.336  1.00  0.00     0.116 A 
HETATM   19  F1  UNL     1      23.011  -0.699  54.294  1.00  0.00    -0.206 F 
HETATM   20  C18 UNL     1      24.065   0.575  52.586  1.00  0.00     0.043 A 
HETATM   21  C19 UNL     1      23.977   1.539  51.629  1.00  0.00     0.011 A 
ENDBRANCH  12  15
BRANCH  11  22
HETATM   22  C12 UNL     1      22.090   1.690  48.717  1.00  0.00     0.301 C 
BRANCH  22  23
HETATM   23  N1  UNL     1      22.589   1.821  47.330  1.00  0.00     0.082 N 
HETATM   24  H14 UNL     1      22.540   2.784  46.981  1.00  0.00     0.313 HD
HETATM   25  H15 UNL     1      22.128   1.178  46.679  1.00  0.00     0.313 HD
ENDBRANCH  22  23
ENDBRANCH  11  22
TORSDOF 3
ENDMDL
MODEL 6
REMARK VINA RESULT:      -6.7      2.094      3.252
REMARK  3 active torsions:
REMARK  status: ('A' for Active; 'I' for Inactive)
REMARK    1  A    between atoms: C11_11  and  C12_12 
REMARK    2  A    between atoms: C12_12  and  N1_13 
REMARK    3  A    between atoms: C13_14  and  C14_15 
ROOT
HETATM    1  C1  UNL     1      21.666   7.328  50.686  1.00  0.00     0.067 C 
HETATM    2  C2  UNL     1      22.264   6.131  51.373  1.00  0.00    -0.002 C 
HETATM    3  C3  UNL     1      23.236   5.476  50.707  1.00  0.00     0.005 C 
HETATM    4  C4  UNL     1      23.613   4.387  51.607  1.00  0.00     0.049 C 
HETATM    5  C5  UNL     1      22.272   4.149  52.351  1.00  0.00     0.113 C 
HETATM    6  C6  UNL     1      21.233   3.661  51.430  1.00  0.00    -0.001 C 
HETATM    7  C7  UNL     1      20.838   3.151  50.242  1.00  0.00    -0.002 C 
HETATM    8  C8  UNL     1      21.477   2.742  48.989  1.00  0.00    -0.000 C 
HETATM    9  C9  UNL     1      22.629   2.620  48.411  1.00  0.00     0.000 C 
HETATM   10  C10 UNL     1      24.052   2.801  48.670  1.00  0.00     0.005 C 
HETATM   11  C11 UNL     1      24.774   3.149  49.762  1.00  0.00    -0.043 C 
HETATM   12  C13 UNL     1      24.069   3.125  51.019  1.00  0.00     0.059 C 
HETATM   13  N2  UNL     1      21.955   5.557  52.658  1.00  0.00    -0.385 N 
HETATM   14  H21 UNL     1      21.629   6.257  53.353  1.00  0.00     0.160 HD
ENDROOT
BRANCH  12  15
HETATM   15  C14 UNL     1      24.635   2.201  52.060  1.00  0.00    -0.049 A 
HETATM   16  C15 UNL     1      24.243   0.869  52.159  1.00  0.00     0.011 A 
HETATM   17  C16 UNL     1      24.691  -0.060  53.067  1.00  0.00     0.043 A 
HETATM   18  C17 UNL     1      25.630   0.380  53.975  1.00  0.00     0.116 A 
HETATM   19  F1  UNL     1      26.096  -0.504  54.887  1.00  0.00    -0.206 F 
HETATM   20  C18 UNL     1      26.078   1.682  53.953  1.00  0.00     0.043 A 
HETATM   21  C19 UNL     1      25.590   2.549  53.024  1.00  0.00     0.011 A 
ENDBRANCH  12  15
BRANCH  11  22
HETATM   22  C12 UNL     1      26.206   3.375  50.091  1.00  0.00     0.301 C 
BRANCH  22  23
HETATM   23  N1  UNL     1      26.618   4.705  49.592  1.00  0.00     0.082 N 
HETATM   24  H14 UNL     1      26.648   4.753  48.568  1.00  0.00     0.313 HD
HETATM   25  H15 UNL     1      27.506   5.022  49.993  1.00  0.00     0.313 HD
ENDBRANCH  22  23
ENDBRANCH  11  22
TORSDOF 3
ENDMDL
MODEL 7
REMARK VINA RESULT:      -6.6      9.356     11.772
REMARK  3 active torsions:
REMARK  status: ('A' for Active; 'I' for Inactive)
REMARK    1  A    between atoms: C11_11  and  C12_12 
REMARK    2  A    between atoms: C12_12  and  N1_13 
REMARK    3  A    between atoms: C13_14  and  C14_15 
ROOT
HETATM    1  C1  UNL     1      34.887   9.367  45.478  1.00  0.00     0.067 C 
HETATM    2  C2  UNL     1      33.506   8.908  45.862  1.00  0.00    -0.002 C 
HETATM    3  C3  UNL     1      33.408   8.149  46.972  1.00  0.00     0.005 C 
HETATM    4  C4  UNL     1      31.978   7.867  47.085  1.00  0.00     0.049 C 
HETATM    5  C5  UNL     1      31.557   7.903  45.592  1.00  0.00     0.113 C 
HETATM    6  C6  UNL     1      32.193   6.814  44.835  1.00  0.00    -0.001 C 
HETATM    7  C7  UNL     1      32.880   5.651  44.769  1.00  0.00    -0.002 C 
HETATM    8  C8  UNL     1      33.453   4.694  45.716  1.00  0.00    -0.000 C 
HETATM    9  C9  UNL     1      33.571   4.439  46.981  1.00  0.00     0.000 C 
HETATM   10  C10 UNL     1      33.173   4.957  48.283  1.00  0.00     0.005 C 
HETATM   11  C11 UNL     1      32.389   5.985  48.689  1.00  0.00    -0.043 C 
HETATM   12  C13 UNL     1      31.565   6.590  47.672  1.00  0.00     0.059 C 
HETATM   13  N2  UNL     1      32.242   9.154  45.215  1.00  0.00    -0.385 N 
HETATM   14  H21 UNL     1      32.204  10.067  44.720  1.00  0.00     0.160 HD
ENDROOT
BRANCH  12  15
HETATM   15  C14 UNL     1      30.086   6.551  47.932  1.00  0.00    -0.049 A 
HETATM   16  C15 UNL     1      29.397   5.354  48.107  1.00  0.00     0.011 A 
HETATM   17  C16 UNL     1      28.052   5.202  48.348  1.00  0.00     0.043 A 
HETATM   18  C17 UNL     1      27.311   6.362  48.421  1.00  0.00     0.116 A 
HETATM   19  F1  UNL     1      25.983   6.254  48.656  1.00  0.00    -0.206 F 
HETATM   20  C18 UNL     1      27.908   7.592  48.260  1.00  0.00     0.043 A 
HETATM   21  C19 UNL     1      29.246   7.669  48.025  1.00  0.00     0.011 A 
ENDBRANCH  12  15
BRANCH  11  22
HETATM   22  C12 UNL     1      31.962   6.581  49.982  1.00  0.00     0.301 C 
BRANCH  22  23
HETATM   23  N1  UNL     1      31.616   5.498  50.929  1.00  0.00     0.082 N 
HETATM   24  H14 UNL     1      32.432   5.139  51.436  1.00  0.00     0.313 HD
HETATM   25  H15 UNL     1      31.104   4.730  50.483  1.00  0.00     0.313 HD
ENDBRANCH  22  23
ENDBRANCH  11  22
TORSDOF 3
ENDMDL
MODEL 8
REMARK VINA RESULT:      -6.5     10.084     11.968
REMARK  3 active torsions:
REMARK  status: ('A' for Active; 'I' for Inactive)
REMARK    1  A    between atoms: C11_11  and  C12_12 
REMARK    2  A    between atoms: C12_12  and  N1_13 
REMARK    3  A    between atoms: C13_14  and  C14_15 
ROOT
HETATM    1  C1  UNL     1      29.824  12.140  48.969  1.00  0.00     0.067 C 
HETATM    2  C2  UNL     1      30.588  10.843  48.975  1.00  0.00    -0.002 C 
HETATM    3  C3  UNL     1      31.155  10.471  47.811  1.00  0.00     0.005 C 
HETATM    4  C4  UNL     1      31.814   9.204  48.125  1.00  0.00     0.049 C 
HETATM    5  C5  UNL     1      30.895   8.674  49.258  1.00  0.00     0.113 C 
HETATM    6  C6  UNL     1      29.542   8.389  48.755  1.00  0.00    -0.001 C 
HETATM    7  C7  UNL     1      28.659   8.204  47.748  1.00  0.00    -0.002 C 
HETATM    8  C8  UNL     1      28.693   8.208  46.284  1.00  0.00    -0.000 C 
HETATM    9  C9  UNL     1      29.490   8.334  45.271  1.00  0.00     0.000 C 
HETATM   10  C10 UNL     1      30.898   8.536  44.955  1.00  0.00     0.005 C 
HETATM   11  C11 UNL     1      32.028   8.615  45.697  1.00  0.00    -0.043 C 
HETATM   12  C13 UNL     1      31.912   8.191  47.071  1.00  0.00     0.059 C 
HETATM   13  N2  UNL     1      30.813   9.913  50.053  1.00  0.00    -0.385 N 
HETATM   14  H21 UNL     1      30.846  10.367  50.987  1.00  0.00     0.160 HD
ENDROOT
BRANCH  12  15
HETATM   15  C14 UNL     1      32.810   7.056  47.474  1.00  0.00    -0.049 A 
HETATM   16  C15 UNL     1      32.539   5.737  47.121  1.00  0.00     0.011 A 
HETATM   17  C16 UNL     1      33.286   4.627  47.435  1.00  0.00     0.043 A 
HETATM   18  C17 UNL     1      34.424   4.849  48.179  1.00  0.00     0.116 A 
HETATM   19  F1  UNL     1      35.187   3.781  48.510  1.00  0.00    -0.206 F 
HETATM   20  C18 UNL     1      34.772   6.122  48.575  1.00  0.00     0.043 A 
HETATM   21  C19 UNL     1      33.985   7.176  48.227  1.00  0.00     0.011 A 
ENDBRANCH  12  15
BRANCH  11  22
HETATM   22  C12 UNL     1      33.476   8.841  45.451  1.00  0.00     0.301 C 
BRANCH  22  23
HETATM   23  N1  UNL     1      33.708  10.278  45.182  1.00  0.00     0.082 N 
HETATM   24  H14 UNL     1      33.039  10.668  44.510  1.00  0.00     0.313 HD
HETATM   25  H15 UNL     1      34.670  10.476  44.889  1.00  0.00     0.313 HD
ENDBRANCH  22  23
ENDBRANCH  11  22
TORSDOF 3
ENDMDL
MODEL 9
REMARK VINA RESULT:      -6.0      3.161      4.644
REMARK  3 active torsions:
REMARK  status: ('A' for Active; 'I' for Inactive)
REMARK    1  A    between atoms: C11_11  and  C12_12 
REMARK    2  A    between atoms: C12_12  and  N1_13 
REMARK    3  A    between atoms: C13_14  and  C14_15 
ROOT
HETATM    1  C1  UNL     1      20.571   8.872  49.708  1.00  0.00     0.067 C 
HETATM    2  C2  UNL     1      20.511   7.405  50.038  1.00  0.00    -0.002 C 
HETATM    3  C3  UNL     1      21.542   6.902  50.745  1.00  0.00     0.005 C 
HETATM    4  C4  UNL     1      21.206   5.488  50.908  1.00  0.00     0.049 C 
HETATM    5  C5  UNL     1      20.372   5.239  49.623  1.00  0.00     0.113 C 
HETATM    6  C6  UNL     1      21.200   5.390  48.416  1.00  0.00    -0.001 C 
HETATM    7  C7  UNL     1      22.397   5.503  47.798  1.00  0.00    -0.002 C 
HETATM    8  C8  UNL     1      23.806   5.526  48.196  1.00  0.00    -0.000 C 
HETATM    9  C9  UNL     1      24.590   5.425  49.221  1.00  0.00     0.000 C 
HETATM   10  C10 UNL     1      24.551   5.197  50.660  1.00  0.00     0.005 C 
HETATM   11  C11 UNL     1      23.562   4.913  51.543  1.00  0.00    -0.043 C 
HETATM   12  C13 UNL     1      22.300   4.516  50.970  1.00  0.00     0.059 C 
HETATM   13  N2  UNL     1      19.504   6.428  49.708  1.00  0.00    -0.385 N 
HETATM   14  H21 UNL     1      18.549   6.831  49.636  1.00  0.00     0.160 HD
ENDROOT
BRANCH  12  15
HETATM   15  C14 UNL     1      21.809   3.154  51.371  1.00  0.00    -0.049 A 
HETATM   16  C15 UNL     1      20.785   2.980  52.298  1.00  0.00     0.011 A 
HETATM   17  C16 UNL     1      20.261   1.788  52.737  1.00  0.00     0.043 A 
HETATM   18  C17 UNL     1      20.812   0.645  52.199  1.00  0.00     0.116 A 
HETATM   19  F1  UNL     1      20.324  -0.549  52.606  1.00  0.00    -0.206 F 
HETATM   20  C18 UNL     1      21.830   0.719  51.274  1.00  0.00     0.043 A 
HETATM   21  C19 UNL     1      22.301   1.935  50.884  1.00  0.00     0.011 A 
ENDBRANCH  12  15
BRANCH  11  22
HETATM   22  C12 UNL     1      23.444   4.694  53.008  1.00  0.00     0.301 C 
BRANCH  22  23
HETATM   23  N1  UNL     1      24.532   3.799  53.457  1.00  0.00     0.082 N 
HETATM   24  H14 UNL     1      24.545   3.670  54.475  1.00  0.00     0.313 HD
HETATM   25  H15 UNL     1      25.454   4.094  53.121  1.00  0.00     0.313 HD
ENDBRANCH  22  23
ENDBRANCH  11  22
TORSDOF 3
ENDMDL
