MODEL 1
REMARK VINA RESULT:      -7.6      0.000      0.000
REMARK  8 active torsions:
REMARK  status: ('A' for Active; 'I' for Inactive)
REMARK    1  A    between atoms: C2_2  and  C3_3 
REMARK    2  A    between atoms: C3_3  and  C4_4 
REMARK    3  A    between atoms: C4_4  and  C5_5 
REMARK    4  A    between atoms: C5_5  and  N1_6 
REMARK    5  A    between atoms: N1_6  and  C6_7 
REMARK       I    between atoms: N1_6  and  C14_17 
REMARK    6  A    between atoms: C6_7  and  C7_8 
REMARK    7  A    between atoms: C13_15  and  O2_16 
REMARK    8  A    between atoms: C14_17  and  C15_19 
ROOT
HETATM    1  N1  UNL     1      26.041   1.395  52.438  1.00  0.00    -0.345 N 
HETATM    2  C14 UNL     1      26.655   0.613  53.459  1.00  0.00     0.250 C 
HETATM    3  O3  UNL     1      26.056   0.521  54.598  1.00  0.00    -0.268 OA
ENDROOT
BRANCH   1   4
HETATM    4  C5  UNL     1      26.493   1.710  51.089  1.00  0.00     0.126 C 
BRANCH   4   5
HETATM    5  C4  UNL     1      26.505   3.212  50.857  1.00  0.00     0.020 C 
BRANCH   5   6
HETATM    6  C3  UNL     1      26.440   3.434  49.351  1.00  0.00     0.001 C 
BRANCH   6   7
HETATM    7  C2  UNL     1      26.609   4.923  49.051  1.00  0.00    -0.004 C 
HETATM    8  C1  UNL     1      28.001   5.108  48.519  1.00  0.00     0.005 C 
ENDBRANCH   6   7
ENDBRANCH   5   6
ENDBRANCH   4   5
ENDBRANCH   1   4
BRANCH   1   9
HETATM    9  C6  UNL     1      24.748   1.929  52.813  1.00  0.00     0.165 C 
BRANCH   9  10
HETATM   10  C7  UNL     1      23.560   1.250  52.233  1.00  0.00     0.203 A 
HETATM   11  O1  UNL     1      22.628   2.309  51.944  1.00  0.00    -0.342 OA
HETATM   12  C8  UNL     1      21.342   2.358  52.393  1.00  0.00     0.044 A 
HETATM   13  C9  UNL     1      20.526   3.544  52.020  1.00  0.00     0.076 C 
HETATM   14  C10 UNL     1      20.839   1.386  53.135  1.00  0.00     0.041 A 
HETATM   15  C11 UNL     1      21.707   0.249  53.465  1.00  0.00    -0.028 A 
HETATM   16  C12 UNL     1      20.986  -0.769  54.306  1.00  0.00     0.051 C 
HETATM   17  C13 UNL     1      22.969   0.186  53.043  1.00  0.00     0.080 A 
BRANCH  17  18
HETATM   18  O2  UNL     1      23.540  -0.984  53.487  1.00  0.00    -0.362 OA
HETATM   19  H22 UNL     1      23.277  -1.894  53.107  1.00  0.00     0.217 HD
ENDBRANCH  17  18
ENDBRANCH   9  10
ENDBRANCH   1   9
BRANCH   2  20
HETATM   20  C15 UNL     1      27.910  -0.169  53.497  1.00  0.00     0.013 A 
HETATM   21  C16 UNL     1      28.050  -1.433  53.144  1.00  0.00     0.013 A 
HETATM   22  C17 UNL     1      29.414  -1.920  53.294  1.00  0.00    -0.003 A 
HETATM   23  C18 UNL     1      30.095  -0.888  53.754  1.00  0.00    -0.022 A 
HETATM   24  C19 UNL     1      29.240   0.293  53.926  1.00  0.00     0.071 A 
ENDBRANCH   2  20
TORSDOF 8
ENDMDL
MODEL 2
REMARK VINA RESULT:      -7.4      2.267      6.713
REMARK  8 active torsions:
REMARK  status: ('A' for Active; 'I' for Inactive)
REMARK    1  A    between atoms: C2_2  and  C3_3 
REMARK    2  A    between atoms: C3_3  and  C4_4 
REMARK    3  A    between atoms: C4_4  and  C5_5 
REMARK    4  A    between atoms: C5_5  and  N1_6 
REMARK    5  A    between atoms: N1_6  and  C6_7 
REMARK       I    between atoms: N1_6  and  C14_17 
REMARK    6  A    between atoms: C6_7  and  C7_8 
REMARK    7  A    between atoms: C13_15  and  O2_16 
REMARK    8  A    between atoms: C14_17  and  C15_19 
ROOT
HETATM    1  N1  UNL     1      24.250   0.661  52.654  1.00  0.00    -0.345 N 
HETATM    2  C14 UNL     1      23.041  -0.040  52.938  1.00  0.00     0.250 C 
HETATM    3  O3  UNL     1      23.088  -1.019  53.777  1.00  0.00    -0.268 OA
ENDROOT
BRANCH   1   4
HETATM    4  C5  UNL     1      24.510   1.762  51.736  1.00  0.00     0.126 C 
BRANCH   4   5
HETATM    5  C4  UNL     1      24.058   3.085  52.333  1.00  0.00     0.020 C 
BRANCH   5   6
HETATM    6  C3  UNL     1      22.926   3.608  51.457  1.00  0.00     0.001 C 
BRANCH   6   7
HETATM    7  C2  UNL     1      21.667   3.783  52.306  1.00  0.00    -0.004 C 
HETATM    8  C1  UNL     1      20.590   4.292  51.394  1.00  0.00     0.005 C 
ENDBRANCH   6   7
ENDBRANCH   5   6
ENDBRANCH   4   5
ENDBRANCH   1   4
BRANCH   1   9
HETATM    9  C6  UNL     1      25.382   0.206  53.435  1.00  0.00     0.165 C 
BRANCH   9  10
HETATM   10  C7  UNL     1      26.727   0.478  52.867  1.00  0.00     0.203 A 
HETATM   11  O1  UNL     1      27.361  -0.812  52.770  1.00  0.00    -0.342 OA
HETATM   12  C8  UNL     1      28.571  -1.127  53.313  1.00  0.00     0.044 A 
HETATM   13  C9  UNL     1      29.062  -2.521  53.139  1.00  0.00     0.076 C 
HETATM   14  C10 UNL     1      29.281  -0.228  53.971  1.00  0.00     0.041 A 
HETATM   15  C11 UNL     1      28.728   1.126  54.104  1.00  0.00    -0.028 A 
HETATM   16  C12 UNL     1      29.657   2.028  54.872  1.00  0.00     0.051 C 
HETATM   17  C13 UNL     1      27.544   1.453  53.589  1.00  0.00     0.080 A 
BRANCH  17  18
HETATM   18  O2  UNL     1      27.283   2.777  53.852  1.00  0.00    -0.362 OA
HETATM   19  H22 UNL     1      27.444   3.190  54.771  1.00  0.00     0.217 HD
ENDBRANCH  17  18
ENDBRANCH   9  10
ENDBRANCH   1   9
BRANCH   2  20
HETATM   20  C15 UNL     1      21.656   0.126  52.449  1.00  0.00     0.013 A 
HETATM   21  C16 UNL     1      20.566   0.161  53.195  1.00  0.00     0.013 A 
HETATM   22  C17 UNL     1      19.348   0.337  52.418  1.00  0.00    -0.003 A 
HETATM   23  C18 UNL     1      19.751   0.409  51.164  1.00  0.00    -0.022 A 
HETATM   24  C19 UNL     1      21.210   0.286  51.056  1.00  0.00     0.071 A 
ENDBRANCH   2  20
TORSDOF 8
ENDMDL
MODEL 3
REMARK VINA RESULT:      -7.4      1.475      4.880
REMARK  8 active torsions:
REMARK  status: ('A' for Active; 'I' for Inactive)
REMARK    1  A    between atoms: C2_2  and  C3_3 
REMARK    2  A    between atoms: C3_3  and  C4_4 
REMARK    3  A    between atoms: C4_4  and  C5_5 
REMARK    4  A    between atoms: C5_5  and  N1_6 
REMARK    5  A    between atoms: N1_6  and  C6_7 
REMARK       I    between atoms: N1_6  and  C14_17 
REMARK    6  A    between atoms: C6_7  and  C7_8 
REMARK    7  A    between atoms: C13_15  and  O2_16 
REMARK    8  A    between atoms: C14_17  and  C15_19 
ROOT
HETATM    1  N1  UNL     1      25.426   2.632  51.733  1.00  0.00    -0.345 N 
HETATM    2  C14 UNL     1      25.113   3.705  50.849  1.00  0.00     0.250 C 
HETATM    3  O3  UNL     1      23.887   4.101  50.783  1.00  0.00    -0.268 OA
ENDROOT
BRANCH   1   4
HETATM    4  C5  UNL     1      26.692   1.955  51.985  1.00  0.00     0.126 C 
BRANCH   4   5
HETATM    5  C4  UNL     1      27.149   2.176  53.418  1.00  0.00     0.020 C 
BRANCH   5   6
HETATM    6  C3  UNL     1      28.632   1.826  53.475  1.00  0.00     0.001 C 
BRANCH   6   7
HETATM    7  C2  UNL     1      28.827   0.590  54.352  1.00  0.00    -0.004 C 
HETATM    8  C1  UNL     1      29.786  -0.312  53.629  1.00  0.00     0.005 C 
ENDBRANCH   6   7
ENDBRANCH   5   6
ENDBRANCH   4   5
ENDBRANCH   1   4
BRANCH   1   9
HETATM    9  C6  UNL     1      24.296   2.175  52.515  1.00  0.00     0.165 C 
BRANCH   9  10
HETATM   10  C7  UNL     1      23.890   0.759  52.323  1.00  0.00     0.203 A 
HETATM   11  O1  UNL     1      22.604   0.822  51.679  1.00  0.00    -0.342 OA
HETATM   12  C8  UNL     1      21.473   0.213  52.137  1.00  0.00     0.044 A 
HETATM   13  C9  UNL     1      20.221   0.408  51.358  1.00  0.00     0.076 C 
HETATM   14  C10 UNL     1      21.489  -0.524  53.234  1.00  0.00     0.041 A 
HETATM   15  C11 UNL     1      22.763  -0.667  53.951  1.00  0.00    -0.028 A 
HETATM   16  C12 UNL     1      22.614  -1.538  55.170  1.00  0.00     0.051 C 
HETATM   17  C13 UNL     1      23.877  -0.074  53.526  1.00  0.00     0.080 A 
BRANCH  17  18
HETATM   18  O2  UNL     1      24.912  -0.386  54.375  1.00  0.00    -0.362 OA
HETATM   19  H22 UNL     1      25.884  -0.178  54.145  1.00  0.00     0.217 HD
ENDBRANCH  17  18
ENDBRANCH   9  10
ENDBRANCH   1   9
BRANCH   2  20
HETATM   20  C15 UNL     1      25.944   4.518  49.935  1.00  0.00     0.013 A 
HETATM   21  C16 UNL     1      25.758   5.791  49.639  1.00  0.00     0.013 A 
HETATM   22  C17 UNL     1      26.748   6.311  48.706  1.00  0.00    -0.003 A 
HETATM   23  C18 UNL     1      27.545   5.291  48.451  1.00  0.00    -0.022 A 
HETATM   24  C19 UNL     1      27.131   4.085  49.180  1.00  0.00     0.071 A 
ENDBRANCH   2  20
TORSDOF 8
ENDMDL
MODEL 4
REMARK VINA RESULT:      -7.3      1.738      6.201
REMARK  8 active torsions:
REMARK  status: ('A' for Active; 'I' for Inactive)
REMARK    1  A    between atoms: C2_2  and  C3_3 
REMARK    2  A    between atoms: C3_3  and  C4_4 
REMARK    3  A    between atoms: C4_4  and  C5_5 
REMARK    4  A    between atoms: C5_5  and  N1_6 
REMARK    5  A    between atoms: N1_6  and  C6_7 
REMARK       I    between atoms: N1_6  and  C14_17 
REMARK    6  A    between atoms: C6_7  and  C7_8 
REMARK    7  A    between atoms: C13_15  and  O2_16 
REMARK    8  A    between atoms: C14_17  and  C15_19 
ROOT
HETATM    1  N1  UNL     1      25.660   1.749  51.867  1.00  0.00    -0.345 N 
HETATM    2  C14 UNL     1      24.395   1.830  52.521  1.00  0.00     0.250 C 
HETATM    3  O3  UNL     1      23.858   2.994  52.665  1.00  0.00    -0.268 OA
ENDROOT
BRANCH   1   4
HETATM    4  C5  UNL     1      26.513   0.599  51.600  1.00  0.00     0.126 C 
BRANCH   4   5
HETATM    5  C4  UNL     1      27.529   0.407  52.714  1.00  0.00     0.020 C 
BRANCH   5   6
HETATM    6  C3  UNL     1      27.481  -1.062  53.117  1.00  0.00     0.001 C 
BRANCH   6   7
HETATM    7  C2  UNL     1      28.905  -1.610  53.202  1.00  0.00    -0.004 C 
HETATM    8  C1  UNL     1      29.784  -0.480  53.653  1.00  0.00     0.005 C 
ENDBRANCH   6   7
ENDBRANCH   5   6
ENDBRANCH   4   5
ENDBRANCH   1   4
BRANCH   1   9
HETATM    9  C6  UNL     1      26.140   3.023  51.372  1.00  0.00     0.165 C 
BRANCH   9  10
HETATM   10  C7  UNL     1      25.906   3.301  49.931  1.00  0.00     0.203 A 
HETATM   11  O1  UNL     1      27.166   3.791  49.435  1.00  0.00    -0.342 OA
HETATM   12  C8  UNL     1      27.337   4.974  48.779  1.00  0.00     0.044 A 
HETATM   13  C9  UNL     1      28.718   5.337  48.361  1.00  0.00     0.076 C 
HETATM   14  C10 UNL     1      26.313   5.771  48.525  1.00  0.00     0.041 A 
HETATM   15  C11 UNL     1      24.981   5.346  48.973  1.00  0.00    -0.028 A 
HETATM   16  C12 UNL     1      23.927   6.356  48.604  1.00  0.00     0.051 C 
HETATM   17  C13 UNL     1      24.793   4.198  49.623  1.00  0.00     0.080 A 
BRANCH  17  18
HETATM   18  O2  UNL     1      23.456   4.051  49.909  1.00  0.00    -0.362 OA
HETATM   19  H22 UNL     1      22.737   4.605  49.444  1.00  0.00     0.217 HD
ENDBRANCH  17  18
ENDBRANCH   9  10
ENDBRANCH   1   9
BRANCH   2  20
HETATM   20  C15 UNL     1      23.508   0.801  53.104  1.00  0.00     0.013 A 
HETATM   21  C16 UNL     1      23.888  -0.229  53.838  1.00  0.00     0.013 A 
HETATM   22  C17 UNL     1      22.776  -1.066  54.268  1.00  0.00    -0.003 A 
HETATM   23  C18 UNL     1      21.703  -0.492  53.759  1.00  0.00    -0.022 A 
HETATM   24  C19 UNL     1      22.043   0.713  52.993  1.00  0.00     0.071 A 
ENDBRANCH   2  20
TORSDOF 8
ENDMDL
MODEL 5
REMARK VINA RESULT:      -7.2      2.011      6.123
REMARK  8 active torsions:
REMARK  status: ('A' for Active; 'I' for Inactive)
REMARK    1  A    between atoms: C2_2  and  C3_3 
REMARK    2  A    between atoms: C3_3  and  C4_4 
REMARK    3  A    between atoms: C4_4  and  C5_5 
REMARK    4  A    between atoms: C5_5  and  N1_6 
REMARK    5  A    between atoms: N1_6  and  C6_7 
REMARK       I    between atoms: N1_6  and  C14_17 
REMARK    6  A    between atoms: C6_7  and  C7_8 
REMARK    7  A    between atoms: C13_15  and  O2_16 
REMARK    8  A    between atoms: C14_17  and  C15_19 
ROOT
HETATM    1  N1  UNL     1      24.149   1.724  51.737  1.00  0.00    -0.345 N 
HETATM    2  C14 UNL     1      22.856   1.156  51.929  1.00  0.00     0.250 C 
HETATM    3  O3  UNL     1      21.937   1.426  51.064  1.00  0.00    -0.268 OA
ENDROOT
BRANCH   1   4
HETATM    4  C5  UNL     1      25.352   1.633  52.554  1.00  0.00     0.126 C 
BRANCH   4   5
HETATM    5  C4  UNL     1      26.322   0.614  51.979  1.00  0.00     0.020 C 
BRANCH   5   6
HETATM    6  C3  UNL     1      26.438  -0.517  52.993  1.00  0.00     0.001 C 
BRANCH   6   7
HETATM    7  C2  UNL     1      27.887  -0.999  53.051  1.00  0.00    -0.004 C 
HETATM    8  C1  UNL     1      28.567  -0.215  54.135  1.00  0.00     0.005 C 
ENDBRANCH   6   7
ENDBRANCH   5   6
ENDBRANCH   4   5
ENDBRANCH   1   4
BRANCH   1   9
HETATM    9  C6  UNL     1      24.271   2.488  50.512  1.00  0.00     0.165 C 
BRANCH   9  10
HETATM   10  C7  UNL     1      24.683   3.908  50.659  1.00  0.00     0.203 A 
HETATM   11  O1  UNL     1      23.627   4.671  50.046  1.00  0.00    -0.342 OA
HETATM   12  C8  UNL     1      23.805   5.591  49.056  1.00  0.00     0.044 A 
HETATM   13  C9  UNL     1      22.595   6.267  48.517  1.00  0.00     0.076 C 
HETATM   14  C10 UNL     1      25.010   5.871  48.590  1.00  0.00     0.041 A 
HETATM   15  C11 UNL     1      26.156   5.159  49.170  1.00  0.00    -0.028 A 
HETATM   16  C12 UNL     1      27.452   5.594  48.538  1.00  0.00     0.051 C 
HETATM   17  C13 UNL     1      26.004   4.251  50.132  1.00  0.00     0.080 A 
BRANCH  17  18
HETATM   18  O2  UNL     1      27.236   3.756  50.491  1.00  0.00    -0.362 OA
HETATM   19  H22 UNL     1      27.922   3.454  49.799  1.00  0.00     0.217 HD
ENDBRANCH  17  18
ENDBRANCH   9  10
ENDBRANCH   1   9
BRANCH   2  20
HETATM   20  C15 UNL     1      22.305   0.262  52.971  1.00  0.00     0.013 A 
HETATM   21  C16 UNL     1      22.727  -0.956  53.254  1.00  0.00     0.013 A 
HETATM   22  C17 UNL     1      21.981  -1.583  54.336  1.00  0.00    -0.003 A 
HETATM   23  C18 UNL     1      21.086  -0.683  54.697  1.00  0.00    -0.022 A 
HETATM   24  C19 UNL     1      21.194   0.542  53.895  1.00  0.00     0.071 A 
ENDBRANCH   2  20
TORSDOF 8
ENDMDL
MODEL 6
REMARK VINA RESULT:      -7.2      2.577      6.209
REMARK  8 active torsions:
REMARK  status: ('A' for Active; 'I' for Inactive)
REMARK    1  A    between atoms: C2_2  and  C3_3 
REMARK    2  A    between atoms: C3_3  and  C4_4 
REMARK    3  A    between atoms: C4_4  and  C5_5 
REMARK    4  A    between atoms: C5_5  and  N1_6 
REMARK    5  A    between atoms: N1_6  and  C6_7 
REMARK       I    between atoms: N1_6  and  C14_17 
REMARK    6  A    between atoms: C6_7  and  C7_8 
REMARK    7  A    between atoms: C13_15  and  O2_16 
REMARK    8  A    between atoms: C14_17  and  C15_19 
ROOT
HETATM    1  N1  UNL     1      24.649   2.786  50.799  1.00  0.00    -0.345 N 
HETATM    2  C14 UNL     1      25.813   2.104  51.259  1.00  0.00     0.250 C 
HETATM    3  O3  UNL     1      26.901   2.230  50.577  1.00  0.00    -0.268 OA
ENDROOT
BRANCH   1   4
HETATM    4  C5  UNL     1      23.291   2.799  51.329  1.00  0.00     0.126 C 
BRANCH   4   5
HETATM    5  C4  UNL     1      22.699   1.399  51.339  1.00  0.00     0.020 C 
BRANCH   5   6
HETATM    6  C3  UNL     1      22.512   1.002  52.798  1.00  0.00     0.001 C 
BRANCH   6   7
HETATM    7  C2  UNL     1      22.625  -0.516  52.928  1.00  0.00    -0.004 C 
HETATM    8  C1  UNL     1      22.775  -0.821  54.391  1.00  0.00     0.005 C 
ENDBRANCH   6   7
ENDBRANCH   5   6
ENDBRANCH   4   5
ENDBRANCH   1   4
BRANCH   1   9
HETATM    9  C6  UNL     1      24.883   3.614  49.634  1.00  0.00     0.165 C 
BRANCH   9  10
HETATM   10  C7  UNL     1      25.360   4.997  49.893  1.00  0.00     0.203 A 
HETATM   11  O1  UNL     1      24.278   5.851  49.473  1.00  0.00    -0.342 OA
HETATM   12  C8  UNL     1      24.395   6.870  48.575  1.00  0.00     0.044 A 
HETATM   13  C9  UNL     1      23.164   7.633  48.236  1.00  0.00     0.076 C 
HETATM   14  C10 UNL     1      25.559   7.169  48.027  1.00  0.00     0.041 A 
HETATM   15  C11 UNL     1      26.729   6.367  48.410  1.00  0.00    -0.028 A 
HETATM   16  C12 UNL     1      27.973   6.836  47.704  1.00  0.00     0.051 C 
HETATM   17  C13 UNL     1      26.635   5.362  49.278  1.00  0.00     0.080 A 
BRANCH  17  18
HETATM   18  O2  UNL     1      27.877   4.798  49.458  1.00  0.00    -0.362 OA
HETATM   19  H22 UNL     1      27.995   3.832  49.764  1.00  0.00     0.217 HD
ENDBRANCH  17  18
ENDBRANCH   9  10
ENDBRANCH   1   9
BRANCH   2  20
HETATM   20  C15 UNL     1      26.061   1.231  52.426  1.00  0.00     0.013 A 
HETATM   21  C16 UNL     1      26.290  -0.069  52.390  1.00  0.00     0.013 A 
HETATM   22  C17 UNL     1      26.498  -0.649  53.710  1.00  0.00    -0.003 A 
HETATM   23  C18 UNL     1      26.385   0.363  54.548  1.00  0.00    -0.022 A 
HETATM   24  C19 UNL     1      26.104   1.621  53.845  1.00  0.00     0.071 A 
ENDBRANCH   2  20
TORSDOF 8
ENDMDL
MODEL 7
REMARK VINA RESULT:      -7.2      1.121      2.440
REMARK  8 active torsions:
REMARK  status: ('A' for Active; 'I' for Inactive)
REMARK    1  A    between atoms: C2_2  and  C3_3 
REMARK    2  A    between atoms: C3_3  and  C4_4 
REMARK    3  A    between atoms: C4_4  and  C5_5 
REMARK    4  A    between atoms: C5_5  and  N1_6 
REMARK    5  A    between atoms: N1_6  and  C6_7 
REMARK       I    between atoms: N1_6  and  C14_17 
REMARK    6  A    between atoms: C6_7  and  C7_8 
REMARK    7  A    between atoms: C13_15  and  O2_16 
REMARK    8  A    between atoms: C14_17  and  C15_19 
ROOT
HETATM    1  N1  UNL     1      25.735   1.393  51.953  1.00  0.00    -0.345 N 
HETATM    2  C14 UNL     1      26.258   0.236  52.602  1.00  0.00     0.250 C 
HETATM    3  O3  UNL     1      25.433  -0.696  52.941  1.00  0.00    -0.268 OA
ENDROOT
BRANCH   1   4
HETATM    4  C5  UNL     1      26.405   2.605  51.499  1.00  0.00     0.126 C 
BRANCH   4   5
HETATM    5  C4  UNL     1      26.333   2.730  49.985  1.00  0.00     0.020 C 
BRANCH   5   6
HETATM    6  C3  UNL     1      26.243   4.217  49.662  1.00  0.00     0.001 C 
BRANCH   6   7
HETATM    7  C2  UNL     1      27.412   4.610  48.760  1.00  0.00    -0.004 C 
HETATM    8  C1  UNL     1      27.289   6.084  48.500  1.00  0.00     0.005 C 
ENDBRANCH   6   7
ENDBRANCH   5   6
ENDBRANCH   4   5
ENDBRANCH   1   4
BRANCH   1   9
HETATM    9  C6  UNL     1      24.313   1.319  51.689  1.00  0.00     0.165 C 
BRANCH   9  10
HETATM   10  C7  UNL     1      23.430   2.076  52.613  1.00  0.00     0.203 A 
HETATM   11  O1  UNL     1      22.619   1.076  53.260  1.00  0.00    -0.342 OA
HETATM   12  C8  UNL     1      21.256   1.080  53.289  1.00  0.00     0.044 A 
HETATM   13  C9  UNL     1      20.579  -0.050  53.980  1.00  0.00     0.076 C 
HETATM   14  C10 UNL     1      20.562   2.052  52.724  1.00  0.00     0.041 A 
HETATM   15  C11 UNL     1      21.302   3.131  52.057  1.00  0.00    -0.028 A 
HETATM   16  C12 UNL     1      20.370   4.158  51.472  1.00  0.00     0.051 C 
HETATM   17  C13 UNL     1      22.632   3.143  52.009  1.00  0.00     0.080 A 
BRANCH  17  18
HETATM   18  O2  UNL     1      23.055   4.267  51.339  1.00  0.00    -0.362 OA
HETATM   19  H22 UNL     1      22.638   4.560  50.456  1.00  0.00     0.217 HD
ENDBRANCH  17  18
ENDBRANCH   9  10
ENDBRANCH   1   9
BRANCH   2  20
HETATM   20  C15 UNL     1      27.630  -0.153  52.992  1.00  0.00     0.013 A 
HETATM   21  C16 UNL     1      28.594   0.667  53.369  1.00  0.00     0.013 A 
HETATM   22  C17 UNL     1      29.836  -0.022  53.693  1.00  0.00    -0.003 A 
HETATM   23  C18 UNL     1      29.577  -1.300  53.494  1.00  0.00    -0.022 A 
HETATM   24  C19 UNL     1      28.196  -1.510  53.044  1.00  0.00     0.071 A 
ENDBRANCH   2  20
TORSDOF 8
ENDMDL
MODEL 8
REMARK VINA RESULT:      -7.2      1.976      5.413
REMARK  8 active torsions:
REMARK  status: ('A' for Active; 'I' for Inactive)
REMARK    1  A    between atoms: C2_2  and  C3_3 
REMARK    2  A    between atoms: C3_3  and  C4_4 
REMARK    3  A    between atoms: C4_4  and  C5_5 
REMARK    4  A    between atoms: C5_5  and  N1_6 
REMARK    5  A    between atoms: N1_6  and  C6_7 
REMARK       I    between atoms: N1_6  and  C14_17 
REMARK    6  A    between atoms: C6_7  and  C7_8 
REMARK    7  A    between atoms: C13_15  and  O2_16 
REMARK    8  A    between atoms: C14_17  and  C15_19 
ROOT
HETATM    1  N1  UNL     1      25.165   1.533  52.595  1.00  0.00    -0.345 N 
HETATM    2  C14 UNL     1      26.537   1.233  52.842  1.00  0.00     0.250 C 
HETATM    3  O3  UNL     1      27.348   2.216  53.041  1.00  0.00    -0.268 OA
ENDROOT
BRANCH   1   4
HETATM    4  C5  UNL     1      24.043   0.651  52.301  1.00  0.00     0.126 C 
BRANCH   4   5
HETATM    5  C4  UNL     1      23.503   0.018  53.573  1.00  0.00     0.020 C 
BRANCH   5   6
HETATM    6  C3  UNL     1      22.479  -1.029  53.152  1.00  0.00     0.001 C 
BRANCH   6   7
HETATM    7  C2  UNL     1      21.515  -1.289  54.310  1.00  0.00    -0.004 C 
HETATM    8  C1  UNL     1      20.982   0.047  54.744  1.00  0.00     0.005 C 
ENDBRANCH   6   7
ENDBRANCH   5   6
ENDBRANCH   4   5
ENDBRANCH   1   4
BRANCH   1   9
HETATM    9  C6  UNL     1      24.854   2.945  52.684  1.00  0.00     0.165 C 
BRANCH   9  10
HETATM   10  C7  UNL     1      24.333   3.585  51.448  1.00  0.00     0.203 A 
HETATM   11  O1  UNL     1      25.431   3.551  50.516  1.00  0.00    -0.342 OA
HETATM   12  C8  UNL     1      25.935   4.639  49.868  1.00  0.00     0.044 A 
HETATM   13  C9  UNL     1      27.093   4.425  48.960  1.00  0.00     0.076 C 
HETATM   14  C10 UNL     1      25.414   5.841  50.042  1.00  0.00     0.041 A 
HETATM   15  C11 UNL     1      24.273   5.974  50.957  1.00  0.00    -0.028 A 
HETATM   16  C12 UNL     1      23.795   7.399  51.039  1.00  0.00     0.051 C 
HETATM   17  C13 UNL     1      23.771   4.925  51.607  1.00  0.00     0.080 A 
BRANCH  17  18
HETATM   18  O2  UNL     1      22.710   5.334  52.380  1.00  0.00    -0.362 OA
HETATM   19  H22 UNL     1      21.751   5.328  52.032  1.00  0.00     0.217 HD
ENDBRANCH  17  18
ENDBRANCH   9  10
ENDBRANCH   1   9
BRANCH   2  20
HETATM   20  C15 UNL     1      27.277  -0.044  52.928  1.00  0.00     0.013 A 
HETATM   21  C16 UNL     1      28.517  -0.197  53.356  1.00  0.00     0.013 A 
HETATM   22  C17 UNL     1      28.966  -1.582  53.322  1.00  0.00    -0.003 A 
HETATM   23  C18 UNL     1      27.937  -2.262  52.853  1.00  0.00    -0.022 A 
HETATM   24  C19 UNL     1      26.795  -1.385  52.563  1.00  0.00     0.071 A 
ENDBRANCH   2  20
TORSDOF 8
ENDMDL
MODEL 9
REMARK VINA RESULT:      -7.0      2.661      5.161
REMARK  8 active torsions:
REMARK  status: ('A' for Active; 'I' for Inactive)
REMARK    1  A    between atoms: C2_2  and  C3_3 
REMARK    2  A    between atoms: C3_3  and  C4_4 
REMARK    3  A    between atoms: C4_4  and  C5_5 
REMARK    4  A    between atoms: C5_5  and  N1_6 
REMARK    5  A    between atoms: N1_6  and  C6_7 
REMARK       I    between atoms: N1_6  and  C14_17 
REMARK    6  A    between atoms: C6_7  and  C7_8 
REMARK    7  A    between atoms: C13_15  and  O2_16 
REMARK    8  A    between atoms: C14_17  and  C15_19 
ROOT
HETATM    1  N1  UNL     1      25.107   2.655  52.038  1.00  0.00    -0.345 N 
HETATM    2  C14 UNL     1      26.501   2.380  51.922  1.00  0.00     0.250 C 
HETATM    3  O3  UNL     1      27.148   2.921  50.945  1.00  0.00    -0.268 OA
ENDROOT
BRANCH   1   4
HETATM    4  C5  UNL     1      24.124   2.163  52.996  1.00  0.00     0.126 C 
BRANCH   4   5
HETATM    5  C4  UNL     1      23.524   0.846  52.530  1.00  0.00     0.020 C 
BRANCH   5   6
HETATM    6  C3  UNL     1      23.777  -0.176  53.632  1.00  0.00     0.001 C 
BRANCH   6   7
HETATM    7  C2  UNL     1      22.531  -1.041  53.815  1.00  0.00    -0.004 C 
HETATM    8  C1  UNL     1      21.536  -0.220  54.584  1.00  0.00     0.005 C 
ENDBRANCH   6   7
ENDBRANCH   5   6
ENDBRANCH   4   5
ENDBRANCH   1   4
BRANCH   1   9
HETATM    9  C6  UNL     1      24.616   3.597  51.054  1.00  0.00     0.165 C 
BRANCH   9  10
HETATM   10  C7  UNL     1      23.413   4.382  51.435  1.00  0.00     0.203 A 
HETATM   11  O1  UNL     1      22.360   3.892  50.583  1.00  0.00    -0.342 OA
HETATM   12  C8  UNL     1      21.587   4.671  49.775  1.00  0.00     0.044 A 
HETATM   13  C9  UNL     1      20.562   3.992  48.939  1.00  0.00     0.076 C 
HETATM   14  C10 UNL     1      21.744   5.983  49.735  1.00  0.00     0.041 A 
HETATM   15  C11 UNL     1      22.780   6.580  50.587  1.00  0.00    -0.028 A 
HETATM   16  C12 UNL     1      22.827   8.077  50.430  1.00  0.00     0.051 C 
HETATM   17  C13 UNL     1      23.552   5.837  51.377  1.00  0.00     0.080 A 
BRANCH  17  18
HETATM   18  O2  UNL     1      24.420   6.653  52.065  1.00  0.00    -0.362 OA
HETATM   19  H22 UNL     1      25.245   7.061  51.625  1.00  0.00     0.217 HD
ENDBRANCH  17  18
ENDBRANCH   9  10
ENDBRANCH   1   9
BRANCH   2  20
HETATM   20  C15 UNL     1      27.426   1.560  52.732  1.00  0.00     0.013 A 
HETATM   21  C16 UNL     1      27.438   0.241  52.803  1.00  0.00     0.013 A 
HETATM   22  C17 UNL     1      28.473  -0.274  53.689  1.00  0.00    -0.003 A 
HETATM   23  C18 UNL     1      29.089   0.797  54.151  1.00  0.00    -0.022 A 
HETATM   24  C19 UNL     1      28.508   2.033  53.610  1.00  0.00     0.071 A 
ENDBRANCH   2  20
TORSDOF 8
ENDMDL
