MODEL 1
REMARK VINA RESULT:      -7.5      0.000      0.000
REMARK  7 active torsions:
REMARK  status: ('A' for Active; 'I' for Inactive)
REMARK    1  A    between atoms: C2_2  and  C3_3 
REMARK    2  A    between atoms: C3_3  and  C4_4 
REMARK    3  A    between atoms: C4_4  and  N1_5 
REMARK    4  A    between atoms: N1_5  and  C5_6 
REMARK       I    between atoms: N1_5  and  C13_15 
REMARK    5  A    between atoms: C5_6  and  C6_7 
REMARK    6  A    between atoms: C12_13  and  O1_14 
REMARK       I    between atoms: C13_15  and  N2_17 
REMARK    7  A    between atoms: N2_17  and  C14_18 
ROOT
HETATM    1  N1  UNL     1      25.453   3.599  50.558  1.00  0.00    -0.330 N 
HETATM    2  C13 UNL     1      25.998   2.610  51.421  1.00  0.00     0.323 C 
HETATM    3  O2  UNL     1      27.247   2.571  51.140  1.00  0.00    -0.247 OA
HETATM    4  N2  UNL     1      25.539   1.738  52.423  1.00  0.00    -0.309 N 
HETATM    5  H19 UNL     1      24.515   1.891  52.548  1.00  0.00     0.170 HD
ENDROOT
BRANCH   1   6
HETATM    6  C4  UNL     1      26.418   4.239  49.713  1.00  0.00     0.128 C 
BRANCH   6   7
HETATM    7  C3  UNL     1      25.942   5.618  49.246  1.00  0.00     0.020 C 
BRANCH   7   8
HETATM    8  C2  UNL     1      27.138   6.171  48.456  1.00  0.00    -0.003 C 
HETATM    9  C1  UNL     1      28.277   5.211  48.434  1.00  0.00     0.005 C 
ENDBRANCH   7   8
ENDBRANCH   6   7
ENDBRANCH   1   6
BRANCH   1  10
HETATM   10  C5  UNL     1      24.081   4.080  50.348  1.00  0.00     0.169 C 
BRANCH  10  11
HETATM   11  C6  UNL     1      23.146   3.011  49.937  1.00  0.00    -0.006 A 
HETATM   12  C7  UNL     1      22.961   2.793  48.564  1.00  0.00     0.012 A 
HETATM   13  C8  UNL     1      22.149   1.852  47.966  1.00  0.00     0.001 A 
HETATM   14  C9  UNL     1      21.437   1.032  48.816  1.00  0.00     0.009 A 
HETATM   15  C10 UNL     1      21.563   1.183  50.180  1.00  0.00    -0.028 A 
HETATM   16  C11 UNL     1      20.814   0.317  51.128  1.00  0.00     0.051 C 
HETATM   17  C12 UNL     1      22.395   2.145  50.697  1.00  0.00     0.079 A 
BRANCH  17  18
HETATM   18  O1  UNL     1      22.511   2.285  52.069  1.00  0.00    -0.360 OA
HETATM   19  H18 UNL     1      21.706   2.029  52.629  1.00  0.00     0.217 HD
ENDBRANCH  17  18
ENDBRANCH  10  11
ENDBRANCH   1  10
BRANCH   4  20
HETATM   20  C14 UNL     1      26.492   0.881  53.039  1.00  0.00     0.039 A 
HETATM   21  C15 UNL     1      27.274   1.146  54.141  1.00  0.00     0.049 A 
HETATM   22  C16 UNL     1      28.152   0.184  54.602  1.00  0.00     0.118 A 
HETATM   23  N3  UNL     1      28.256  -1.008  53.995  1.00  0.00    -0.273 NA
HETATM   24  C17 UNL     1      27.503  -1.311  52.905  1.00  0.00     0.118 A 
HETATM   25  C18 UNL     1      26.625  -0.360  52.435  1.00  0.00     0.049 A 
ENDBRANCH   4  20
TORSDOF 7
ENDMDL
MODEL 2
REMARK VINA RESULT:      -7.0      1.589      4.863
REMARK  7 active torsions:
REMARK  status: ('A' for Active; 'I' for Inactive)
REMARK    1  A    between atoms: C2_2  and  C3_3 
REMARK    2  A    between atoms: C3_3  and  C4_4 
REMARK    3  A    between atoms: C4_4  and  N1_5 
REMARK    4  A    between atoms: N1_5  and  C5_6 
REMARK       I    between atoms: N1_5  and  C13_15 
REMARK    5  A    between atoms: C5_6  and  C6_7 
REMARK    6  A    between atoms: C12_13  and  O1_14 
REMARK       I    between atoms: C13_15  and  N2_17 
REMARK    7  A    between atoms: N2_17  and  C14_18 
ROOT
HETATM    1  N1  UNL     1      24.380   3.088  51.199  1.00  0.00    -0.330 N 
HETATM    2  C13 UNL     1      25.412   2.506  51.984  1.00  0.00     0.323 C 
HETATM    3  O2  UNL     1      25.011   2.608  53.195  1.00  0.00    -0.247 OA
HETATM    4  N2  UNL     1      26.661   1.896  51.771  1.00  0.00    -0.309 N 
HETATM    5  H19 UNL     1      26.846   1.874  50.744  1.00  0.00     0.170 HD
ENDROOT
BRANCH   1   6
HETATM    6  C4  UNL     1      23.256   3.551  51.957  1.00  0.00     0.128 C 
BRANCH   6   7
HETATM    7  C3  UNL     1      21.931   3.037  51.384  1.00  0.00     0.020 C 
BRANCH   7   8
HETATM    8  C2  UNL     1      21.608   1.809  52.248  1.00  0.00    -0.003 C 
HETATM    9  C1  UNL     1      21.563   0.560  51.437  1.00  0.00     0.005 C 
ENDBRANCH   7   8
ENDBRANCH   6   7
ENDBRANCH   1   6
BRANCH   1  10
HETATM   10  C5  UNL     1      24.253   3.330  49.755  1.00  0.00     0.169 C 
BRANCH  10  11
HETATM   11  C6  UNL     1      25.060   4.475  49.283  1.00  0.00    -0.006 A 
HETATM   12  C7  UNL     1      24.401   5.690  49.047  1.00  0.00     0.012 A 
HETATM   13  C8  UNL     1      24.957   6.876  48.615  1.00  0.00     0.001 A 
HETATM   14  C9  UNL     1      26.318   6.865  48.389  1.00  0.00     0.009 A 
HETATM   15  C10 UNL     1      27.038   5.709  48.596  1.00  0.00    -0.028 A 
HETATM   16  C11 UNL     1      28.506   5.658  48.364  1.00  0.00     0.051 C 
HETATM   17  C12 UNL     1      26.409   4.568  49.029  1.00  0.00     0.079 A 
BRANCH  17  18
HETATM   18  O1  UNL     1      27.145   3.414  49.232  1.00  0.00    -0.360 OA
HETATM   19  H18 UNL     1      27.656   3.046  48.437  1.00  0.00     0.217 HD
ENDBRANCH  17  18
ENDBRANCH  10  11
ENDBRANCH   1  10
BRANCH   4  20
HETATM   20  C14 UNL     1      27.378   1.447  52.913  1.00  0.00     0.039 A 
HETATM   21  C15 UNL     1      27.196   0.277  53.616  1.00  0.00     0.049 A 
HETATM   22  C16 UNL     1      27.996   0.007  54.710  1.00  0.00     0.118 A 
HETATM   23  N3  UNL     1      28.949   0.865  55.102  1.00  0.00    -0.273 NA
HETATM   24  C17 UNL     1      29.163   2.031  54.437  1.00  0.00     0.118 A 
HETATM   25  C18 UNL     1      28.372   2.312  53.344  1.00  0.00     0.049 A 
ENDBRANCH   4  20
TORSDOF 7
ENDMDL
MODEL 3
REMARK VINA RESULT:      -7.0      1.969      4.898
REMARK  7 active torsions:
REMARK  status: ('A' for Active; 'I' for Inactive)
REMARK    1  A    between atoms: C2_2  and  C3_3 
REMARK    2  A    between atoms: C3_3  and  C4_4 
REMARK    3  A    between atoms: C4_4  and  N1_5 
REMARK    4  A    between atoms: N1_5  and  C5_6 
REMARK       I    between atoms: N1_5  and  C13_15 
REMARK    5  A    between atoms: C5_6  and  C6_7 
REMARK    6  A    between atoms: C12_13  and  O1_14 
REMARK       I    between atoms: C13_15  and  N2_17 
REMARK    7  A    between atoms: N2_17  and  C14_18 
ROOT
HETATM    1  N1  UNL     1      23.453   0.564  53.135  1.00  0.00    -0.330 N 
HETATM    2  C13 UNL     1      24.852   0.337  53.234  1.00  0.00     0.323 C 
HETATM    3  O2  UNL     1      24.967  -0.857  53.681  1.00  0.00    -0.247 OA
HETATM    4  N2  UNL     1      26.040   1.045  52.982  1.00  0.00    -0.309 N 
HETATM    5  H19 UNL     1      25.789   1.988  52.615  1.00  0.00     0.170 HD
ENDROOT
BRANCH   1   6
HETATM    6  C4  UNL     1      22.646  -0.560  53.508  1.00  0.00     0.128 C 
BRANCH   6   7
HETATM    7  C3  UNL     1      21.490  -0.153  54.427  1.00  0.00     0.020 C 
BRANCH   7   8
HETATM    8  C2  UNL     1      20.281  -0.906  53.852  1.00  0.00    -0.003 C 
HETATM    9  C1  UNL     1      19.749  -0.244  52.628  1.00  0.00     0.005 C 
ENDBRANCH   7   8
ENDBRANCH   6   7
ENDBRANCH   1   6
BRANCH   1  10
HETATM   10  C5  UNL     1      22.668   1.743  52.743  1.00  0.00     0.169 C 
BRANCH  10  11
HETATM   11  C6  UNL     1      22.955   2.202  51.367  1.00  0.00    -0.006 A 
HETATM   12  C7  UNL     1      22.171   1.685  50.326  1.00  0.00     0.012 A 
HETATM   13  C8  UNL     1      22.262   1.980  48.981  1.00  0.00     0.001 A 
HETATM   14  C9  UNL     1      23.237   2.886  48.620  1.00  0.00     0.009 A 
HETATM   15  C10 UNL     1      24.051   3.439  49.585  1.00  0.00    -0.028 A 
HETATM   16  C11 UNL     1      25.112   4.419  49.235  1.00  0.00     0.051 C 
HETATM   17  C12 UNL     1      23.895   3.093  50.905  1.00  0.00     0.079 A 
BRANCH  17  18
HETATM   18  O1  UNL     1      24.720   3.656  51.862  1.00  0.00    -0.360 OA
HETATM   19  H18 UNL     1      25.719   3.615  51.694  1.00  0.00     0.217 HD
ENDBRANCH  17  18
ENDBRANCH  10  11
ENDBRANCH   1  10
BRANCH   4  20
HETATM   20  C14 UNL     1      27.270   0.383  53.247  1.00  0.00     0.039 A 
HETATM   21  C15 UNL     1      27.643  -0.887  52.866  1.00  0.00     0.049 A 
HETATM   22  C16 UNL     1      28.890  -1.366  53.216  1.00  0.00     0.118 A 
HETATM   23  N3  UNL     1      29.748  -0.616  53.923  1.00  0.00    -0.273 NA
HETATM   24  C17 UNL     1      29.422   0.642  54.320  1.00  0.00     0.118 A 
HETATM   25  C18 UNL     1      28.181   1.132  53.976  1.00  0.00     0.049 A 
ENDBRANCH   4  20
TORSDOF 7
ENDMDL
MODEL 4
REMARK VINA RESULT:      -6.8      2.429      6.926
REMARK  7 active torsions:
REMARK  status: ('A' for Active; 'I' for Inactive)
REMARK    1  A    between atoms: C2_2  and  C3_3 
REMARK    2  A    between atoms: C3_3  and  C4_4 
REMARK    3  A    between atoms: C4_4  and  N1_5 
REMARK    4  A    between atoms: N1_5  and  C5_6 
REMARK       I    between atoms: N1_5  and  C13_15 
REMARK    5  A    between atoms: C5_6  and  C6_7 
REMARK    6  A    between atoms: C12_13  and  O1_14 
REMARK       I    between atoms: C13_15  and  N2_17 
REMARK    7  A    between atoms: N2_17  and  C14_18 
ROOT
HETATM    1  N1  UNL     1      24.360   0.744  53.049  1.00  0.00    -0.330 N 
HETATM    2  C13 UNL     1      24.709   1.812  52.180  1.00  0.00     0.323 C 
HETATM    3  O2  UNL     1      23.719   1.927  51.376  1.00  0.00    -0.247 OA
HETATM    4  N2  UNL     1      25.785   2.699  52.002  1.00  0.00    -0.309 N 
HETATM    5  H19 UNL     1      26.504   2.494  52.731  1.00  0.00     0.170 HD
ENDROOT
BRANCH   1   6
HETATM    6  C4  UNL     1      23.067   0.179  52.798  1.00  0.00     0.128 C 
BRANCH   6   7
HETATM    7  C3  UNL     1      22.563  -0.644  53.988  1.00  0.00     0.020 C 
BRANCH   7   8
HETATM    8  C2  UNL     1      21.204  -0.011  54.324  1.00  0.00    -0.003 C 
HETATM    9  C1  UNL     1      20.637   0.729  53.161  1.00  0.00     0.005 C 
ENDBRANCH   7   8
ENDBRANCH   6   7
ENDBRANCH   1   6
BRANCH   1  10
HETATM   10  C5  UNL     1      25.083   0.087  54.148  1.00  0.00     0.169 C 
BRANCH  10  11
HETATM   11  C6  UNL     1      26.368  -0.508  53.725  1.00  0.00    -0.006 A 
HETATM   12  C7  UNL     1      26.329  -1.707  52.999  1.00  0.00     0.012 A 
HETATM   13  C8  UNL     1      27.399  -2.423  52.504  1.00  0.00     0.001 A 
HETATM   14  C9  UNL     1      28.651  -1.900  52.754  1.00  0.00     0.009 A 
HETATM   15  C10 UNL     1      28.775  -0.726  53.462  1.00  0.00    -0.028 A 
HETATM   16  C11 UNL     1      30.107  -0.131  53.751  1.00  0.00     0.051 C 
HETATM   17  C12 UNL     1      27.658  -0.071  53.921  1.00  0.00     0.079 A 
BRANCH  17  18
HETATM   18  O1  UNL     1      27.798   1.108  54.632  1.00  0.00    -0.360 OA
HETATM   19  H18 UNL     1      28.164   1.909  54.130  1.00  0.00     0.217 HD
ENDBRANCH  17  18
ENDBRANCH  10  11
ENDBRANCH   1  10
BRANCH   4  20
HETATM   20  C14 UNL     1      25.692   3.646  50.946  1.00  0.00     0.039 A 
HETATM   21  C15 UNL     1      24.690   4.564  50.723  1.00  0.00     0.049 A 
HETATM   22  C16 UNL     1      24.770   5.411  49.635  1.00  0.00     0.118 A 
HETATM   23  N3  UNL     1      25.808   5.357  48.789  1.00  0.00    -0.273 NA
HETATM   24  C17 UNL     1      26.820   4.467  48.971  1.00  0.00     0.118 A 
HETATM   25  C18 UNL     1      26.751   3.616  50.052  1.00  0.00     0.049 A 
ENDBRANCH   4  20
TORSDOF 7
ENDMDL
MODEL 5
REMARK VINA RESULT:      -6.7      1.673      2.415
REMARK  7 active torsions:
REMARK  status: ('A' for Active; 'I' for Inactive)
REMARK    1  A    between atoms: C2_2  and  C3_3 
REMARK    2  A    between atoms: C3_3  and  C4_4 
REMARK    3  A    between atoms: C4_4  and  N1_5 
REMARK    4  A    between atoms: N1_5  and  C5_6 
REMARK       I    between atoms: N1_5  and  C13_15 
REMARK    5  A    between atoms: C5_6  and  C6_7 
REMARK    6  A    between atoms: C12_13  and  O1_14 
REMARK       I    between atoms: C13_15  and  N2_17 
REMARK    7  A    between atoms: N2_17  and  C14_18 
ROOT
HETATM    1  N1  UNL     1      24.930   2.353  51.842  1.00  0.00    -0.330 N 
HETATM    2  C13 UNL     1      25.853   1.371  52.290  1.00  0.00     0.323 C 
HETATM    3  O2  UNL     1      26.734   1.292  51.364  1.00  0.00    -0.247 OA
HETATM    4  N2  UNL     1      26.021   0.535  53.407  1.00  0.00    -0.309 N 
HETATM    5  H19 UNL     1      25.241   0.718  54.075  1.00  0.00     0.170 HD
ENDROOT
BRANCH   1   6
HETATM    6  C4  UNL     1      25.267   2.947  50.582  1.00  0.00     0.128 C 
BRANCH   6   7
HETATM    7  C3  UNL     1      24.831   4.414  50.508  1.00  0.00     0.020 C 
BRANCH   7   8
HETATM    8  C2  UNL     1      25.806   5.037  49.498  1.00  0.00    -0.003 C 
HETATM    9  C1  UNL     1      26.945   4.125  49.195  1.00  0.00     0.005 C 
ENDBRANCH   7   8
ENDBRANCH   6   7
ENDBRANCH   1   6
BRANCH   1  10
HETATM   10  C5  UNL     1      23.676   2.866  52.413  1.00  0.00     0.169 C 
BRANCH  10  11
HETATM   11  C6  UNL     1      22.534   1.945  52.229  1.00  0.00    -0.006 A 
HETATM   12  C7  UNL     1      22.353   0.926  53.175  1.00  0.00     0.012 A 
HETATM   13  C8  UNL     1      21.359  -0.030  53.198  1.00  0.00     0.001 A 
HETATM   14  C9  UNL     1      20.437   0.024  52.174  1.00  0.00     0.009 A 
HETATM   15  C10 UNL     1      20.545   0.995  51.204  1.00  0.00    -0.028 A 
HETATM   16  C11 UNL     1      19.570   1.086  50.085  1.00  0.00     0.051 C 
HETATM   17  C12 UNL     1      21.566   1.913  51.252  1.00  0.00     0.079 A 
BRANCH  17  18
HETATM   18  O1  UNL     1      21.663   2.883  50.270  1.00  0.00    -0.360 OA
HETATM   19  H18 UNL     1      22.251   3.685  50.469  1.00  0.00     0.217 HD
ENDBRANCH  17  18
ENDBRANCH  10  11
ENDBRANCH   1  10
BRANCH   4  20
HETATM   20  C14 UNL     1      27.148  -0.332  53.419  1.00  0.00     0.039 A 
HETATM   21  C15 UNL     1      28.411  -0.065  53.899  1.00  0.00     0.049 A 
HETATM   22  C16 UNL     1      29.388  -1.039  53.826  1.00  0.00     0.118 A 
HETATM   23  N3  UNL     1      29.130  -2.243  53.295  1.00  0.00    -0.273 NA
HETATM   24  C17 UNL     1      27.897  -2.549  52.810  1.00  0.00     0.118 A 
HETATM   25  C18 UNL     1      26.914  -1.586  52.877  1.00  0.00     0.049 A 
ENDBRANCH   4  20
TORSDOF 7
ENDMDL
MODEL 6
REMARK VINA RESULT:      -6.5      4.855      8.049
REMARK  7 active torsions:
REMARK  status: ('A' for Active; 'I' for Inactive)
REMARK    1  A    between atoms: C2_2  and  C3_3 
REMARK    2  A    between atoms: C3_3  and  C4_4 
REMARK    3  A    between atoms: C4_4  and  N1_5 
REMARK    4  A    between atoms: N1_5  and  C5_6 
REMARK       I    between atoms: N1_5  and  C13_15 
REMARK    5  A    between atoms: C5_6  and  C6_7 
REMARK    6  A    between atoms: C12_13  and  O1_14 
REMARK       I    between atoms: C13_15  and  N2_17 
REMARK    7  A    between atoms: N2_17  and  C14_18 
ROOT
HETATM    1  N1  UNL     1      19.432   0.844  51.761  1.00  0.00    -0.330 N 
HETATM    2  C13 UNL     1      18.547  -0.219  52.086  1.00  0.00     0.323 C 
HETATM    3  O2  UNL     1      17.991  -0.542  50.979  1.00  0.00    -0.247 OA
HETATM    4  N2  UNL     1      18.166  -0.942  53.230  1.00  0.00    -0.309 N 
HETATM    5  H19 UNL     1      18.706  -0.577  54.044  1.00  0.00     0.170 HD
ENDROOT
BRANCH   1   6
HETATM    6  C4  UNL     1      19.457   1.185  50.369  1.00  0.00     0.128 C 
BRANCH   6   7
HETATM    7  C3  UNL     1      19.983   2.605  50.139  1.00  0.00     0.020 C 
BRANCH   7   8
HETATM    8  C2  UNL     1      20.883   2.468  48.902  1.00  0.00    -0.003 C 
HETATM    9  C1  UNL     1      21.474   1.104  48.798  1.00  0.00     0.005 C 
ENDBRANCH   7   8
ENDBRANCH   6   7
ENDBRANCH   1   6
BRANCH   1  10
HETATM   10  C5  UNL     1      20.315   1.682  52.585  1.00  0.00     0.169 C 
BRANCH  10  11
HETATM   11  C6  UNL     1      21.552   0.987  53.004  1.00  0.00    -0.006 A 
HETATM   12  C7  UNL     1      22.726   1.246  52.283  1.00  0.00     0.012 A 
HETATM   13  C8  UNL     1      23.980   0.717  52.505  1.00  0.00     0.001 A 
HETATM   14  C9  UNL     1      24.091  -0.168  53.557  1.00  0.00     0.009 A 
HETATM   15  C10 UNL     1      22.982  -0.476  54.315  1.00  0.00    -0.028 A 
HETATM   16  C11 UNL     1      23.062  -1.425  55.457  1.00  0.00     0.051 C 
HETATM   17  C12 UNL     1      21.767   0.095  54.028  1.00  0.00     0.079 A 
BRANCH  17  18
HETATM   18  O1  UNL     1      20.661  -0.224  54.797  1.00  0.00    -0.360 OA
HETATM   19  H18 UNL     1      19.962  -0.825  54.374  1.00  0.00     0.217 HD
ENDBRANCH  17  18
ENDBRANCH  10  11
ENDBRANCH   1  10
BRANCH   4  20
HETATM   20  C14 UNL     1      17.193  -1.966  53.069  1.00  0.00     0.039 A 
HETATM   21  C15 UNL     1      15.952  -1.864  52.481  1.00  0.00     0.049 A 
HETATM   22  C16 UNL     1      15.135  -2.976  52.413  1.00  0.00     0.118 A 
HETATM   23  N3  UNL     1      15.530  -4.157  52.909  1.00  0.00    -0.273 NA
HETATM   24  C17 UNL     1      16.747  -4.303  53.497  1.00  0.00     0.118 A 
HETATM   25  C18 UNL     1      17.570  -3.201  53.571  1.00  0.00     0.049 A 
ENDBRANCH   4  20
TORSDOF 7
ENDMDL
MODEL 7
REMARK VINA RESULT:      -6.5      2.296      3.687
REMARK  7 active torsions:
REMARK  status: ('A' for Active; 'I' for Inactive)
REMARK    1  A    between atoms: C2_2  and  C3_3 
REMARK    2  A    between atoms: C3_3  and  C4_4 
REMARK    3  A    between atoms: C4_4  and  N1_5 
REMARK    4  A    between atoms: N1_5  and  C5_6 
REMARK       I    between atoms: N1_5  and  C13_15 
REMARK    5  A    between atoms: C5_6  and  C6_7 
REMARK    6  A    between atoms: C12_13  and  O1_14 
REMARK       I    between atoms: C13_15  and  N2_17 
REMARK    7  A    between atoms: N2_17  and  C14_18 
ROOT
HETATM    1  N1  UNL     1      23.223   1.896  51.870  1.00  0.00    -0.330 N 
HETATM    2  C13 UNL     1      24.529   1.733  52.406  1.00  0.00     0.323 C 
HETATM    3  O2  UNL     1      24.776   2.826  53.025  1.00  0.00    -0.247 OA
HETATM    4  N2  UNL     1      25.531   0.747  52.421  1.00  0.00    -0.309 N 
HETATM    5  H19 UNL     1      25.184  -0.082  51.891  1.00  0.00     0.170 HD
ENDROOT
BRANCH   1   6
HETATM    6  C4  UNL     1      22.604   3.146  52.199  1.00  0.00     0.128 C 
BRANCH   6   7
HETATM    7  C3  UNL     1      22.022   3.837  50.961  1.00  0.00     0.020 C 
BRANCH   7   8
HETATM    8  C2  UNL     1      23.171   4.724  50.460  1.00  0.00    -0.003 C 
HETATM    9  C1  UNL     1      23.798   4.171  49.226  1.00  0.00     0.005 C 
ENDBRANCH   7   8
ENDBRANCH   6   7
ENDBRANCH   1   6
BRANCH   1  10
HETATM   10  C5  UNL     1      22.388   1.035  51.020  1.00  0.00     0.169 C 
BRANCH  10  11
HETATM   11  C6  UNL     1      21.254   0.425  51.746  1.00  0.00    -0.006 A 
HETATM   12  C7  UNL     1      21.528  -0.249  52.944  1.00  0.00     0.012 A 
HETATM   13  C8  UNL     1      20.627  -0.879  53.778  1.00  0.00     0.001 A 
HETATM   14  C9  UNL     1      19.305  -0.841  53.386  1.00  0.00     0.009 A 
HETATM   15  C10 UNL     1      18.953  -0.198  52.220  1.00  0.00    -0.028 A 
HETATM   16  C11 UNL     1      17.538  -0.135  51.766  1.00  0.00     0.051 C 
HETATM   17  C12 UNL     1      19.912   0.406  51.445  1.00  0.00     0.079 A 
BRANCH  17  18
HETATM   18  O1  UNL     1      19.544   1.048  50.275  1.00  0.00    -0.360 OA
HETATM   19  H18 UNL     1      20.291   1.364  49.667  1.00  0.00     0.217 HD
ENDBRANCH  17  18
ENDBRANCH  10  11
ENDBRANCH   1  10
BRANCH   4  20
HETATM   20  C14 UNL     1      26.736   1.042  53.115  1.00  0.00     0.039 A 
HETATM   21  C15 UNL     1      27.600   2.091  52.894  1.00  0.00     0.049 A 
HETATM   22  C16 UNL     1      28.732   2.220  53.675  1.00  0.00     0.118 A 
HETATM   23  N3  UNL     1      29.006   1.339  54.649  1.00  0.00    -0.273 NA
HETATM   24  C17 UNL     1      28.181   0.289  54.902  1.00  0.00     0.118 A 
HETATM   25  C18 UNL     1      27.049   0.150  54.129  1.00  0.00     0.049 A 
ENDBRANCH   4  20
TORSDOF 7
ENDMDL
MODEL 8
REMARK VINA RESULT:      -6.4      2.461      6.366
REMARK  7 active torsions:
REMARK  status: ('A' for Active; 'I' for Inactive)
REMARK    1  A    between atoms: C2_2  and  C3_3 
REMARK    2  A    between atoms: C3_3  and  C4_4 
REMARK    3  A    between atoms: C4_4  and  N1_5 
REMARK    4  A    between atoms: N1_5  and  C5_6 
REMARK       I    between atoms: N1_5  and  C13_15 
REMARK    5  A    between atoms: C5_6  and  C6_7 
REMARK    6  A    between atoms: C12_13  and  O1_14 
REMARK       I    between atoms: C13_15  and  N2_17 
REMARK    7  A    between atoms: N2_17  and  C14_18 
ROOT
HETATM    1  N1  UNL     1      23.981   2.296  52.061  1.00  0.00    -0.330 N 
HETATM    2  C13 UNL     1      22.587   2.035  51.984  1.00  0.00     0.323 C 
HETATM    3  O2  UNL     1      22.296   2.124  50.741  1.00  0.00    -0.247 OA
HETATM    4  N2  UNL     1      21.537   1.729  52.868  1.00  0.00    -0.309 N 
HETATM    5  H19 UNL     1      21.925   1.679  53.835  1.00  0.00     0.170 HD
ENDROOT
BRANCH   1   6
HETATM    6  C4  UNL     1      24.606   2.529  50.792  1.00  0.00     0.128 C 
BRANCH   6   7
HETATM    7  C3  UNL     1      25.426   3.823  50.788  1.00  0.00     0.020 C 
BRANCH   7   8
HETATM    8  C2  UNL     1      25.631   4.124  49.296  1.00  0.00    -0.003 C 
HETATM    9  C1  UNL     1      26.991   4.668  49.024  1.00  0.00     0.005 C 
ENDBRANCH   7   8
ENDBRANCH   6   7
ENDBRANCH   1   6
BRANCH   1  10
HETATM   10  C5  UNL     1      24.908   2.397  53.197  1.00  0.00     0.169 C 
BRANCH  10  11
HETATM   11  C6  UNL     1      25.937   1.335  53.204  1.00  0.00    -0.006 A 
HETATM   12  C7  UNL     1      25.545   0.039  52.839  1.00  0.00     0.012 A 
HETATM   13  C8  UNL     1      26.336  -1.089  52.771  1.00  0.00     0.001 A 
HETATM   14  C9  UNL     1      27.665  -0.922  53.101  1.00  0.00     0.009 A 
HETATM   15  C10 UNL     1      28.129   0.321  53.472  1.00  0.00    -0.028 A 
HETATM   16  C11 UNL     1      29.555   0.540  53.835  1.00  0.00     0.051 C 
HETATM   17  C12 UNL     1      27.276   1.396  53.514  1.00  0.00     0.079 A 
BRANCH  17  18
HETATM   18  O1  UNL     1      27.756   2.638  53.890  1.00  0.00    -0.360 OA
HETATM   19  H18 UNL     1      28.584   2.656  54.475  1.00  0.00     0.217 HD
ENDBRANCH  17  18
ENDBRANCH  10  11
ENDBRANCH   1  10
BRANCH   4  20
HETATM   20  C14 UNL     1      20.240   1.547  52.313  1.00  0.00     0.039 A 
HETATM   21  C15 UNL     1      19.336   2.520  51.951  1.00  0.00     0.049 A 
HETATM   22  C16 UNL     1      18.113   2.153  51.422  1.00  0.00     0.118 A 
HETATM   23  N3  UNL     1      17.790   0.862  51.255  1.00  0.00    -0.273 NA
HETATM   24  C17 UNL     1      18.653  -0.130  51.598  1.00  0.00     0.118 A 
HETATM   25  C18 UNL     1      19.875   0.224  52.126  1.00  0.00     0.049 A 
ENDBRANCH   4  20
TORSDOF 7
ENDMDL
MODEL 9
REMARK VINA RESULT:      -6.3      1.694      4.766
REMARK  7 active torsions:
REMARK  status: ('A' for Active; 'I' for Inactive)
REMARK    1  A    between atoms: C2_2  and  C3_3 
REMARK    2  A    between atoms: C3_3  and  C4_4 
REMARK    3  A    between atoms: C4_4  and  N1_5 
REMARK    4  A    between atoms: N1_5  and  C5_6 
REMARK       I    between atoms: N1_5  and  C13_15 
REMARK    5  A    between atoms: C5_6  and  C6_7 
REMARK    6  A    between atoms: C12_13  and  O1_14 
REMARK       I    between atoms: C13_15  and  N2_17 
REMARK    7  A    between atoms: N2_17  and  C14_18 
ROOT
HETATM    1  N1  UNL     1      23.736   2.092  51.492  1.00  0.00    -0.330 N 
HETATM    2  C13 UNL     1      24.922   1.563  52.069  1.00  0.00     0.323 C 
HETATM    3  O2  UNL     1      24.573   1.146  53.228  1.00  0.00    -0.247 OA
HETATM    4  N2  UNL     1      26.271   1.401  51.707  1.00  0.00    -0.309 N 
HETATM    5  H19 UNL     1      26.399   1.774  50.741  1.00  0.00     0.170 HD
ENDROOT
BRANCH   1   6
HETATM    6  C4  UNL     1      22.573   1.969  52.321  1.00  0.00     0.128 C 
BRANCH   6   7
HETATM    7  C3  UNL     1      21.396   1.344  51.565  1.00  0.00     0.020 C 
BRANCH   7   8
HETATM    8  C2  UNL     1      20.379   1.022  52.670  1.00  0.00    -0.003 C 
HETATM    9  C1  UNL     1      19.346   0.054  52.205  1.00  0.00     0.005 C 
ENDBRANCH   7   8
ENDBRANCH   6   7
ENDBRANCH   1   6
BRANCH   1  10
HETATM   10  C5  UNL     1      23.473   2.764  50.212  1.00  0.00     0.169 C 
BRANCH  10  11
HETATM   11  C6  UNL     1      24.171   4.061  50.082  1.00  0.00    -0.006 A 
HETATM   12  C7  UNL     1      25.398   4.080  49.403  1.00  0.00     0.012 A 
HETATM   13  C8  UNL     1      26.206   5.172  49.162  1.00  0.00     0.001 A 
HETATM   14  C9  UNL     1      25.756   6.383  49.646  1.00  0.00     0.009 A 
HETATM   15  C10 UNL     1      24.559   6.447  50.326  1.00  0.00    -0.028 A 
HETATM   16  C11 UNL     1      24.041   7.734  50.861  1.00  0.00     0.051 C 
HETATM   17  C12 UNL     1      23.811   5.313  50.523  1.00  0.00     0.079 A 
BRANCH  17  18
HETATM   18  O1  UNL     1      22.612   5.393  51.208  1.00  0.00    -0.360 OA
HETATM   19  H18 UNL     1      21.946   6.092  50.895  1.00  0.00     0.217 HD
ENDBRANCH  17  18
ENDBRANCH  10  11
ENDBRANCH   1  10
BRANCH   4  20
HETATM   20  C14 UNL     1      27.139   0.793  52.655  1.00  0.00     0.039 A 
HETATM   21  C15 UNL     1      27.816   1.401  53.688  1.00  0.00     0.049 A 
HETATM   22  C16 UNL     1      28.621   0.644  54.516  1.00  0.00     0.118 A 
HETATM   23  N3  UNL     1      28.756  -0.678  54.332  1.00  0.00    -0.273 NA
HETATM   24  C17 UNL     1      28.105  -1.319  53.326  1.00  0.00     0.118 A 
HETATM   25  C18 UNL     1      27.300  -0.574  52.493  1.00  0.00     0.049 A 
ENDBRANCH   4  20
TORSDOF 7
ENDMDL
