MODEL 1
REMARK VINA RESULT:      -8.9      0.000      0.000
REMARK  2 active torsions:
REMARK  status: ('A' for Active; 'I' for Inactive)
REMARK    1  A    between atoms: C2_2  and  N1_3 
REMARK    2  A    between atoms: C11_15  and  O2_16 
ROOT
HETATM    1  N1  UNL     1      24.446   7.297  48.877  1.00  0.00    -0.379 N 
HETATM    2  C3  UNL     1      24.257   7.580  50.303  1.00  0.00     0.132 C 
HETATM    3  C4  UNL     1      23.042   6.842  50.819  1.00  0.00     0.011 C 
HETATM    4  C5  UNL     1      22.112   7.667  49.999  1.00  0.00     0.398 C 
HETATM    5  O1  UNL     1      21.173   8.280  49.368  1.00  0.00    -0.429 OA
HETATM    6  C6  UNL     1      23.874   6.174  51.487  1.00  0.00     0.122 C 
HETATM    7  S1  UNL     1      22.861   5.037  52.371  1.00  0.00    -0.084 SA
HETATM    8  S2  UNL     1      24.223   3.682  53.331  1.00  0.00    -0.038 SA
HETATM    9  C7  UNL     1      24.487   2.367  52.169  1.00  0.00     0.098 C 
HETATM   10  C8  UNL     1      25.477   2.410  51.263  1.00  0.00     0.066 C 
HETATM   11  C9  UNL     1      26.455   1.415  51.425  1.00  0.00     0.022 C 
HETATM   12  C10 UNL     1      26.535   0.437  52.384  1.00  0.00     0.037 C 
HETATM   13  C11 UNL     1      26.400  -0.146  53.626  1.00  0.00     0.065 C 
HETATM   14  C12 UNL     1      25.324  -0.903  54.047  1.00  0.00     0.038 C 
HETATM   15  C13 UNL     1      23.987  -0.660  53.843  1.00  0.00     0.020 C 
HETATM   16  C14 UNL     1      23.601   0.580  53.457  1.00  0.00     0.091 C 
HETATM   17  N2  UNL     1      23.487   1.559  52.551  1.00  0.00    -0.354 N 
HETATM   18  C15 UNL     1      22.214   1.804  51.915  1.00  0.00     0.156 C 
HETATM   19  C16 UNL     1      25.781   3.257  50.142  1.00  0.00     0.259 C 
HETATM   20  O3  UNL     1      25.683   2.572  49.101  1.00  0.00    -0.267 OA
HETATM   21  N3  UNL     1      26.135   4.441  49.537  1.00  0.00    -0.321 N 
HETATM   22  C17 UNL     1      26.489   5.629  48.920  1.00  0.00     0.061 A 
HETATM   23  C18 UNL     1      27.804   5.502  48.569  1.00  0.00     0.032 A 
HETATM   24  C19 UNL     1      28.564   6.484  47.912  1.00  0.00     0.002 A 
HETATM   25  C20 UNL     1      27.822   7.607  47.657  1.00  0.00     0.002 A 
HETATM   26  C21 UNL     1      26.472   7.696  48.038  1.00  0.00     0.031 A 
HETATM   27  C22 UNL     1      25.739   6.705  48.692  1.00  0.00     0.057 A 
HETATM   28  H19 UNL     1      26.223   4.832  50.493  1.00  0.00     0.169 HD
ENDROOT
BRANCH   1  29
HETATM   29  C2  UNL     1      23.755   7.514  47.633  1.00  0.00     0.118 C 
HETATM   30  C1  UNL     1      23.180   6.265  47.000  1.00  0.00     0.026 C 
ENDBRANCH   1  29
BRANCH  13  31
HETATM   31  O2  UNL     1      27.370  -0.033  54.622  1.00  0.00    -0.361 OA
HETATM   32  H12 UNL     1      28.328   0.248  54.475  1.00  0.00     0.217 HD
ENDBRANCH  13  31
TORSDOF 2
ENDMDL
MODEL 2
REMARK VINA RESULT:      -8.7      3.350      5.068
REMARK  2 active torsions:
REMARK  status: ('A' for Active; 'I' for Inactive)
REMARK    1  A    between atoms: C2_2  and  N1_3 
REMARK    2  A    between atoms: C11_15  and  O2_16 
ROOT
HETATM    1  N1  UNL     1      20.940   2.780  51.039  1.00  0.00    -0.379 N 
HETATM    2  C3  UNL     1      20.873   2.253  52.406  1.00  0.00     0.132 C 
HETATM    3  C4  UNL     1      21.305   0.804  52.422  1.00  0.00     0.011 C 
HETATM    4  C5  UNL     1      20.114   0.372  51.641  1.00  0.00     0.398 C 
HETATM    5  O1  UNL     1      19.153  -0.174  50.982  1.00  0.00    -0.429 OA
HETATM    6  C6  UNL     1      22.294   1.227  53.078  1.00  0.00     0.122 C 
HETATM    7  S1  UNL     1      23.226  -0.235  53.387  1.00  0.00    -0.084 SA
HETATM    8  S2  UNL     1      25.067   0.435  54.268  1.00  0.00    -0.038 SA
HETATM    9  C7  UNL     1      26.173   0.715  52.909  1.00  0.00     0.098 C 
HETATM   10  C8  UNL     1      26.259   1.908  52.300  1.00  0.00     0.066 C 
HETATM   11  C9  UNL     1      27.508   2.538  52.432  1.00  0.00     0.022 C 
HETATM   12  C10 UNL     1      28.621   2.105  53.107  1.00  0.00     0.037 C 
HETATM   13  C11 UNL     1      29.351   1.482  54.097  1.00  0.00     0.065 C 
HETATM   14  C12 UNL     1      29.825   0.186  54.051  1.00  0.00     0.038 C 
HETATM   15  C13 UNL     1      29.171  -0.939  53.608  1.00  0.00     0.020 C 
HETATM   16  C14 UNL     1      27.825  -0.897  53.466  1.00  0.00     0.091 C 
HETATM   17  N2  UNL     1      26.710  -0.512  52.833  1.00  0.00    -0.354 N 
HETATM   18  C15 UNL     1      25.997  -1.451  51.998  1.00  0.00     0.156 C 
HETATM   19  C16 UNL     1      25.352   2.714  51.529  1.00  0.00     0.259 C 
HETATM   20  O3  UNL     1      25.782   2.769  50.357  1.00  0.00    -0.267 OA
HETATM   21  N3  UNL     1      24.233   3.493  51.339  1.00  0.00    -0.321 N 
HETATM   22  C17 UNL     1      23.110   4.277  51.139  1.00  0.00     0.061 A 
HETATM   23  C18 UNL     1      23.548   5.570  51.085  1.00  0.00     0.032 A 
HETATM   24  C19 UNL     1      22.730   6.695  50.891  1.00  0.00     0.002 A 
HETATM   25  C20 UNL     1      21.413   6.340  50.759  1.00  0.00     0.002 A 
HETATM   26  C21 UNL     1      21.005   4.997  50.824  1.00  0.00     0.031 A 
HETATM   27  C22 UNL     1      21.839   3.897  51.019  1.00  0.00     0.057 A 
HETATM   28  H19 UNL     1      24.061   3.386  52.356  1.00  0.00     0.169 HD
ENDROOT
BRANCH   1  29
HETATM   29  C2  UNL     1      20.314   2.553  49.763  1.00  0.00     0.118 C 
HETATM   30  C1  UNL     1      21.236   2.011  48.691  1.00  0.00     0.026 C 
ENDBRANCH   1  29
BRANCH  13  31
HETATM   31  O2  UNL     1      29.703   2.117  55.287  1.00  0.00    -0.361 OA
HETATM   32  H12 UNL     1      29.819   1.662  56.180  1.00  0.00     0.217 HD
ENDBRANCH  13  31
TORSDOF 2
ENDMDL
MODEL 3
REMARK VINA RESULT:      -8.6      4.886      8.634
REMARK  2 active torsions:
REMARK  status: ('A' for Active; 'I' for Inactive)
REMARK    1  A    between atoms: C2_2  and  N1_3 
REMARK    2  A    between atoms: C11_15  and  O2_16 
ROOT
HETATM    1  N1  UNL     1      16.609   0.300  51.504  1.00  0.00    -0.379 N 
HETATM    2  C3  UNL     1      17.329   0.338  50.227  1.00  0.00     0.132 C 
HETATM    3  C4  UNL     1      18.031   1.668  50.070  1.00  0.00     0.011 C 
HETATM    4  C5  UNL     1      16.744   2.409  49.961  1.00  0.00     0.398 C 
HETATM    5  O1  UNL     1      15.737   3.201  49.847  1.00  0.00    -0.429 OA
HETATM    6  C6  UNL     1      19.088   0.991  50.170  1.00  0.00     0.122 C 
HETATM    7  S1  UNL     1      20.357   2.205  50.037  1.00  0.00    -0.084 SA
HETATM    8  S2  UNL     1      22.189   1.168  50.468  1.00  0.00    -0.038 SA
HETATM    9  C7  UNL     1      22.408   1.297  52.225  1.00  0.00     0.098 C 
HETATM   10  C8  UNL     1      21.917   0.377  53.070  1.00  0.00     0.066 C 
HETATM   11  C9  UNL     1      22.896  -0.334  53.785  1.00  0.00     0.022 C 
HETATM   12  C10 UNL     1      24.262  -0.222  53.715  1.00  0.00     0.037 C 
HETATM   13  C11 UNL     1      25.497  -0.014  53.139  1.00  0.00     0.065 C 
HETATM   14  C12 UNL     1      26.170   1.191  53.094  1.00  0.00     0.038 C 
HETATM   15  C13 UNL     1      25.658   2.437  52.818  1.00  0.00     0.020 C 
HETATM   16  C14 UNL     1      24.440   2.526  52.232  1.00  0.00     0.091 C 
HETATM   17  N2  UNL     1      23.104   2.444  52.255  1.00  0.00    -0.354 N 
HETATM   18  C15 UNL     1      22.311   3.650  52.312  1.00  0.00     0.156 C 
HETATM   19  C16 UNL     1      20.596  -0.066  53.421  1.00  0.00     0.259 C 
HETATM   20  O3  UNL     1      20.384   0.252  54.611  1.00  0.00    -0.267 OA
HETATM   21  N3  UNL     1      19.381  -0.668  53.184  1.00  0.00    -0.321 N 
HETATM   22  C17 UNL     1      18.156  -1.269  52.954  1.00  0.00     0.061 A 
HETATM   23  C18 UNL     1      18.208  -2.492  53.562  1.00  0.00     0.032 A 
HETATM   24  C19 UNL     1      17.167  -3.435  53.575  1.00  0.00     0.002 A 
HETATM   25  C20 UNL     1      16.068  -2.979  52.895  1.00  0.00     0.002 A 
HETATM   26  C21 UNL     1      16.058  -1.714  52.282  1.00  0.00     0.031 A 
HETATM   27  C22 UNL     1      17.108  -0.796  52.282  1.00  0.00     0.057 A 
HETATM   28  H19 UNL     1      19.749  -0.899  52.243  1.00  0.00     0.169 HD
ENDROOT
BRANCH   1  29
HETATM   29  C2  UNL     1      15.516   0.981  52.147  1.00  0.00     0.118 C 
HETATM   30  C1  UNL     1      14.155   0.711  51.542  1.00  0.00     0.026 C 
ENDBRANCH   1  29
BRANCH  13  31
HETATM   31  O2  UNL     1      26.224  -1.033  52.526  1.00  0.00    -0.361 OA
HETATM   32  H12 UNL     1      25.964  -2.008  52.509  1.00  0.00     0.217 HD
ENDBRANCH  13  31
TORSDOF 2
ENDMDL
MODEL 4
REMARK VINA RESULT:      -8.5      4.845      7.223
REMARK  2 active torsions:
REMARK  status: ('A' for Active; 'I' for Inactive)
REMARK    1  A    between atoms: C2_2  and  N1_3 
REMARK    2  A    between atoms: C11_15  and  O2_16 
ROOT
HETATM    1  N1  UNL     1      30.703  11.886  47.118  1.00  0.00    -0.379 N 
HETATM    2  C3  UNL     1      30.068  12.076  48.426  1.00  0.00     0.132 C 
HETATM    3  C4  UNL     1      28.565  12.077  48.274  1.00  0.00     0.011 C 
HETATM    4  C5  UNL     1      28.576  13.357  47.514  1.00  0.00     0.398 C 
HETATM    5  O1  UNL     1      28.402  14.446  46.851  1.00  0.00    -0.429 OA
HETATM    6  C6  UNL     1      28.614  10.997  48.920  1.00  0.00     0.122 C 
HETATM    7  S1  UNL     1      26.923  10.518  49.034  1.00  0.00    -0.084 SA
HETATM    8  S2  UNL     1      26.943   8.546  49.887  1.00  0.00    -0.038 SA
HETATM    9  C7  UNL     1      27.047   7.431  48.510  1.00  0.00     0.098 C 
HETATM   10  C8  UNL     1      28.227   7.018  48.021  1.00  0.00     0.066 C 
HETATM   11  C9  UNL     1      28.459   5.639  48.154  1.00  0.00     0.022 C 
HETATM   12  C10 UNL     1      27.656   4.684  48.726  1.00  0.00     0.037 C 
HETATM   13  C11 UNL     1      26.747   4.146  49.612  1.00  0.00     0.065 C 
HETATM   14  C12 UNL     1      25.383   4.064  49.412  1.00  0.00     0.038 C 
HETATM   15  C13 UNL     1      24.545   5.021  48.890  1.00  0.00     0.020 C 
HETATM   16  C14 UNL     1      24.982   6.302  48.819  1.00  0.00     0.091 C 
HETATM   17  N2  UNL     1      25.735   7.271  48.284  1.00  0.00    -0.354 N 
HETATM   18  C15 UNL     1      25.135   8.238  47.395  1.00  0.00     0.156 C 
HETATM   19  C16 UNL     1      29.337   7.670  47.381  1.00  0.00     0.259 C 
HETATM   20  O3  UNL     1      29.397   7.264  46.200  1.00  0.00    -0.267 OA
HETATM   21  N3  UNL     1      30.417   8.521  47.326  1.00  0.00    -0.321 N 
HETATM   22  C17 UNL     1      31.503   9.376  47.262  1.00  0.00     0.061 A 
HETATM   23  C18 UNL     1      32.618   8.586  47.316  1.00  0.00     0.032 A 
HETATM   24  C19 UNL     1      33.942   9.051  47.277  1.00  0.00     0.002 A 
HETATM   25  C20 UNL     1      33.992  10.417  47.175  1.00  0.00     0.002 A 
HETATM   26  C21 UNL     1      32.821  11.192  47.124  1.00  0.00     0.031 A 
HETATM   27  C22 UNL     1      31.514  10.704  47.166  1.00  0.00     0.057 A 
HETATM   28  H19 UNL     1      30.251   8.698  48.334  1.00  0.00     0.169 HD
ENDROOT
BRANCH   1  29
HETATM   29  C2  UNL     1      30.805  12.574  45.857  1.00  0.00     0.118 C 
HETATM   30  C1  UNL     1      30.276  11.801  44.668  1.00  0.00     0.026 C 
ENDBRANCH   1  29
BRANCH  13  31
HETATM   31  O2  UNL     1      27.120   3.604  50.841  1.00  0.00    -0.361 OA
HETATM   32  H12 UNL     1      26.841   3.958  51.744  1.00  0.00     0.217 HD
ENDBRANCH  13  31
TORSDOF 2
ENDMDL
MODEL 5
REMARK VINA RESULT:      -8.1      2.951      7.708
REMARK  2 active torsions:
REMARK  status: ('A' for Active; 'I' for Inactive)
REMARK    1  A    between atoms: C2_2  and  N1_3 
REMARK    2  A    between atoms: C11_15  and  O2_16 
ROOT
HETATM    1  N1  UNL     1      21.993   0.393  52.718  1.00  0.00    -0.379 N 
HETATM    2  C3  UNL     1      21.893   0.266  51.261  1.00  0.00     0.132 C 
HETATM    3  C4  UNL     1      20.769   1.135  50.743  1.00  0.00     0.011 C 
HETATM    4  C5  UNL     1      19.730   0.301  51.408  1.00  0.00     0.398 C 
HETATM    5  O1  UNL     1      18.710  -0.303  51.907  1.00  0.00    -0.429 OA
HETATM    6  C6  UNL     1      21.690   1.805  50.205  1.00  0.00     0.122 C 
HETATM    7  S1  UNL     1      20.819   3.092  49.376  1.00  0.00    -0.084 SA
HETATM    8  S2  UNL     1      22.332   4.435  48.656  1.00  0.00    -0.038 SA
HETATM    9  C7  UNL     1      22.591   5.608  49.963  1.00  0.00     0.098 C 
HETATM   10  C8  UNL     1      23.505   5.407  50.924  1.00  0.00     0.066 C 
HETATM   11  C9  UNL     1      24.554   6.342  50.933  1.00  0.00     0.022 C 
HETATM   12  C10 UNL     1      24.767   7.402  50.087  1.00  0.00     0.037 C 
HETATM   13  C11 UNL     1      24.763   8.111  48.905  1.00  0.00     0.065 C 
HETATM   14  C12 UNL     1      23.771   8.980  48.493  1.00  0.00     0.038 C 
HETATM   15  C13 UNL     1      22.409   8.813  48.580  1.00  0.00     0.020 C 
HETATM   16  C14 UNL     1      21.918   7.571  48.808  1.00  0.00     0.091 C 
HETATM   17  N2  UNL     1      21.675   6.518  49.598  1.00  0.00    -0.354 N 
HETATM   18  C15 UNL     1      20.345   6.303  50.118  1.00  0.00     0.156 C 
HETATM   19  C16 UNL     1      23.671   4.435  51.970  1.00  0.00     0.259 C 
HETATM   20  O3  UNL     1      23.539   5.019  53.067  1.00  0.00    -0.267 OA
HETATM   21  N3  UNL     1      23.903   3.174  52.473  1.00  0.00    -0.321 N 
HETATM   22  C17 UNL     1      24.134   1.910  52.986  1.00  0.00     0.061 A 
HETATM   23  C18 UNL     1      25.425   1.908  53.437  1.00  0.00     0.032 A 
HETATM   24  C19 UNL     1      26.070   0.816  54.040  1.00  0.00     0.002 A 
HETATM   25  C20 UNL     1      25.241  -0.272  54.126  1.00  0.00     0.002 A 
HETATM   26  C21 UNL     1      23.921  -0.227  53.647  1.00  0.00     0.031 A 
HETATM   27  C22 UNL     1      23.303   0.872  53.051  1.00  0.00     0.057 A 
HETATM   28  H19 UNL     1      24.037   2.874  51.490  1.00  0.00     0.169 HD
ENDROOT
BRANCH   1  29
HETATM   29  C2  UNL     1      21.199   0.104  53.884  1.00  0.00     0.118 C 
HETATM   30  C1  UNL     1      21.061  -1.368  54.208  1.00  0.00     0.026 C 
ENDBRANCH   1  29
BRANCH  13  31
HETATM   31  O2  UNL     1      25.795   8.029  47.972  1.00  0.00    -0.361 OA
HETATM   32  H12 UNL     1      26.550   7.361  47.994  1.00  0.00     0.217 HD
ENDBRANCH  13  31
TORSDOF 2
ENDMDL
MODEL 6
REMARK VINA RESULT:      -8.0      4.142      6.755
REMARK  2 active torsions:
REMARK  status: ('A' for Active; 'I' for Inactive)
REMARK    1  A    between atoms: C2_2  and  N1_3 
REMARK    2  A    between atoms: C11_15  and  O2_16 
ROOT
HETATM    1  N1  UNL     1      24.464   3.716  51.625  1.00  0.00    -0.379 N 
HETATM    2  C3  UNL     1      23.508   4.645  52.236  1.00  0.00     0.132 C 
HETATM    3  C4  UNL     1      22.536   5.144  51.192  1.00  0.00     0.011 C 
HETATM    4  C5  UNL     1      23.598   5.896  50.468  1.00  0.00     0.398 C 
HETATM    5  O1  UNL     1      24.381   6.598  49.726  1.00  0.00    -0.429 OA
HETATM    6  C6  UNL     1      21.679   4.490  51.842  1.00  0.00     0.122 C 
HETATM    7  S1  UNL     1      20.191   4.768  50.942  1.00  0.00    -0.084 SA
HETATM    8  S2  UNL     1      18.732   3.466  51.831  1.00  0.00    -0.038 SA
HETATM    9  C7  UNL     1      18.851   1.936  50.939  1.00  0.00     0.098 C 
HETATM   10  C8  UNL     1      19.677   0.952  51.327  1.00  0.00     0.066 C 
HETATM   11  C9  UNL     1      19.027  -0.229  51.722  1.00  0.00     0.022 C 
HETATM   12  C10 UNL     1      17.681  -0.492  51.778  1.00  0.00     0.037 C 
HETATM   13  C11 UNL     1      16.339  -0.240  51.967  1.00  0.00     0.065 C 
HETATM   14  C12 UNL     1      15.442   0.119  50.980  1.00  0.00     0.038 C 
HETATM   15  C13 UNL     1      15.626   1.016  49.954  1.00  0.00     0.020 C 
HETATM   16  C14 UNL     1      16.658   1.891  50.031  1.00  0.00     0.091 C 
HETATM   17  N2  UNL     1      17.959   2.199  49.972  1.00  0.00    -0.354 N 
HETATM   18  C15 UNL     1      18.487   2.866  48.805  1.00  0.00     0.156 C 
HETATM   19  C16 UNL     1      21.104   0.820  51.441  1.00  0.00     0.259 C 
HETATM   20  O3  UNL     1      21.483  -0.023  50.600  1.00  0.00    -0.267 OA
HETATM   21  N3  UNL     1      22.342   1.104  51.972  1.00  0.00    -0.321 N 
HETATM   22  C17 UNL     1      23.590   1.385  52.499  1.00  0.00     0.061 A 
HETATM   23  C18 UNL     1      23.909   0.334  53.312  1.00  0.00     0.032 A 
HETATM   24  C19 UNL     1      25.100   0.211  54.047  1.00  0.00     0.002 A 
HETATM   25  C20 UNL     1      25.924   1.289  53.852  1.00  0.00     0.002 A 
HETATM   26  C21 UNL     1      25.555   2.350  53.008  1.00  0.00     0.031 A 
HETATM   27  C22 UNL     1      24.364   2.448  52.289  1.00  0.00     0.057 A 
HETATM   28  H19 UNL     1      21.846   1.725  52.638  1.00  0.00     0.169 HD
ENDROOT
BRANCH   1  29
HETATM   29  C2  UNL     1      25.504   3.736  50.630  1.00  0.00     0.118 C 
HETATM   30  C1  UNL     1      25.168   3.009  49.346  1.00  0.00     0.026 C 
ENDBRANCH   1  29
BRANCH  13  31
HETATM   31  O2  UNL     1      15.723  -0.329  53.214  1.00  0.00    -0.361 OA
HETATM   32  H12 UNL     1      14.760  -0.585  53.374  1.00  0.00     0.217 HD
ENDBRANCH  13  31
TORSDOF 2
ENDMDL
MODEL 7
REMARK VINA RESULT:      -8.0      4.039      6.950
REMARK  2 active torsions:
REMARK  status: ('A' for Active; 'I' for Inactive)
REMARK    1  A    between atoms: C2_2  and  N1_3 
REMARK    2  A    between atoms: C11_15  and  O2_16 
ROOT
HETATM    1  N1  UNL     1      17.926   2.927  49.766  1.00  0.00    -0.379 N 
HETATM    2  C3  UNL     1      19.009   2.901  48.777  1.00  0.00     0.132 C 
HETATM    3  C4  UNL     1      20.040   3.954  49.113  1.00  0.00     0.011 C 
HETATM    4  C5  UNL     1      19.095   5.067  48.818  1.00  0.00     0.398 C 
HETATM    5  O1  UNL     1      18.420   6.141  48.605  1.00  0.00    -0.429 OA
HETATM    6  C6  UNL     1      20.795   2.974  49.351  1.00  0.00     0.122 C 
HETATM    7  S1  UNL     1      22.304   3.739  49.840  1.00  0.00    -0.084 SA
HETATM    8  S2  UNL     1      23.562   2.138  50.523  1.00  0.00    -0.038 SA
HETATM    9  C7  UNL     1      23.220   1.968  52.257  1.00  0.00     0.098 C 
HETATM   10  C8  UNL     1      22.261   1.147  52.712  1.00  0.00     0.066 C 
HETATM   11  C9  UNL     1      22.734   0.082  53.497  1.00  0.00     0.022 C 
HETATM   12  C10 UNL     1      24.028  -0.230  53.833  1.00  0.00     0.037 C 
HETATM   13  C11 UNL     1      25.393  -0.346  53.679  1.00  0.00     0.065 C 
HETATM   14  C12 UNL     1      26.329   0.585  54.084  1.00  0.00     0.038 C 
HETATM   15  C13 UNL     1      26.274   1.953  53.956  1.00  0.00     0.020 C 
HETATM   16  C14 UNL     1      25.380   2.491  53.091  1.00  0.00     0.091 C 
HETATM   17  N2  UNL     1      24.137   2.827  52.726  1.00  0.00    -0.354 N 
HETATM   18  C15 UNL     1      23.707   4.202  52.823  1.00  0.00     0.156 C 
HETATM   19  C16 UNL     1      20.830   1.096  52.581  1.00  0.00     0.259 C 
HETATM   20  O3  UNL     1      20.330   1.311  53.705  1.00  0.00    -0.267 OA
HETATM   21  N3  UNL     1      19.649   0.938  51.892  1.00  0.00    -0.321 N 
HETATM   22  C17 UNL     1      18.456   0.783  51.208  1.00  0.00     0.061 A 
HETATM   23  C18 UNL     1      17.990  -0.463  51.526  1.00  0.00     0.032 A 
HETATM   24  C19 UNL     1      16.797  -1.027  51.047  1.00  0.00     0.002 A 
HETATM   25  C20 UNL     1      16.137  -0.169  50.206  1.00  0.00     0.002 A 
HETATM   26  C21 UNL     1      16.653   1.103  49.905  1.00  0.00     0.031 A 
HETATM   27  C22 UNL     1      17.844   1.640  50.394  1.00  0.00     0.057 A 
HETATM   28  H19 UNL     1      20.232   0.725  51.062  1.00  0.00     0.169 HD
ENDROOT
BRANCH   1  29
HETATM   29  C2  UNL     1      16.897   3.827  50.215  1.00  0.00     0.118 C 
HETATM   30  C1  UNL     1      16.914   4.120  51.700  1.00  0.00     0.026 C 
ENDBRANCH   1  29
BRANCH  13  31
HETATM   31  O2  UNL     1      25.994  -1.454  53.083  1.00  0.00    -0.361 OA
HETATM   32  H12 UNL     1      26.871  -1.865  53.366  1.00  0.00     0.217 HD
ENDBRANCH  13  31
TORSDOF 2
ENDMDL
MODEL 8
REMARK VINA RESULT:      -7.9      3.557      8.286
REMARK  2 active torsions:
REMARK  status: ('A' for Active; 'I' for Inactive)
REMARK    1  A    between atoms: C2_2  and  N1_3 
REMARK    2  A    between atoms: C11_15  and  O2_16 
ROOT
HETATM    1  N1  UNL     1      24.874   0.745  53.070  1.00  0.00    -0.379 N 
HETATM    2  C3  UNL     1      24.782   2.169  53.407  1.00  0.00     0.132 C 
HETATM    3  C4  UNL     1      25.124   3.008  52.197  1.00  0.00     0.011 C 
HETATM    4  C5  UNL     1      26.545   2.564  52.208  1.00  0.00     0.398 C 
HETATM    5  O1  UNL     1      27.795   2.291  52.071  1.00  0.00    -0.429 OA
HETATM    6  C6  UNL     1      23.912   3.348  52.234  1.00  0.00     0.122 C 
HETATM    7  S1  UNL     1      23.763   4.455  50.872  1.00  0.00    -0.084 SA
HETATM    8  S2  UNL     1      21.663   4.872  50.700  1.00  0.00    -0.038 SA
HETATM    9  C7  UNL     1      21.016   3.627  49.613  1.00  0.00     0.098 C 
HETATM   10  C8  UNL     1      20.546   2.458  50.074  1.00  0.00     0.066 C 
HETATM   11  C9  UNL     1      19.173   2.256  49.853  1.00  0.00     0.022 C 
HETATM   12  C10 UNL     1      18.267   3.095  49.254  1.00  0.00     0.037 C 
HETATM   13  C11 UNL     1      17.677   4.289  48.896  1.00  0.00     0.065 C 
HETATM   14  C12 UNL     1      17.929   4.993  47.735  1.00  0.00     0.038 C 
HETATM   15  C13 UNL     1      19.143   5.234  47.137  1.00  0.00     0.020 C 
HETATM   16  C14 UNL     1      20.274   5.047  47.860  1.00  0.00     0.091 C 
HETATM   17  N2  UNL     1      21.191   4.269  48.448  1.00  0.00    -0.354 N 
HETATM   18  C15 UNL     1      22.479   4.080  47.823  1.00  0.00     0.156 C 
HETATM   19  C16 UNL     1      21.129   1.337  50.761  1.00  0.00     0.259 C 
HETATM   20  O3  UNL     1      21.093   0.351  49.995  1.00  0.00    -0.267 OA
HETATM   21  N3  UNL     1      21.728   0.706  51.828  1.00  0.00    -0.321 N 
HETATM   22  C17 UNL     1      22.332   0.064  52.894  1.00  0.00     0.061 A 
HETATM   23  C18 UNL     1      21.359  -0.691  53.489  1.00  0.00     0.032 A 
HETATM   24  C19 UNL     1      21.545  -1.510  54.615  1.00  0.00     0.002 A 
HETATM   25  C20 UNL     1      22.841  -1.465  55.060  1.00  0.00     0.002 A 
HETATM   26  C21 UNL     1      23.809  -0.673  54.420  1.00  0.00     0.031 A 
HETATM   27  C22 UNL     1      23.598   0.134  53.301  1.00  0.00     0.057 A 
HETATM   28  H19 UNL     1      21.622   1.602  52.338  1.00  0.00     0.169 HD
ENDROOT
BRANCH   1  29
HETATM   29  C2  UNL     1      25.875  -0.206  52.663  1.00  0.00     0.118 C 
HETATM   30  C1  UNL     1      26.926  -0.509  53.710  1.00  0.00     0.026 C 
ENDBRANCH   1  29
BRANCH  13  31
HETATM   31  O2  UNL     1      16.728   4.930  49.691  1.00  0.00    -0.361 OA
HETATM   32  H12 UNL     1      15.828   4.553  49.945  1.00  0.00     0.217 HD
ENDBRANCH  13  31
TORSDOF 2
ENDMDL
MODEL 9
REMARK VINA RESULT:      -7.7      6.261      9.288
REMARK  2 active torsions:
REMARK  status: ('A' for Active; 'I' for Inactive)
REMARK    1  A    between atoms: C2_2  and  N1_3 
REMARK    2  A    between atoms: C11_15  and  O2_16 
ROOT
HETATM    1  N1  UNL     1      21.542   2.195  50.960  1.00  0.00    -0.379 N 
HETATM    2  C3  UNL     1      21.009   3.463  51.468  1.00  0.00     0.132 C 
HETATM    3  C4  UNL     1      20.012   4.034  50.486  1.00  0.00     0.011 C 
HETATM    4  C5  UNL     1      21.064   4.287  49.463  1.00  0.00     0.398 C 
HETATM    5  O1  UNL     1      21.836   4.574  48.475  1.00  0.00    -0.429 OA
HETATM    6  C6  UNL     1      19.164   3.797  51.386  1.00  0.00     0.122 C 
HETATM    7  S1  UNL     1      17.651   4.341  50.668  1.00  0.00    -0.084 SA
HETATM    8  S2  UNL     1      16.113   3.722  52.034  1.00  0.00    -0.038 SA
HETATM    9  C7  UNL     1      15.640   2.092  51.514  1.00  0.00     0.098 C 
HETATM   10  C8  UNL     1      16.240   0.993  51.998  1.00  0.00     0.066 C 
HETATM   11  C9  UNL     1      15.396   0.154  52.745  1.00  0.00     0.022 C 
HETATM   12  C10 UNL     1      14.069   0.322  53.052  1.00  0.00     0.037 C 
HETATM   13  C11 UNL     1      12.908   0.996  53.367  1.00  0.00     0.065 C 
HETATM   14  C12 UNL     1      11.956   1.423  52.462  1.00  0.00     0.038 C 
HETATM   15  C13 UNL     1      12.157   2.021  51.241  1.00  0.00     0.020 C 
HETATM   16  C14 UNL     1      13.376   2.545  50.964  1.00  0.00     0.091 C 
HETATM   17  N2  UNL     1      14.672   2.431  50.650  1.00  0.00    -0.354 N 
HETATM   18  C15 UNL     1      15.109   2.685  49.297  1.00  0.00     0.156 C 
HETATM   19  C16 UNL     1      17.573   0.461  51.935  1.00  0.00     0.259 C 
HETATM   20  O3  UNL     1      17.538  -0.595  51.267  1.00  0.00    -0.267 OA
HETATM   21  N3  UNL     1      18.923   0.451  52.203  1.00  0.00    -0.321 N 
HETATM   22  C17 UNL     1      20.282   0.434  52.466  1.00  0.00     0.061 A 
HETATM   23  C18 UNL     1      20.472  -0.499  53.447  1.00  0.00     0.032 A 
HETATM   24  C19 UNL     1      21.712  -0.838  54.013  1.00  0.00     0.002 A 
HETATM   25  C20 UNL     1      22.733  -0.113  53.457  1.00  0.00     0.002 A 
HETATM   26  C21 UNL     1      22.492   0.839  52.451  1.00  0.00     0.031 A 
HETATM   27  C22 UNL     1      21.249   1.159  51.907  1.00  0.00     0.057 A 
HETATM   28  H19 UNL     1      18.755   1.302  52.770  1.00  0.00     0.169 HD
ENDROOT
BRANCH   1  29
HETATM   29  C2  UNL     1      22.326   1.721  49.849  1.00  0.00     0.118 C 
HETATM   30  C1  UNL     1      21.549   0.940  48.812  1.00  0.00     0.026 C 
ENDBRANCH   1  29
BRANCH  13  31
HETATM   31  O2  UNL     1      12.558   1.324  54.676  1.00  0.00    -0.361 OA
HETATM   32  H12 UNL     1      13.207   1.473  55.434  1.00  0.00     0.217 HD
ENDBRANCH  13  31
TORSDOF 2
ENDMDL
