MODEL 1
REMARK VINA RESULT:      -8.0      0.000      0.000
REMARK  6 active torsions:
REMARK  status: ('A' for Active; 'I' for Inactive)
REMARK    1  A    between atoms: O1_2  and  C2_3 
REMARK    2  A    between atoms: C2_3  and  C3_4 
REMARK    3  A    between atoms: C3_4  and  O2_5 
REMARK    4  A    between atoms: O2_5  and  C4_6 
REMARK    5  A    between atoms: C8_12  and  N3_13 
REMARK    6  A    between atoms: N3_13  and  C9_14 
ROOT
HETATM    1  C4  UNL     1      21.076   2.016  52.551  1.00  0.00     0.107 A 
HETATM    2  C5  UNL     1      21.970   2.819  51.827  1.00  0.00     0.072 A 
HETATM    3  C6  UNL     1      23.319   2.457  51.741  1.00  0.00     0.077 A 
HETATM    4  N1  UNL     1      24.222   3.210  51.057  1.00  0.00    -0.241 NA
HETATM    5  C7  UNL     1      25.513   2.838  50.998  1.00  0.00     0.236 A 
HETATM    6  N2  UNL     1      25.975   1.710  51.612  1.00  0.00    -0.223 NA
HETATM    7  C8  UNL     1      25.134   0.930  52.300  1.00  0.00     0.144 A 
HETATM    8  C15 UNL     1      23.788   1.313  52.363  1.00  0.00     0.075 A 
HETATM    9  C16 UNL     1      22.875   0.557  53.061  1.00  0.00     0.121 A 
HETATM   10  C17 UNL     1      21.537   0.860  53.182  1.00  0.00     0.136 A 
HETATM   11  O3  UNL     1      20.635   0.067  53.901  1.00  0.00    -0.344 OA
HETATM   12  C18 UNL     1      21.084  -1.192  54.364  1.00  0.00     0.202 C 
HETATM   13  C19 UNL     1      22.513  -1.020  54.835  1.00  0.00     0.202 C 
HETATM   14  O4  UNL     1      23.283  -0.605  53.707  1.00  0.00    -0.345 OA
ENDROOT
BRANCH   7  15
HETATM   15  N3  UNL     1      25.469  -0.277  53.005  1.00  0.00    -0.340 N 
HETATM   16  H10 UNL     1      24.794  -1.037  53.308  1.00  0.00     0.167 HD
BRANCH  15  17
HETATM   17  C9  UNL     1      26.844  -0.530  53.355  1.00  0.00     0.033 A 
HETATM   18  C10 UNL     1      27.578   0.237  54.268  1.00  0.00     0.032 A 
HETATM   19  C11 UNL     1      28.887  -0.041  54.549  1.00  0.00     0.044 A 
HETATM   20  C12 UNL     1      29.492  -1.095  53.919  1.00  0.00     0.116 A 
HETATM   21  F1  UNL     1      30.803  -1.405  54.168  1.00  0.00    -0.206 F 
HETATM   22  C13 UNL     1      28.825  -1.898  53.001  1.00  0.00     0.044 A 
HETATM   23  C14 UNL     1      27.499  -1.603  52.730  1.00  0.00     0.032 A 
ENDBRANCH  15  17
ENDBRANCH   7  15
BRANCH   1  24
HETATM   24  O2  UNL     1      19.746   2.328  52.667  1.00  0.00    -0.346 OA
BRANCH  24  25
HETATM   25  C3  UNL     1      18.770   2.322  51.696  1.00  0.00     0.201 C 
BRANCH  25  26
HETATM   26  C2  UNL     1      18.519   0.952  51.142  1.00  0.00     0.193 C 
BRANCH  26  27
HETATM   27  O1  UNL     1      17.413   0.285  51.530  1.00  0.00    -0.394 OA
HETATM   28  C1  UNL     1      17.619  -0.826  52.300  1.00  0.00     0.201 C 
ENDBRANCH  26  27
ENDBRANCH  25  26
ENDBRANCH  24  25
ENDBRANCH   1  24
TORSDOF 6
ENDMDL
MODEL 2
REMARK VINA RESULT:      -8.0      1.469      3.145
REMARK  6 active torsions:
REMARK  status: ('A' for Active; 'I' for Inactive)
REMARK    1  A    between atoms: O1_2  and  C2_3 
REMARK    2  A    between atoms: C2_3  and  C3_4 
REMARK    3  A    between atoms: C3_4  and  O2_5 
REMARK    4  A    between atoms: O2_5  and  C4_6 
REMARK    5  A    between atoms: C8_12  and  N3_13 
REMARK    6  A    between atoms: N3_13  and  C9_14 
ROOT
HETATM    1  C4  UNL     1      20.523   1.146  52.878  1.00  0.00     0.107 A 
HETATM    2  C5  UNL     1      20.674   0.207  53.910  1.00  0.00     0.072 A 
HETATM    3  C6  UNL     1      21.953  -0.235  54.268  1.00  0.00     0.077 A 
HETATM    4  N1  UNL     1      22.145  -1.149  55.256  1.00  0.00    -0.241 NA
HETATM    5  C7  UNL     1      23.386  -1.559  55.572  1.00  0.00     0.236 A 
HETATM    6  N2  UNL     1      24.495  -1.089  54.929  1.00  0.00    -0.223 NA
HETATM    7  C8  UNL     1      24.368  -0.189  53.948  1.00  0.00     0.144 A 
HETATM    8  C15 UNL     1      23.077   0.242  53.616  1.00  0.00     0.075 A 
HETATM    9  C16 UNL     1      22.880   1.160  52.612  1.00  0.00     0.121 A 
HETATM   10  C17 UNL     1      21.649   1.634  52.213  1.00  0.00     0.136 A 
HETATM   11  O3  UNL     1      21.485   2.570  51.186  1.00  0.00    -0.344 OA
HETATM   12  C18 UNL     1      22.646   3.190  50.664  1.00  0.00     0.202 C 
HETATM   13  C19 UNL     1      23.729   2.134  50.588  1.00  0.00     0.202 C 
HETATM   14  O4  UNL     1      23.969   1.678  51.918  1.00  0.00    -0.345 OA
ENDROOT
BRANCH   7  15
HETATM   15  N3  UNL     1      25.432   0.389  53.174  1.00  0.00    -0.340 N 
HETATM   16  H10 UNL     1      25.340   1.163  52.456  1.00  0.00     0.167 HD
BRANCH  15  17
HETATM   17  C9  UNL     1      26.778  -0.093  53.357  1.00  0.00     0.033 A 
HETATM   18  C10 UNL     1      27.285  -1.257  52.766  1.00  0.00     0.032 A 
HETATM   19  C11 UNL     1      28.568  -1.675  52.990  1.00  0.00     0.044 A 
HETATM   20  C12 UNL     1      29.374  -0.935  53.813  1.00  0.00     0.116 A 
HETATM   21  F1  UNL     1      30.663  -1.320  54.066  1.00  0.00    -0.206 F 
HETATM   22  C13 UNL     1      28.938   0.230  54.432  1.00  0.00     0.044 A 
HETATM   23  C14 UNL     1      27.635   0.639  54.194  1.00  0.00     0.032 A 
ENDBRANCH  15  17
ENDBRANCH   7  15
BRANCH   1  24
HETATM   24  O2  UNL     1      19.293   1.610  52.488  1.00  0.00    -0.346 OA
BRANCH  24  25
HETATM   25  C3  UNL     1      18.470   1.139  51.489  1.00  0.00     0.201 C 
BRANCH  25  26
HETATM   26  C2  UNL     1      18.120  -0.308  51.666  1.00  0.00     0.193 C 
BRANCH  26  27
HETATM   27  O1  UNL     1      17.320  -0.663  52.692  1.00  0.00    -0.394 OA
HETATM   28  C1  UNL     1      17.616  -1.851  53.302  1.00  0.00     0.201 C 
ENDBRANCH  26  27
ENDBRANCH  25  26
ENDBRANCH  24  25
ENDBRANCH   1  24
TORSDOF 6
ENDMDL
MODEL 3
REMARK VINA RESULT:      -7.9      1.752      3.394
REMARK  6 active torsions:
REMARK  status: ('A' for Active; 'I' for Inactive)
REMARK    1  A    between atoms: O1_2  and  C2_3 
REMARK    2  A    between atoms: C2_3  and  C3_4 
REMARK    3  A    between atoms: C3_4  and  O2_5 
REMARK    4  A    between atoms: O2_5  and  C4_6 
REMARK    5  A    between atoms: C8_12  and  N3_13 
REMARK    6  A    between atoms: N3_13  and  C9_14 
ROOT
HETATM    1  C4  UNL     1      20.517   1.858  52.672  1.00  0.00     0.107 A 
HETATM    2  C5  UNL     1      20.567   0.849  53.645  1.00  0.00     0.072 A 
HETATM    3  C6  UNL     1      21.789   0.248  53.965  1.00  0.00     0.077 A 
HETATM    4  N1  UNL     1      21.882  -0.738  54.897  1.00  0.00    -0.241 NA
HETATM    5  C7  UNL     1      23.072  -1.301  55.176  1.00  0.00     0.236 A 
HETATM    6  N2  UNL     1      24.223  -0.919  54.551  1.00  0.00    -0.223 NA
HETATM    7  C8  UNL     1      24.194   0.046  53.626  1.00  0.00     0.144 A 
HETATM    8  C15 UNL     1      22.958   0.636  53.332  1.00  0.00     0.075 A 
HETATM    9  C16 UNL     1      22.861   1.628  52.385  1.00  0.00     0.121 A 
HETATM   10  C17 UNL     1      21.689   2.258  52.026  1.00  0.00     0.136 A 
HETATM   11  O3  UNL     1      21.627   3.265  51.057  1.00  0.00    -0.344 OA
HETATM   12  C18 UNL     1      22.847   3.783  50.562  1.00  0.00     0.202 C 
HETATM   13  C19 UNL     1      23.807   2.621  50.414  1.00  0.00     0.202 C 
HETATM   14  O4  UNL     1      23.998   2.063  51.713  1.00  0.00    -0.345 OA
ENDROOT
BRANCH   7  15
HETATM   15  N3  UNL     1      25.314   0.548  52.878  1.00  0.00    -0.340 N 
HETATM   16  H10 UNL     1      25.282   1.283  52.113  1.00  0.00     0.167 HD
BRANCH  15  17
HETATM   17  C9  UNL     1      26.633   0.039  53.156  1.00  0.00     0.033 A 
HETATM   18  C10 UNL     1      27.129  -1.174  52.664  1.00  0.00     0.032 A 
HETATM   19  C11 UNL     1      28.385  -1.615  52.976  1.00  0.00     0.044 A 
HETATM   20  C12 UNL     1      29.174  -0.849  53.792  1.00  0.00     0.116 A 
HETATM   21  F1  UNL     1      30.437  -1.256  54.133  1.00  0.00    -0.206 F 
HETATM   22  C13 UNL     1      28.747   0.364  54.317  1.00  0.00     0.044 A 
HETATM   23  C14 UNL     1      27.472   0.796  53.989  1.00  0.00     0.032 A 
ENDBRANCH  15  17
ENDBRANCH   7  15
BRANCH   1  24
HETATM   24  O2  UNL     1      19.345   2.477  52.321  1.00  0.00    -0.346 OA
BRANCH  24  25
HETATM   25  C3  UNL     1      18.283   1.971  51.606  1.00  0.00     0.201 C 
BRANCH  25  26
HETATM   26  C2  UNL     1      17.247   3.011  51.302  1.00  0.00     0.193 C 
BRANCH  26  27
HETATM   27  O1  UNL     1      16.933   3.915  52.252  1.00  0.00    -0.394 OA
HETATM   28  C1  UNL     1      15.621   4.296  52.310  1.00  0.00     0.201 C 
ENDBRANCH  26  27
ENDBRANCH  25  26
ENDBRANCH  24  25
ENDBRANCH   1  24
TORSDOF 6
ENDMDL
MODEL 4
REMARK VINA RESULT:      -7.6      3.465      7.491
REMARK  6 active torsions:
REMARK  status: ('A' for Active; 'I' for Inactive)
REMARK    1  A    between atoms: O1_2  and  C2_3 
REMARK    2  A    between atoms: C2_3  and  C3_4 
REMARK    3  A    between atoms: C3_4  and  O2_5 
REMARK    4  A    between atoms: O2_5  and  C4_6 
REMARK    5  A    between atoms: C8_12  and  N3_13 
REMARK    6  A    between atoms: N3_13  and  C9_14 
ROOT
HETATM    1  C4  UNL     1      25.732  -0.052  53.253  1.00  0.00     0.107 A 
HETATM    2  C5  UNL     1      25.771   0.889  52.213  1.00  0.00     0.072 A 
HETATM    3  C6  UNL     1      24.599   1.545  51.821  1.00  0.00     0.077 A 
HETATM    4  N1  UNL     1      24.591   2.458  50.812  1.00  0.00    -0.241 NA
HETATM    5  C7  UNL     1      23.446   3.066  50.455  1.00  0.00     0.236 A 
HETATM    6  N2  UNL     1      22.257   2.802  51.071  1.00  0.00    -0.223 NA
HETATM    7  C8  UNL     1      22.203   1.914  52.069  1.00  0.00     0.144 A 
HETATM    8  C15 UNL     1      23.394   1.278  52.446  1.00  0.00     0.075 A 
HETATM    9  C16 UNL     1      23.403   0.349  53.460  1.00  0.00     0.121 A 
HETATM   10  C17 UNL     1      24.522  -0.329  53.891  1.00  0.00     0.136 A 
HETATM   11  O3  UNL     1      24.495  -1.269  54.928  1.00  0.00    -0.344 OA
HETATM   12  C18 UNL     1      23.304  -1.388  55.682  1.00  0.00     0.202 C 
HETATM   13  C19 UNL     1      22.141  -1.260  54.720  1.00  0.00     0.202 C 
HETATM   14  O4  UNL     1      22.224   0.037  54.128  1.00  0.00    -0.345 OA
ENDROOT
BRANCH   7  15
HETATM   15  N3  UNL     1      21.032   1.523  52.805  1.00  0.00    -0.340 N 
HETATM   16  H10 UNL     1      20.891   1.605  53.853  1.00  0.00     0.167 HD
BRANCH  15  17
HETATM   17  C9  UNL     1      19.910   0.961  52.097  1.00  0.00     0.033 A 
HETATM   18  C10 UNL     1      19.117  -0.085  52.583  1.00  0.00     0.032 A 
HETATM   19  C11 UNL     1      18.072  -0.590  51.858  1.00  0.00     0.044 A 
HETATM   20  C12 UNL     1      17.799  -0.055  50.627  1.00  0.00     0.116 A 
HETATM   21  F1  UNL     1      16.765  -0.534  49.867  1.00  0.00    -0.206 F 
HETATM   22  C13 UNL     1      18.544   0.983  50.083  1.00  0.00     0.044 A 
HETATM   23  C14 UNL     1      19.598   1.483  50.832  1.00  0.00     0.032 A 
ENDBRANCH  15  17
ENDBRANCH   7  15
BRANCH   1  24
HETATM   24  O2  UNL     1      26.851  -0.722  53.673  1.00  0.00    -0.346 OA
BRANCH  24  25
HETATM   25  C3  UNL     1      28.169  -0.328  53.605  1.00  0.00     0.201 C 
BRANCH  25  26
HETATM   26  C2  UNL     1      28.669   0.232  54.903  1.00  0.00     0.193 C 
BRANCH  26  27
HETATM   27  O1  UNL     1      29.045   1.526  54.952  1.00  0.00    -0.394 OA
HETATM   28  C1  UNL     1      28.796   2.268  53.832  1.00  0.00     0.201 C 
ENDBRANCH  26  27
ENDBRANCH  25  26
ENDBRANCH  24  25
ENDBRANCH   1  24
TORSDOF 6
ENDMDL
MODEL 5
REMARK VINA RESULT:      -7.4      3.800      8.039
REMARK  6 active torsions:
REMARK  status: ('A' for Active; 'I' for Inactive)
REMARK    1  A    between atoms: O1_2  and  C2_3 
REMARK    2  A    between atoms: C2_3  and  C3_4 
REMARK    3  A    between atoms: C3_4  and  O2_5 
REMARK    4  A    between atoms: O2_5  and  C4_6 
REMARK    5  A    between atoms: C8_12  and  N3_13 
REMARK    6  A    between atoms: N3_13  and  C9_14 
ROOT
HETATM    1  C4  UNL     1      26.382  -0.147  52.811  1.00  0.00     0.107 A 
HETATM    2  C5  UNL     1      25.529  -0.862  53.664  1.00  0.00     0.072 A 
HETATM    3  C6  UNL     1      24.190  -0.478  53.793  1.00  0.00     0.077 A 
HETATM    4  N1  UNL     1      23.330  -1.139  54.615  1.00  0.00    -0.241 NA
HETATM    5  C7  UNL     1      22.050  -0.740  54.722  1.00  0.00     0.236 A 
HETATM    6  N2  UNL     1      21.558   0.327  54.027  1.00  0.00    -0.223 NA
HETATM    7  C8  UNL     1      22.356   1.015  53.205  1.00  0.00     0.144 A 
HETATM    8  C15 UNL     1      23.691   0.603  53.089  1.00  0.00     0.075 A 
HETATM    9  C16 UNL     1      24.563   1.274  52.264  1.00  0.00     0.121 A 
HETATM   10  C17 UNL     1      25.891   0.946  52.095  1.00  0.00     0.136 A 
HETATM   11  O3  UNL     1      26.751   1.651  51.246  1.00  0.00    -0.344 OA
HETATM   12  C18 UNL     1      26.185   2.626  50.391  1.00  0.00     0.202 C 
HETATM   13  C19 UNL     1      25.104   3.343  51.172  1.00  0.00     0.202 C 
HETATM   14  O4  UNL     1      24.123   2.369  51.529  1.00  0.00    -0.345 OA
ENDROOT
BRANCH   7  15
HETATM   15  N3  UNL     1      21.991   2.161  52.418  1.00  0.00    -0.340 N 
HETATM   16  H10 UNL     1      22.543   3.061  52.322  1.00  0.00     0.167 HD
BRANCH  15  17
HETATM   17  C9  UNL     1      20.764   2.134  51.661  1.00  0.00     0.033 A 
HETATM   18  C10 UNL     1      19.629   2.890  51.975  1.00  0.00     0.032 A 
HETATM   19  C11 UNL     1      18.485   2.810  51.230  1.00  0.00     0.044 A 
HETATM   20  C12 UNL     1      18.454   1.969  50.150  1.00  0.00     0.116 A 
HETATM   21  F1  UNL     1      17.327   1.856  49.379  1.00  0.00    -0.206 F 
HETATM   22  C13 UNL     1      19.543   1.189  49.780  1.00  0.00     0.044 A 
HETATM   23  C14 UNL     1      20.693   1.283  50.547  1.00  0.00     0.032 A 
ENDBRANCH  15  17
ENDBRANCH   7  15
BRANCH   1  24
HETATM   24  O2  UNL     1      27.702  -0.481  52.651  1.00  0.00    -0.346 OA
BRANCH  24  25
HETATM   25  C3  UNL     1      28.617  -0.866  53.606  1.00  0.00     0.201 C 
BRANCH  25  26
HETATM   26  C2  UNL     1      29.360   0.298  54.191  1.00  0.00     0.193 C 
BRANCH  26  27
HETATM   27  O1  UNL     1      28.668   1.397  54.552  1.00  0.00    -0.394 OA
HETATM   28  C1  UNL     1      28.858   2.509  53.779  1.00  0.00     0.201 C 
ENDBRANCH  26  27
ENDBRANCH  25  26
ENDBRANCH  24  25
ENDBRANCH   1  24
TORSDOF 6
ENDMDL
MODEL 6
REMARK VINA RESULT:      -7.0      2.229      2.952
REMARK  6 active torsions:
REMARK  status: ('A' for Active; 'I' for Inactive)
REMARK    1  A    between atoms: O1_2  and  C2_3 
REMARK    2  A    between atoms: C2_3  and  C3_4 
REMARK    3  A    between atoms: C3_4  and  O2_5 
REMARK    4  A    between atoms: O2_5  and  C4_6 
REMARK    5  A    between atoms: C8_12  and  N3_13 
REMARK    6  A    between atoms: N3_13  and  C9_14 
ROOT
HETATM    1  C4  UNL     1      21.894   2.944  50.156  1.00  0.00     0.107 A 
HETATM    2  C5  UNL     1      23.019   3.556  49.584  1.00  0.00     0.072 A 
HETATM    3  C6  UNL     1      24.299   3.228  50.042  1.00  0.00     0.077 A 
HETATM    4  N1  UNL     1      25.417   3.803  49.521  1.00  0.00    -0.241 NA
HETATM    5  C7  UNL     1      26.634   3.471  49.988  1.00  0.00     0.236 A 
HETATM    6  N2  UNL     1      26.806   2.561  50.990  1.00  0.00    -0.223 NA
HETATM    7  C8  UNL     1      25.745   1.963  51.542  1.00  0.00     0.144 A 
HETATM    8  C15 UNL     1      24.475   2.305  51.058  1.00  0.00     0.075 A 
HETATM    9  C16 UNL     1      23.344   1.730  51.589  1.00  0.00     0.121 A 
HETATM   10  C17 UNL     1      22.058   2.011  51.181  1.00  0.00     0.136 A 
HETATM   11  O3  UNL     1      20.928   1.407  51.745  1.00  0.00    -0.344 OA
HETATM   12  C18 UNL     1      21.130   0.331  52.640  1.00  0.00     0.202 C 
HETATM   13  C19 UNL     1      22.336   0.668  53.492  1.00  0.00     0.202 C 
HETATM   14  O4  UNL     1      23.453   0.795  52.612  1.00  0.00    -0.345 OA
ENDROOT
BRANCH   7  15
HETATM   15  N3  UNL     1      25.763   0.997  52.606  1.00  0.00    -0.340 N 
HETATM   16  H10 UNL     1      24.922   0.624  53.132  1.00  0.00     0.167 HD
BRANCH  15  17
HETATM   17  C9  UNL     1      27.024   0.447  53.036  1.00  0.00     0.033 A 
HETATM   18  C10 UNL     1      27.995   1.164  53.746  1.00  0.00     0.032 A 
HETATM   19  C11 UNL     1      29.182   0.593  54.113  1.00  0.00     0.044 A 
HETATM   20  C12 UNL     1      29.424  -0.712  53.777  1.00  0.00     0.116 A 
HETATM   21  F1  UNL     1      30.601  -1.321  54.122  1.00  0.00    -0.206 F 
HETATM   22  C13 UNL     1      28.506  -1.483  53.073  1.00  0.00     0.044 A 
HETATM   23  C14 UNL     1      27.308  -0.889  52.710  1.00  0.00     0.032 A 
ENDBRANCH  15  17
ENDBRANCH   7  15
BRANCH   1  24
HETATM   24  O2  UNL     1      20.618   3.232  49.745  1.00  0.00    -0.346 OA
BRANCH  24  25
HETATM   25  C3  UNL     1      20.162   4.330  49.050  1.00  0.00     0.201 C 
BRANCH  25  26
HETATM   26  C2  UNL     1      19.907   5.508  49.941  1.00  0.00     0.193 C 
BRANCH  26  27
HETATM   27  O1  UNL     1      19.319   6.604  49.420  1.00  0.00    -0.394 OA
HETATM   28  C1  UNL     1      18.902   6.503  48.122  1.00  0.00     0.201 C 
ENDBRANCH  26  27
ENDBRANCH  25  26
ENDBRANCH  24  25
ENDBRANCH   1  24
TORSDOF 6
ENDMDL
MODEL 7
REMARK VINA RESULT:      -6.9      4.287      7.372
REMARK  6 active torsions:
REMARK  status: ('A' for Active; 'I' for Inactive)
REMARK    1  A    between atoms: O1_2  and  C2_3 
REMARK    2  A    between atoms: C2_3  and  C3_4 
REMARK    3  A    between atoms: C3_4  and  O2_5 
REMARK    4  A    between atoms: O2_5  and  C4_6 
REMARK    5  A    between atoms: C8_12  and  N3_13 
REMARK    6  A    between atoms: N3_13  and  C9_14 
ROOT
HETATM    1  C4  UNL     1      25.664   4.604  49.582  1.00  0.00     0.107 A 
HETATM    2  C5  UNL     1      26.477   3.519  49.943  1.00  0.00     0.072 A 
HETATM    3  C6  UNL     1      26.018   2.584  50.877  1.00  0.00     0.077 A 
HETATM    4  N1  UNL     1      26.776   1.522  51.261  1.00  0.00    -0.241 NA
HETATM    5  C7  UNL     1      26.308   0.644  52.167  1.00  0.00     0.236 A 
HETATM    6  N2  UNL     1      25.074   0.772  52.736  1.00  0.00    -0.223 NA
HETATM    7  C8  UNL     1      24.284   1.796  52.397  1.00  0.00     0.144 A 
HETATM    8  C15 UNL     1      24.766   2.713  51.453  1.00  0.00     0.075 A 
HETATM    9  C16 UNL     1      24.004   3.791  51.069  1.00  0.00     0.121 A 
HETATM   10  C17 UNL     1      24.399   4.744  50.156  1.00  0.00     0.136 A 
HETATM   11  O3  UNL     1      23.597   5.830  49.788  1.00  0.00    -0.344 OA
HETATM   12  C18 UNL     1      22.255   5.842  50.235  1.00  0.00     0.202 C 
HETATM   13  C19 UNL     1      22.243   5.315  51.654  1.00  0.00     0.202 C 
HETATM   14  O4  UNL     1      22.737   3.977  51.612  1.00  0.00    -0.345 OA
ENDROOT
BRANCH   7  15
HETATM   15  N3  UNL     1      22.971   2.071  52.913  1.00  0.00    -0.340 N 
HETATM   16  H10 UNL     1      22.551   3.028  53.090  1.00  0.00     0.167 HD
BRANCH  15  17
HETATM   17  C9  UNL     1      22.096   0.971  53.235  1.00  0.00     0.033 A 
HETATM   18  C10 UNL     1      22.388  -0.014  54.185  1.00  0.00     0.032 A 
HETATM   19  C11 UNL     1      21.525  -1.046  54.437  1.00  0.00     0.044 A 
HETATM   20  C12 UNL     1      20.348  -1.112  53.740  1.00  0.00     0.116 A 
HETATM   21  F1  UNL     1      19.459  -2.130  53.959  1.00  0.00    -0.206 F 
HETATM   22  C13 UNL     1      19.995  -0.170  52.783  1.00  0.00     0.044 A 
HETATM   23  C14 UNL     1      20.880   0.869  52.541  1.00  0.00     0.032 A 
ENDBRANCH  15  17
ENDBRANCH   7  15
BRANCH   1  24
HETATM   24  O2  UNL     1      26.068   5.548  48.673  1.00  0.00    -0.346 OA
BRANCH  24  25
HETATM   25  C3  UNL     1      26.993   6.555  48.830  1.00  0.00     0.201 C 
BRANCH  25  26
HETATM   26  C2  UNL     1      26.420   7.761  49.513  1.00  0.00     0.193 C 
BRANCH  26  27
HETATM   27  O1  UNL     1      27.257   8.618  50.131  1.00  0.00    -0.394 OA
HETATM   28  C1  UNL     1      28.315   9.067  49.390  1.00  0.00     0.201 C 
ENDBRANCH  26  27
ENDBRANCH  25  26
ENDBRANCH  24  25
ENDBRANCH   1  24
TORSDOF 6
ENDMDL
MODEL 8
REMARK VINA RESULT:      -6.9      2.197      3.802
REMARK  6 active torsions:
REMARK  status: ('A' for Active; 'I' for Inactive)
REMARK    1  A    between atoms: O1_2  and  C2_3 
REMARK    2  A    between atoms: C2_3  and  C3_4 
REMARK    3  A    between atoms: C3_4  and  O2_5 
REMARK    4  A    between atoms: O2_5  and  C4_6 
REMARK    5  A    between atoms: C8_12  and  N3_13 
REMARK    6  A    between atoms: N3_13  and  C9_14 
ROOT
HETATM    1  C4  UNL     1      19.100   0.423  51.369  1.00  0.00     0.107 A 
HETATM    2  C5  UNL     1      19.310  -0.291  52.558  1.00  0.00     0.072 A 
HETATM    3  C6  UNL     1      20.596  -0.380  53.100  1.00  0.00     0.077 A 
HETATM    4  N1  UNL     1      20.846  -1.068  54.247  1.00  0.00    -0.241 NA
HETATM    5  C7  UNL     1      22.096  -1.141  54.738  1.00  0.00     0.236 A 
HETATM    6  N2  UNL     1      23.157  -0.542  54.123  1.00  0.00    -0.223 NA
HETATM    7  C8  UNL     1      22.973   0.148  52.993  1.00  0.00     0.144 A 
HETATM    8  C15 UNL     1      21.672   0.228  52.477  1.00  0.00     0.075 A 
HETATM    9  C16 UNL     1      21.420   0.917  51.314  1.00  0.00     0.121 A 
HETATM   10  C17 UNL     1      20.177   1.041  50.731  1.00  0.00     0.136 A 
HETATM   11  O3  UNL     1      19.955   1.750  49.546  1.00  0.00    -0.344 OA
HETATM   12  C18 UNL     1      21.021   2.523  49.029  1.00  0.00     0.202 C 
HETATM   13  C19 UNL     1      22.298   1.735  49.234  1.00  0.00     0.202 C 
HETATM   14  O4  UNL     1      22.458   1.550  50.641  1.00  0.00    -0.345 OA
ENDROOT
BRANCH   7  15
HETATM   15  N3  UNL     1      23.985   0.823  52.227  1.00  0.00    -0.340 N 
HETATM   16  H10 UNL     1      23.830   1.415  51.361  1.00  0.00     0.167 HD
BRANCH  15  17
HETATM   17  C9  UNL     1      25.363   0.719  52.636  1.00  0.00     0.033 A 
HETATM   18  C10 UNL     1      26.191  -0.372  52.345  1.00  0.00     0.032 A 
HETATM   19  C11 UNL     1      27.489  -0.423  52.774  1.00  0.00     0.044 A 
HETATM   20  C12 UNL     1      27.987   0.621  53.507  1.00  0.00     0.116 A 
HETATM   21  F1  UNL     1      29.279   0.608  53.960  1.00  0.00    -0.206 F 
HETATM   22  C13 UNL     1      27.223   1.734  53.833  1.00  0.00     0.044 A 
HETATM   23  C14 UNL     1      25.911   1.770  53.389  1.00  0.00     0.032 A 
ENDBRANCH  15  17
ENDBRANCH   7  15
BRANCH   1  24
HETATM   24  O2  UNL     1      17.860   0.539  50.796  1.00  0.00    -0.346 OA
BRANCH  24  25
HETATM   25  C3  UNL     1      16.746   1.194  51.274  1.00  0.00     0.201 C 
BRANCH  25  26
HETATM   26  C2  UNL     1      15.469   0.503  50.901  1.00  0.00     0.193 C 
BRANCH  26  27
HETATM   27  O1  UNL     1      14.860  -0.277  51.817  1.00  0.00    -0.394 OA
HETATM   28  C1  UNL     1      14.776   0.232  53.083  1.00  0.00     0.201 C 
ENDBRANCH  26  27
ENDBRANCH  25  26
ENDBRANCH  24  25
ENDBRANCH   1  24
TORSDOF 6
ENDMDL
MODEL 9
REMARK VINA RESULT:      -6.6      2.647      4.424
REMARK  6 active torsions:
REMARK  status: ('A' for Active; 'I' for Inactive)
REMARK    1  A    between atoms: O1_2  and  C2_3 
REMARK    2  A    between atoms: C2_3  and  C3_4 
REMARK    3  A    between atoms: C3_4  and  O2_5 
REMARK    4  A    between atoms: O2_5  and  C4_6 
REMARK    5  A    between atoms: C8_12  and  N3_13 
REMARK    6  A    between atoms: N3_13  and  C9_14 
ROOT
HETATM    1  C4  UNL     1      18.681   0.910  50.311  1.00  0.00     0.107 A 
HETATM    2  C5  UNL     1      18.613   0.226  51.534  1.00  0.00     0.072 A 
HETATM    3  C6  UNL     1      19.771   0.046  52.298  1.00  0.00     0.077 A 
HETATM    4  N1  UNL     1      19.752  -0.617  53.485  1.00  0.00    -0.241 NA
HETATM    5  C7  UNL     1      20.884  -0.780  54.192  1.00  0.00     0.236 A 
HETATM    6  N2  UNL     1      22.087  -0.300  53.762  1.00  0.00    -0.223 NA
HETATM    7  C8  UNL     1      22.168   0.360  52.602  1.00  0.00     0.144 A 
HETATM    8  C15 UNL     1      20.991   0.533  51.863  1.00  0.00     0.075 A 
HETATM    9  C16 UNL     1      21.011   1.197  50.658  1.00  0.00     0.121 A 
HETATM   10  C17 UNL     1      19.906   1.406  49.862  1.00  0.00     0.136 A 
HETATM   11  O3  UNL     1      19.962   2.087  48.640  1.00  0.00    -0.344 OA
HETATM   12  C18 UNL     1      21.169   2.744  48.303  1.00  0.00     0.202 C 
HETATM   13  C19 UNL     1      22.310   1.855  48.749  1.00  0.00     0.202 C 
HETATM   14  O4  UNL     1      22.205   1.710  50.165  1.00  0.00    -0.345 OA
ENDROOT
BRANCH   7  15
HETATM   15  N3  UNL     1      23.357   0.913  52.014  1.00  0.00    -0.340 N 
HETATM   16  H10 UNL     1      23.423   1.418  51.084  1.00  0.00     0.167 HD
BRANCH  15  17
HETATM   17  C9  UNL     1      24.610   0.800  52.718  1.00  0.00     0.033 A 
HETATM   18  C10 UNL     1      25.308  -0.400  52.895  1.00  0.00     0.032 A 
HETATM   19  C11 UNL     1      26.486  -0.449  53.588  1.00  0.00     0.044 A 
HETATM   20  C12 UNL     1      26.992   0.707  54.120  1.00  0.00     0.116 A 
HETATM   21  F1  UNL     1      28.167   0.701  54.824  1.00  0.00    -0.206 F 
HETATM   22  C13 UNL     1      26.353   1.933  53.983  1.00  0.00     0.044 A 
HETATM   23  C14 UNL     1      25.161   1.964  53.277  1.00  0.00     0.032 A 
ENDBRANCH  15  17
ENDBRANCH   7  15
BRANCH   1  24
HETATM   24  O2  UNL     1      17.576   1.112  49.525  1.00  0.00    -0.346 OA
BRANCH  24  25
HETATM   25  C3  UNL     1      16.383   1.718  49.853  1.00  0.00     0.201 C 
BRANCH  25  26
HETATM   26  C2  UNL     1      16.557   3.155  50.243  1.00  0.00     0.193 C 
BRANCH  26  27
HETATM   27  O1  UNL     1      17.223   3.980  49.410  1.00  0.00    -0.394 OA
HETATM   28  C1  UNL     1      18.158   4.793  49.989  1.00  0.00     0.201 C 
ENDBRANCH  26  27
ENDBRANCH  25  26
ENDBRANCH  24  25
ENDBRANCH   1  24
TORSDOF 6
ENDMDL
