MODEL 1
REMARK VINA RESULT:      -7.8      0.000      0.000
REMARK  3 active torsions:
REMARK  status: ('A' for Active; 'I' for Inactive)
REMARK    1  A    between atoms: C6_6  and  C7_7 
REMARK    2  A    between atoms: C12_14  and  O2_15 
REMARK    3  A    between atoms: C13_16  and  O3_17 
ROOT
HETATM    1  C1  UNL     1      30.610  -0.811  53.830  1.00  0.00     0.018 C 
HETATM    2  C2  UNL     1      29.421  -0.673  53.742  1.00  0.00    -0.077 C 
HETATM    3  C3  UNL     1      28.006  -0.521  53.638  1.00  0.00     0.030 A 
HETATM    4  C4  UNL     1      27.230  -1.079  52.736  1.00  0.00    -0.002 A 
HETATM    5  C5  UNL     1      25.772  -1.020  52.500  1.00  0.00     0.060 A 
HETATM    6  C6  UNL     1      25.093  -0.177  53.483  1.00  0.00     0.145 A 
HETATM    7  N2  UNL     1      25.925   0.434  54.465  1.00  0.00    -0.290 NA
HETATM    8  C17 UNL     1      27.177   0.278  54.523  1.00  0.00     0.131 A 
ENDROOT
BRANCH   6   9
HETATM    9  C7  UNL     1      24.203   0.839  52.826  1.00  0.00    -0.013 C 
HETATM   10  C8  UNL     1      24.870   1.640  52.007  1.00  0.00    -0.015 C 
HETATM   11  C9  UNL     1      24.767   2.914  52.359  1.00  0.00     0.034 C 
HETATM   12  C10 UNL     1      23.399   3.448  52.557  1.00  0.00     0.147 C 
HETATM   13  N1  UNL     1      23.251   3.464  51.297  1.00  0.00    -0.146 NA
HETATM   14  O1  UNL     1      22.130   3.873  50.698  1.00  0.00    -0.250 OA
HETATM   15  C11 UNL     1      20.861   3.612  51.218  1.00  0.00     0.271 C 
HETATM   16  C12 UNL     1      20.921   2.472  52.175  1.00  0.00     0.103 C 
HETATM   17  C13 UNL     1      21.376   1.453  52.938  1.00  0.00     0.106 C 
HETATM   18  C15 UNL     1      22.799   1.199  52.836  1.00  0.00    -0.013 C 
HETATM   19  C16 UNL     1      22.729   0.200  53.699  1.00  0.00     0.047 C 
BRANCH  16  20
HETATM   20  O2  UNL     1      19.521   2.511  52.461  1.00  0.00    -0.360 OA
HETATM   21  H10 UNL     1      19.090   1.583  52.507  1.00  0.00     0.217 HD
ENDBRANCH  16  20
BRANCH  17  22
HETATM   22  O3  UNL     1      20.437   0.758  53.740  1.00  0.00    -0.353 OA
HETATM   23  C14 UNL     1      19.763  -0.378  53.265  1.00  0.00     0.210 C 
ENDBRANCH  17  22
ENDBRANCH   6   9
TORSDOF 3
ENDMDL
MODEL 2
REMARK VINA RESULT:      -7.8      2.841      6.806
REMARK  3 active torsions:
REMARK  status: ('A' for Active; 'I' for Inactive)
REMARK    1  A    between atoms: C6_6  and  C7_7 
REMARK    2  A    between atoms: C12_14  and  O2_15 
REMARK    3  A    between atoms: C13_16  and  O3_17 
ROOT
HETATM    1  C1  UNL     1      17.185  -1.589  53.022  1.00  0.00     0.018 C 
HETATM    2  C2  UNL     1      18.257  -1.056  52.958  1.00  0.00    -0.077 C 
HETATM    3  C3  UNL     1      19.529  -0.413  52.875  1.00  0.00     0.030 A 
HETATM    4  C4  UNL     1      20.239  -0.237  51.783  1.00  0.00    -0.002 A 
HETATM    5  C5  UNL     1      21.551   0.398  51.537  1.00  0.00     0.060 A 
HETATM    6  C6  UNL     1      22.140   0.930  52.766  1.00  0.00     0.145 A 
HETATM    7  N2  UNL     1      21.378   0.744  53.956  1.00  0.00    -0.290 NA
HETATM    8  C17 UNL     1      20.256   0.165  53.991  1.00  0.00     0.131 A 
ENDROOT
BRANCH   6   9
HETATM    9  C7  UNL     1      23.554   0.461  52.955  1.00  0.00    -0.013 C 
HETATM   10  C8  UNL     1      23.617  -0.768  53.447  1.00  0.00    -0.015 C 
HETATM   11  C9  UNL     1      24.265  -0.811  54.603  1.00  0.00     0.034 C 
HETATM   12  C10 UNL     1      25.615  -0.199  54.639  1.00  0.00     0.147 C 
HETATM   13  N1  UNL     1      26.058  -1.202  54.001  1.00  0.00    -0.146 NA
HETATM   14  O1  UNL     1      27.338  -1.336  53.646  1.00  0.00    -0.250 OA
HETATM   15  C11 UNL     1      28.120  -0.256  53.232  1.00  0.00     0.271 C 
HETATM   16  C12 UNL     1      27.250   0.870  52.790  1.00  0.00     0.103 C 
HETATM   17  C13 UNL     1      26.166   1.621  52.495  1.00  0.00     0.106 C 
HETATM   18  C15 UNL     1      24.891   0.982  52.749  1.00  0.00    -0.013 C 
HETATM   19  C16 UNL     1      24.224   2.044  52.330  1.00  0.00     0.047 C 
BRANCH  16  20
HETATM   20  O2  UNL     1      28.352   1.720  52.459  1.00  0.00    -0.360 OA
HETATM   21  H10 UNL     1      29.253   1.230  52.448  1.00  0.00     0.217 HD
ENDBRANCH  16  20
BRANCH  17  22
HETATM   22  O3  UNL     1      26.385   2.924  51.982  1.00  0.00    -0.353 OA
HETATM   23  C14 UNL     1      26.551   3.155  50.608  1.00  0.00     0.210 C 
ENDBRANCH  17  22
ENDBRANCH   6   9
TORSDOF 3
ENDMDL
MODEL 3
REMARK VINA RESULT:      -7.5      2.656      5.365
REMARK  3 active torsions:
REMARK  status: ('A' for Active; 'I' for Inactive)
REMARK    1  A    between atoms: C6_6  and  C7_7 
REMARK    2  A    between atoms: C12_14  and  O2_15 
REMARK    3  A    between atoms: C13_16  and  O3_17 
ROOT
HETATM    1  C1  UNL     1      26.636   6.761  48.496  1.00  0.00     0.018 C 
HETATM    2  C2  UNL     1      26.044   5.904  49.091  1.00  0.00    -0.077 C 
HETATM    3  C3  UNL     1      25.330   4.889  49.797  1.00  0.00     0.030 A 
HETATM    4  C4  UNL     1      24.550   5.072  50.838  1.00  0.00    -0.002 A 
HETATM    5  C5  UNL     1      23.755   4.139  51.665  1.00  0.00     0.060 A 
HETATM    6  C6  UNL     1      23.877   2.758  51.202  1.00  0.00     0.145 A 
HETATM    7  N2  UNL     1      24.722   2.549  50.073  1.00  0.00    -0.290 NA
HETATM    8  C17 UNL     1      25.341   3.474  49.476  1.00  0.00     0.131 A 
ENDROOT
BRANCH   6   9
HETATM    9  C7  UNL     1      24.236   1.824  52.322  1.00  0.00    -0.013 C 
HETATM   10  C8  UNL     1      25.486   1.984  52.732  1.00  0.00    -0.015 C 
HETATM   11  C9  UNL     1      26.199   0.873  52.608  1.00  0.00     0.034 C 
HETATM   12  C10 UNL     1      25.639  -0.356  53.217  1.00  0.00     0.147 C 
HETATM   13  N1  UNL     1      25.964   0.093  54.359  1.00  0.00    -0.146 NA
HETATM   14  O1  UNL     1      25.731  -0.566  55.497  1.00  0.00    -0.250 OA
HETATM   15  C11 UNL     1      24.573  -1.316  55.708  1.00  0.00     0.271 C 
HETATM   16  C12 UNL     1      23.503  -0.888  54.764  1.00  0.00     0.103 C 
HETATM   17  C13 UNL     1      22.832  -0.242  53.786  1.00  0.00     0.106 C 
HETATM   18  C15 UNL     1      23.592   0.779  53.093  1.00  0.00    -0.013 C 
HETATM   19  C16 UNL     1      22.568   1.075  52.310  1.00  0.00     0.047 C 
BRANCH  16  20
HETATM   20  O2  UNL     1      22.547  -1.824  55.271  1.00  0.00    -0.360 OA
HETATM   21  H10 UNL     1      22.563  -1.907  56.292  1.00  0.00     0.217 HD
ENDBRANCH  16  20
BRANCH  17  22
HETATM   22  O3  UNL     1      21.487  -0.621  53.544  1.00  0.00    -0.353 OA
HETATM   23  C14 UNL     1      20.413   0.059  54.140  1.00  0.00     0.210 C 
ENDBRANCH  17  22
ENDBRANCH   6   9
TORSDOF 3
ENDMDL
MODEL 4
REMARK VINA RESULT:      -7.5      3.060      6.569
REMARK  3 active torsions:
REMARK  status: ('A' for Active; 'I' for Inactive)
REMARK    1  A    between atoms: C6_6  and  C7_7 
REMARK    2  A    between atoms: C12_14  and  O2_15 
REMARK    3  A    between atoms: C13_16  and  O3_17 
ROOT
HETATM    1  C1  UNL     1      19.881   4.377  48.095  1.00  0.00     0.018 C 
HETATM    2  C2  UNL     1      20.540   3.844  48.944  1.00  0.00    -0.077 C 
HETATM    3  C3  UNL     1      21.314   3.210  49.961  1.00  0.00     0.030 A 
HETATM    4  C4  UNL     1      21.527   3.669  51.174  1.00  0.00    -0.002 A 
HETATM    5  C5  UNL     1      22.293   3.139  52.322  1.00  0.00     0.060 A 
HETATM    6  C6  UNL     1      22.912   1.850  52.017  1.00  0.00     0.145 A 
HETATM    7  N2  UNL     1      22.688   1.343  50.705  1.00  0.00    -0.290 NA
HETATM    8  C17 UNL     1      21.998   1.936  49.828  1.00  0.00     0.131 A 
ENDROOT
BRANCH   6   9
HETATM    9  C7  UNL     1      24.376   1.841  52.354  1.00  0.00    -0.013 C 
HETATM   10  C8  UNL     1      25.031   2.842  51.784  1.00  0.00    -0.015 C 
HETATM   11  C9  UNL     1      26.001   2.416  50.987  1.00  0.00     0.034 C 
HETATM   12  C10 UNL     1      26.975   1.461  51.567  1.00  0.00     0.147 C 
HETATM   13  N1  UNL     1      27.501   2.424  52.203  1.00  0.00    -0.146 NA
HETATM   14  O1  UNL     1      28.546   2.276  53.021  1.00  0.00    -0.250 OA
HETATM   15  C11 UNL     1      28.708   1.156  53.840  1.00  0.00     0.271 C 
HETATM   16  C12 UNL     1      27.402   0.464  54.029  1.00  0.00     0.103 C 
HETATM   17  C13 UNL     1      26.091   0.144  53.954  1.00  0.00     0.106 C 
HETATM   18  C15 UNL     1      25.290   1.033  53.138  1.00  0.00    -0.013 C 
HETATM   19  C16 UNL     1      24.191   0.338  53.380  1.00  0.00     0.047 C 
BRANCH  16  20
HETATM   20  O2  UNL     1      27.952  -0.552  54.871  1.00  0.00    -0.360 OA
HETATM   21  H10 UNL     1      28.946  -0.413  55.078  1.00  0.00     0.217 HD
ENDBRANCH  16  20
BRANCH  17  22
HETATM   22  O3  UNL     1      25.649  -1.000  54.664  1.00  0.00    -0.353 OA
HETATM   23  C14 UNL     1      25.159  -0.907  55.976  1.00  0.00     0.210 C 
ENDBRANCH  17  22
ENDBRANCH   6   9
TORSDOF 3
ENDMDL
MODEL 5
REMARK VINA RESULT:      -7.3      1.536      3.024
REMARK  3 active torsions:
REMARK  status: ('A' for Active; 'I' for Inactive)
REMARK    1  A    between atoms: C6_6  and  C7_7 
REMARK    2  A    between atoms: C12_14  and  O2_15 
REMARK    3  A    between atoms: C13_16  and  O3_17 
ROOT
HETATM    1  C1  UNL     1      30.146  -1.241  53.816  1.00  0.00     0.018 C 
HETATM    2  C2  UNL     1      29.134  -0.630  53.610  1.00  0.00    -0.077 C 
HETATM    3  C3  UNL     1      27.935   0.106  53.367  1.00  0.00     0.030 A 
HETATM    4  C4  UNL     1      27.341   0.920  54.210  1.00  0.00    -0.002 A 
HETATM    5  C5  UNL     1      26.116   1.741  54.109  1.00  0.00     0.060 A 
HETATM    6  C6  UNL     1      25.472   1.603  52.804  1.00  0.00     0.145 A 
HETATM    7  N2  UNL     1      26.108   0.722  51.882  1.00  0.00    -0.290 NA
HETATM    8  C17 UNL     1      27.168   0.084  52.135  1.00  0.00     0.131 A 
ENDROOT
BRANCH   6   9
HETATM    9  C7  UNL     1      24.011   1.281  52.934  1.00  0.00    -0.013 C 
HETATM   10  C8  UNL     1      23.792   0.236  53.719  1.00  0.00    -0.015 C 
HETATM   11  C9  UNL     1      23.161  -0.743  53.085  1.00  0.00     0.034 C 
HETATM   12  C10 UNL     1      21.905  -0.388  52.383  1.00  0.00     0.147 C 
HETATM   13  N1  UNL     1      21.324  -0.326  53.509  1.00  0.00    -0.146 NA
HETATM   14  O1  UNL     1      20.032  -0.018  53.650  1.00  0.00    -0.250 OA
HETATM   15  C11 UNL     1      19.394   0.931  52.849  1.00  0.00     0.271 C 
HETATM   16  C12 UNL     1      20.399   1.835  52.223  1.00  0.00     0.103 C 
HETATM   17  C13 UNL     1      21.568   2.411  51.867  1.00  0.00     0.106 C 
HETATM   18  C15 UNL     1      22.751   1.797  52.435  1.00  0.00    -0.013 C 
HETATM   19  C16 UNL     1      23.547   2.661  51.828  1.00  0.00     0.047 C 
BRANCH  16  20
HETATM   20  O2  UNL     1      19.414   2.614  51.537  1.00  0.00    -0.360 OA
HETATM   21  H10 UNL     1      19.806   3.426  51.050  1.00  0.00     0.217 HD
ENDBRANCH  16  20
BRANCH  17  22
HETATM   22  O3  UNL     1      21.516   3.528  50.995  1.00  0.00    -0.353 OA
HETATM   23  C14 UNL     1      21.542   4.844  51.484  1.00  0.00     0.210 C 
ENDBRANCH  17  22
ENDBRANCH   6   9
TORSDOF 3
ENDMDL
MODEL 6
REMARK VINA RESULT:      -7.1      3.638      5.470
REMARK  3 active torsions:
REMARK  status: ('A' for Active; 'I' for Inactive)
REMARK    1  A    between atoms: C6_6  and  C7_7 
REMARK    2  A    between atoms: C12_14  and  O2_15 
REMARK    3  A    between atoms: C13_16  and  O3_17 
ROOT
HETATM    1  C1  UNL     1      28.295   7.792  47.102  1.00  0.00     0.018 C 
HETATM    2  C2  UNL     1      27.735   6.982  47.787  1.00  0.00    -0.077 C 
HETATM    3  C3  UNL     1      27.079   6.017  48.609  1.00  0.00     0.030 A 
HETATM    4  C4  UNL     1      27.369   4.738  48.685  1.00  0.00    -0.002 A 
HETATM    5  C5  UNL     1      26.792   3.629  49.474  1.00  0.00     0.060 A 
HETATM    6  C6  UNL     1      25.695   4.079  50.329  1.00  0.00     0.145 A 
HETATM    7  N2  UNL     1      25.371   5.465  50.253  1.00  0.00    -0.290 NA
HETATM    8  C17 UNL     1      25.973   6.289  49.510  1.00  0.00     0.131 A 
ENDROOT
BRANCH   6   9
HETATM    9  C7  UNL     1      24.468   3.231  50.155  1.00  0.00    -0.013 C 
HETATM   10  C8  UNL     1      23.925   3.368  48.954  1.00  0.00    -0.015 C 
HETATM   11  C9  UNL     1      22.674   3.803  49.018  1.00  0.00     0.034 C 
HETATM   12  C10 UNL     1      21.744   3.048  49.891  1.00  0.00     0.147 C 
HETATM   13  N1  UNL     1      21.707   2.131  49.015  1.00  0.00    -0.146 NA
HETATM   14  O1  UNL     1      20.987   1.015  49.153  1.00  0.00    -0.250 OA
HETATM   15  C11 UNL     1      20.838   0.364  50.380  1.00  0.00     0.271 C 
HETATM   16  C12 UNL     1      21.925   0.772  51.314  1.00  0.00     0.103 C 
HETATM   17  C13 UNL     1      23.019   1.370  51.834  1.00  0.00     0.106 C 
HETATM   18  C15 UNL     1      23.696   2.289  50.943  1.00  0.00    -0.013 C 
HETATM   19  C16 UNL     1      24.611   2.572  51.855  1.00  0.00     0.047 C 
BRANCH  16  20
HETATM   20  O2  UNL     1      21.454  -0.060  52.378  1.00  0.00    -0.360 OA
HETATM   21  H10 UNL     1      20.537  -0.478  52.191  1.00  0.00     0.217 HD
ENDBRANCH  16  20
BRANCH  17  22
HETATM   22  O3  UNL     1      23.379   1.045  53.166  1.00  0.00    -0.353 OA
HETATM   23  C14 UNL     1      24.241  -0.026  53.455  1.00  0.00     0.210 C 
ENDBRANCH  17  22
ENDBRANCH   6   9
TORSDOF 3
ENDMDL
MODEL 7
REMARK VINA RESULT:      -7.0      2.911      6.993
REMARK  3 active torsions:
REMARK  status: ('A' for Active; 'I' for Inactive)
REMARK    1  A    between atoms: C6_6  and  C7_7 
REMARK    2  A    between atoms: C12_14  and  O2_15 
REMARK    3  A    between atoms: C13_16  and  O3_17 
ROOT
HETATM    1  C1  UNL     1      18.055   3.622  47.307  1.00  0.00     0.018 C 
HETATM    2  C2  UNL     1      18.924   3.202  48.020  1.00  0.00    -0.077 C 
HETATM    3  C3  UNL     1      19.965   2.704  48.860  1.00  0.00     0.030 A 
HETATM    4  C4  UNL     1      20.714   1.650  48.625  1.00  0.00    -0.002 A 
HETATM    5  C5  UNL     1      21.813   1.018  49.384  1.00  0.00     0.060 A 
HETATM    6  C6  UNL     1      22.103   1.734  50.625  1.00  0.00     0.145 A 
HETATM    7  N2  UNL     1      21.297   2.878  50.890  1.00  0.00    -0.290 NA
HETATM    8  C17 UNL     1      20.380   3.287  50.123  1.00  0.00     0.131 A 
ENDROOT
BRANCH   6   9
HETATM    9  C7  UNL     1      22.130   0.810  51.809  1.00  0.00    -0.013 C 
HETATM   10  C8  UNL     1      20.945   0.269  52.054  1.00  0.00    -0.015 C 
HETATM   11  C9  UNL     1      20.503   0.562  53.269  1.00  0.00     0.034 C 
HETATM   12  C10 UNL     1      21.415   0.277  54.402  1.00  0.00     0.147 C 
HETATM   13  N1  UNL     1      21.151  -0.957  54.269  1.00  0.00    -0.146 NA
HETATM   14  O1  UNL     1      21.685  -1.906  55.042  1.00  0.00    -0.250 OA
HETATM   15  C11 UNL     1      23.005  -1.854  55.494  1.00  0.00     0.271 C 
HETATM   16  C12 UNL     1      23.806  -0.933  54.640  1.00  0.00     0.103 C 
HETATM   17  C13 UNL     1      24.166  -0.059  53.674  1.00  0.00     0.106 C 
HETATM   18  C15 UNL     1      23.101   0.335  52.775  1.00  0.00    -0.013 C 
HETATM   19  C16 UNL     1      23.910   1.122  52.087  1.00  0.00     0.047 C 
BRANCH  16  20
HETATM   20  O2  UNL     1      25.014  -1.146  55.373  1.00  0.00    -0.360 OA
HETATM   21  H10 UNL     1      25.587  -1.910  54.999  1.00  0.00     0.217 HD
ENDBRANCH  16  20
BRANCH  17  22
HETATM   22  O3  UNL     1      25.517   0.372  53.644  1.00  0.00    -0.353 OA
HETATM   23  C14 UNL     1      26.494  -0.324  52.915  1.00  0.00     0.210 C 
ENDBRANCH  17  22
ENDBRANCH   6   9
TORSDOF 3
ENDMDL
MODEL 8
REMARK VINA RESULT:      -6.7      3.474      6.711
REMARK  3 active torsions:
REMARK  status: ('A' for Active; 'I' for Inactive)
REMARK    1  A    between atoms: C6_6  and  C7_7 
REMARK    2  A    between atoms: C12_14  and  O2_15 
REMARK    3  A    between atoms: C13_16  and  O3_17 
ROOT
HETATM    1  C1  UNL     1      21.804   5.090  44.941  1.00  0.00     0.018 C 
HETATM    2  C2  UNL     1      22.053   4.755  46.066  1.00  0.00    -0.077 C 
HETATM    3  C3  UNL     1      22.341   4.361  47.407  1.00  0.00     0.030 A 
HETATM    4  C4  UNL     1      22.553   5.166  48.423  1.00  0.00    -0.002 A 
HETATM    5  C5  UNL     1      22.858   4.916  49.848  1.00  0.00     0.060 A 
HETATM    6  C6  UNL     1      22.920   3.487  50.151  1.00  0.00     0.145 A 
HETATM    7  N2  UNL     1      22.693   2.605  49.056  1.00  0.00    -0.290 NA
HETATM    8  C17 UNL     1      22.444   2.992  47.879  1.00  0.00     0.131 A 
ENDROOT
BRANCH   6   9
HETATM    9  C7  UNL     1      24.184   3.126  50.879  1.00  0.00    -0.013 C 
HETATM   10  C8  UNL     1      25.245   3.750  50.388  1.00  0.00    -0.015 C 
HETATM   11  C9  UNL     1      26.167   2.901  49.953  1.00  0.00     0.034 C 
HETATM   12  C10 UNL     1      26.612   1.851  50.899  1.00  0.00     0.147 C 
HETATM   13  N1  UNL     1      27.275   2.732  51.525  1.00  0.00    -0.146 NA
HETATM   14  O1  UNL     1      28.003   2.465  52.613  1.00  0.00    -0.250 OA
HETATM   15  C11 UNL     1      27.595   1.547  53.583  1.00  0.00     0.271 C 
HETATM   16  C12 UNL     1      26.125   1.320  53.491  1.00  0.00     0.103 C 
HETATM   17  C13 UNL     1      24.834   1.385  53.099  1.00  0.00     0.106 C 
HETATM   18  C15 UNL     1      24.578   2.274  51.984  1.00  0.00    -0.013 C 
HETATM   19  C16 UNL     1      23.285   1.995  52.000  1.00  0.00     0.047 C 
BRANCH  16  20
HETATM   20  O2  UNL     1      26.103   0.391  54.579  1.00  0.00    -0.360 OA
HETATM   21  H10 UNL     1      25.158   0.186  54.918  1.00  0.00     0.217 HD
ENDBRANCH  16  20
BRANCH  17  22
HETATM   22  O3  UNL     1      23.889   0.596  53.801  1.00  0.00    -0.353 OA
HETATM   23  C14 UNL     1      23.567  -0.707  53.389  1.00  0.00     0.210 C 
ENDBRANCH  17  22
ENDBRANCH   6   9
TORSDOF 3
ENDMDL
MODEL 9
REMARK VINA RESULT:      -6.7      9.026     10.908
REMARK  3 active torsions:
REMARK  status: ('A' for Active; 'I' for Inactive)
REMARK    1  A    between atoms: C6_6  and  C7_7 
REMARK    2  A    between atoms: C12_14  and  O2_15 
REMARK    3  A    between atoms: C13_16  and  O3_17 
ROOT
HETATM    1  C1  UNL     1      35.320   3.192  45.578  1.00  0.00     0.018 C 
HETATM    2  C2  UNL     1      34.712   4.049  46.159  1.00  0.00    -0.077 C 
HETATM    3  C3  UNL     1      33.999   5.070  46.855  1.00  0.00     0.030 A 
HETATM    4  C4  UNL     1      33.798   5.129  48.152  1.00  0.00    -0.002 A 
HETATM    5  C5  UNL     1      33.092   6.104  49.009  1.00  0.00     0.060 A 
HETATM    6  C6  UNL     1      32.529   7.208  48.233  1.00  0.00     0.145 A 
HETATM    7  N2  UNL     1      32.742   7.154  46.825  1.00  0.00    -0.290 NA
HETATM    8  C17 UNL     1      33.376   6.230  46.243  1.00  0.00     0.131 A 
ENDROOT
BRANCH   6   9
HETATM    9  C7  UNL     1      31.078   7.430  48.549  1.00  0.00    -0.013 C 
HETATM   10  C8  UNL     1      30.372   6.310  48.491  1.00  0.00    -0.015 C 
HETATM   11  C9  UNL     1      29.393   6.382  47.600  1.00  0.00     0.034 C 
HETATM   12  C10 UNL     1      28.470   7.536  47.708  1.00  0.00     0.147 C 
HETATM   13  N1  UNL     1      27.932   6.979  48.712  1.00  0.00    -0.146 NA
HETATM   14  O1  UNL     1      26.918   7.520  49.393  1.00  0.00    -0.250 OA
HETATM   15  C11 UNL     1      26.820   8.892  49.632  1.00  0.00     0.271 C 
HETATM   16  C12 UNL     1      28.154   9.538  49.478  1.00  0.00     0.103 C 
HETATM   17  C13 UNL     1      29.472   9.733  49.253  1.00  0.00     0.106 C 
HETATM   18  C15 UNL     1      30.217   8.541  48.905  1.00  0.00    -0.013 C 
HETATM   19  C16 UNL     1      31.346   9.221  48.800  1.00  0.00     0.047 C 
BRANCH  16  20
HETATM   20  O2  UNL     1      27.665  10.845  49.790  1.00  0.00    -0.360 OA
HETATM   21  H10 UNL     1      28.193  11.308  50.536  1.00  0.00     0.217 HD
ENDBRANCH  16  20
BRANCH  17  22
HETATM   22  O3  UNL     1      29.974  11.053  49.376  1.00  0.00    -0.353 OA
HETATM   23  C14 UNL     1      29.978  11.943  48.290  1.00  0.00     0.210 C 
ENDBRANCH  17  22
ENDBRANCH   6   9
TORSDOF 3
ENDMDL
