MODEL 1
REMARK VINA RESULT:      -8.3      0.000      0.000
REMARK  3 active torsions:
REMARK  status: ('A' for Active; 'I' for Inactive)
REMARK    1  A    between atoms: C9_9  and  C10_10 
REMARK    2  A    between atoms: C11_14  and  C12_15 
REMARK    3  A    between atoms: C12_15  and  C13_16 
ROOT
HETATM    1  C10 UNL     1      21.830  -0.521  53.136  1.00  0.00     0.086 A 
HETATM    2  N1  UNL     1      20.830  -1.178  53.636  1.00  0.00    -0.133 NA
HETATM    3  N2  UNL     1      21.170  -1.681  54.878  1.00  0.00    -0.048 NA
HETATM    4  N3  UNL     1      22.345  -1.375  55.196  1.00  0.00    -0.161 NA
HETATM    5  C11 UNL     1      22.908  -0.601  54.129  1.00  0.00     0.190 A 
ENDROOT
BRANCH   1   6
HETATM    6  C9  UNL     1      21.927   0.176  51.857  1.00  0.00     0.043 C 
HETATM    7  C8  UNL     1      22.423   1.343  51.519  1.00  0.00    -0.029 C 
HETATM    8  C2  UNL     1      22.359   1.759  50.099  1.00  0.00    -0.055 C 
HETATM    9  C7  UNL     1      23.037   2.239  52.514  1.00  0.00     0.008 C 
HETATM   10  C1  UNL     1      21.267   1.093  49.336  1.00  0.00     0.049 C 
HETATM   11  C3  UNL     1      23.129   2.626  49.423  1.00  0.00    -0.019 C 
HETATM   12  C4  UNL     1      24.259   3.384  50.008  1.00  0.00     0.031 C 
HETATM   13  C5  UNL     1      23.911   4.203  51.205  1.00  0.00     0.031 C 
HETATM   14  C6  UNL     1      23.652   3.407  52.437  1.00  0.00    -0.026 C 
ENDBRANCH   1   6
BRANCH   5  15
HETATM   15  C12 UNL     1      24.096  -1.333  53.532  1.00  0.00     0.074 C 
BRANCH  15  16
HETATM   16  C13 UNL     1      25.280  -0.447  53.500  1.00  0.00    -0.056 A 
HETATM   17  C14 UNL     1      25.882  -0.139  54.718  1.00  0.00     0.008 A 
HETATM   18  C15 UNL     1      27.003   0.687  54.799  1.00  0.00     0.019 A 
HETATM   19  C16 UNL     1      27.531   1.211  53.639  1.00  0.00     0.011 A 
HETATM   20 BR1  UNL     1      29.070   2.347  53.728  1.00  0.00    -0.051 Br
HETATM   21  C17 UNL     1      26.937   0.907  52.431  1.00  0.00     0.019 A 
HETATM   22  C18 UNL     1      25.817   0.081  52.347  1.00  0.00     0.008 A 
ENDBRANCH  15  16
ENDBRANCH   5  15
TORSDOF 3
ENDMDL
MODEL 2
REMARK VINA RESULT:      -8.0      3.513      5.752
REMARK  3 active torsions:
REMARK  status: ('A' for Active; 'I' for Inactive)
REMARK    1  A    between atoms: C9_9  and  C10_10 
REMARK    2  A    between atoms: C11_14  and  C12_15 
REMARK    3  A    between atoms: C12_15  and  C13_16 
ROOT
HETATM    1  C10 UNL     1      25.606   1.408  52.280  1.00  0.00     0.086 A 
HETATM    2  N1  UNL     1      26.390   0.673  53.005  1.00  0.00    -0.133 NA
HETATM    3  N2  UNL     1      27.667   1.205  53.007  1.00  0.00    -0.048 NA
HETATM    4  N3  UNL     1      27.734   2.250  52.316  1.00  0.00    -0.161 NA
HETATM    5  C11 UNL     1      26.434   2.507  51.769  1.00  0.00     0.190 A 
ENDROOT
BRANCH   1   6
HETATM    6  C9  UNL     1      24.185   1.234  51.993  1.00  0.00     0.043 C 
HETATM    7  C8  UNL     1      23.241   0.540  52.583  1.00  0.00    -0.029 C 
HETATM    8  C2  UNL     1      21.871   0.582  52.022  1.00  0.00    -0.055 C 
HETATM    9  C7  UNL     1      23.513  -0.272  53.781  1.00  0.00     0.008 C 
HETATM   10  C1  UNL     1      21.835   0.930  50.574  1.00  0.00     0.049 C 
HETATM   11  C3  UNL     1      20.690   0.361  52.621  1.00  0.00    -0.019 C 
HETATM   12  C4  UNL     1      20.523   0.005  54.049  1.00  0.00     0.031 C 
HETATM   13  C5  UNL     1      21.282  -1.202  54.486  1.00  0.00     0.031 C 
HETATM   14  C6  UNL     1      22.754  -0.996  54.587  1.00  0.00    -0.026 C 
ENDBRANCH   1   6
BRANCH   5  15
HETATM   15  C12 UNL     1      26.489   2.440  50.254  1.00  0.00     0.074 C 
BRANCH  15  16
HETATM   16  C13 UNL     1      26.130   3.751  49.669  1.00  0.00    -0.056 A 
HETATM   17  C14 UNL     1      27.163   4.517  49.134  1.00  0.00     0.008 A 
HETATM   18  C15 UNL     1      26.931   5.768  48.559  1.00  0.00     0.019 A 
HETATM   19  C16 UNL     1      25.644   6.256  48.520  1.00  0.00     0.011 A 
HETATM   20 BR1  UNL     1      25.306   7.970  47.735  1.00  0.00    -0.051 Br
HETATM   21  C17 UNL     1      24.619   5.499  49.048  1.00  0.00     0.019 A 
HETATM   22  C18 UNL     1      24.847   4.249  49.623  1.00  0.00     0.008 A 
ENDBRANCH  15  16
ENDBRANCH   5  15
TORSDOF 3
ENDMDL
MODEL 3
REMARK VINA RESULT:      -7.9      1.207      2.468
REMARK  3 active torsions:
REMARK  status: ('A' for Active; 'I' for Inactive)
REMARK    1  A    between atoms: C9_9  and  C10_10 
REMARK    2  A    between atoms: C11_14  and  C12_15 
REMARK    3  A    between atoms: C12_15  and  C13_16 
ROOT
HETATM    1  C10 UNL     1      22.005   1.068  53.042  1.00  0.00     0.086 A 
HETATM    2  N1  UNL     1      20.718   0.929  53.119  1.00  0.00    -0.133 NA
HETATM    3  N2  UNL     1      20.399   0.037  54.128  1.00  0.00    -0.048 NA
HETATM    4  N3  UNL     1      21.427  -0.401  54.700  1.00  0.00    -0.161 NA
HETATM    5  C11 UNL     1      22.572   0.199  54.080  1.00  0.00     0.190 A 
ENDROOT
BRANCH   1   6
HETATM    6  C9  UNL     1      22.788   1.899  52.133  1.00  0.00     0.043 C 
HETATM    7  C8  UNL     1      22.800   2.015  50.826  1.00  0.00    -0.029 C 
HETATM    8  C2  UNL     1      23.741   2.976  50.205  1.00  0.00    -0.055 C 
HETATM    9  C7  UNL     1      21.905   1.217  49.971  1.00  0.00     0.008 C 
HETATM   10  C1  UNL     1      24.928   3.274  51.055  1.00  0.00     0.049 C 
HETATM   11  C3  UNL     1      23.674   3.599  49.019  1.00  0.00    -0.019 C 
HETATM   12  C4  UNL     1      22.575   3.432  48.040  1.00  0.00     0.031 C 
HETATM   13  C5  UNL     1      22.318   2.023  47.622  1.00  0.00     0.031 C 
HETATM   14  C6  UNL     1      21.673   1.183  48.670  1.00  0.00    -0.026 C 
ENDBRANCH   1   6
BRANCH   5  15
HETATM   15  C12 UNL     1      23.430  -0.873  53.433  1.00  0.00     0.074 C 
BRANCH  15  16
HETATM   16  C13 UNL     1      24.864  -0.546  53.591  1.00  0.00    -0.056 A 
HETATM   17  C14 UNL     1      25.628  -0.442  52.430  1.00  0.00     0.008 A 
HETATM   18  C15 UNL     1      26.989  -0.137  52.468  1.00  0.00     0.019 A 
HETATM   19  C16 UNL     1      27.593   0.066  53.688  1.00  0.00     0.011 A 
HETATM   20 BR1  UNL     1      29.460   0.485  53.762  1.00  0.00    -0.051 Br
HETATM   21  C17 UNL     1      26.839  -0.036  54.840  1.00  0.00     0.019 A 
HETATM   22  C18 UNL     1      25.479  -0.340  54.805  1.00  0.00     0.008 A 
ENDBRANCH  15  16
ENDBRANCH   5  15
TORSDOF 3
ENDMDL
MODEL 4
REMARK VINA RESULT:      -7.7      2.355      5.115
REMARK  3 active torsions:
REMARK  status: ('A' for Active; 'I' for Inactive)
REMARK    1  A    between atoms: C9_9  and  C10_10 
REMARK    2  A    between atoms: C11_14  and  C12_15 
REMARK    3  A    between atoms: C12_15  and  C13_16 
ROOT
HETATM    1  C10 UNL     1      23.499  -0.808  54.070  1.00  0.00     0.086 A 
HETATM    2  N1  UNL     1      22.921  -1.156  55.178  1.00  0.00    -0.133 NA
HETATM    3  N2  UNL     1      21.614  -0.705  55.190  1.00  0.00    -0.048 NA
HETATM    4  N3  UNL     1      21.328  -0.085  54.137  1.00  0.00    -0.161 NA
HETATM    5  C11 UNL     1      22.490  -0.074  53.297  1.00  0.00     0.190 A 
ENDROOT
BRANCH   1   6
HETATM    6  C9  UNL     1      24.865  -1.064  53.624  1.00  0.00     0.043 C 
HETATM    7  C8  UNL     1      25.916  -0.288  53.498  1.00  0.00    -0.029 C 
HETATM    8  C2  UNL     1      27.182  -0.879  53.006  1.00  0.00    -0.055 C 
HETATM    9  C7  UNL     1      25.863   1.145  53.833  1.00  0.00     0.008 C 
HETATM   10  C1  UNL     1      26.982  -2.110  52.190  1.00  0.00     0.049 C 
HETATM   11  C3  UNL     1      28.447  -0.473  53.189  1.00  0.00    -0.019 C 
HETATM   12  C4  UNL     1      28.845   0.723  53.967  1.00  0.00     0.031 C 
HETATM   13  C5  UNL     1      28.211   1.998  53.522  1.00  0.00     0.031 C 
HETATM   14  C6  UNL     1      26.765   2.112  53.859  1.00  0.00    -0.026 C 
ENDBRANCH   1   6
BRANCH   5  15
HETATM   15  C12 UNL     1      22.956   1.355  53.080  1.00  0.00     0.074 C 
BRANCH  15  16
HETATM   16  C13 UNL     1      22.843   1.719  51.651  1.00  0.00    -0.056 A 
HETATM   17  C14 UNL     1      21.893   1.040  50.891  1.00  0.00     0.008 A 
HETATM   18  C15 UNL     1      21.705   1.308  49.535  1.00  0.00     0.019 A 
HETATM   19  C16 UNL     1      22.482   2.272  48.931  1.00  0.00     0.011 A 
HETATM   20 BR1  UNL     1      22.240   2.654  47.070  1.00  0.00    -0.051 Br
HETATM   21  C17 UNL     1      23.423   2.947  49.682  1.00  0.00     0.019 A 
HETATM   22  C18 UNL     1      23.612   2.682  51.037  1.00  0.00     0.008 A 
ENDBRANCH  15  16
ENDBRANCH   5  15
TORSDOF 3
ENDMDL
MODEL 5
REMARK VINA RESULT:      -7.7      3.485      5.025
REMARK  3 active torsions:
REMARK  status: ('A' for Active; 'I' for Inactive)
REMARK    1  A    between atoms: C9_9  and  C10_10 
REMARK    2  A    between atoms: C11_14  and  C12_15 
REMARK    3  A    between atoms: C12_15  and  C13_16 
ROOT
HETATM    1  C10 UNL     1      25.848   0.764  52.670  1.00  0.00     0.086 A 
HETATM    2  N1  UNL     1      27.132   0.580  52.686  1.00  0.00    -0.133 NA
HETATM    3  N2  UNL     1      27.417  -0.729  53.028  1.00  0.00    -0.048 NA
HETATM    4  N3  UNL     1      26.371  -1.393  53.231  1.00  0.00    -0.161 NA
HETATM    5  C11 UNL     1      25.247  -0.526  53.029  1.00  0.00     0.190 A 
ENDROOT
BRANCH   1   6
HETATM    6  C9  UNL     1      25.095   1.977  52.366  1.00  0.00     0.043 C 
HETATM    7  C8  UNL     1      25.265   2.926  51.477  1.00  0.00    -0.029 C 
HETATM    8  C2  UNL     1      24.295   4.044  51.434  1.00  0.00    -0.055 C 
HETATM    9  C7  UNL     1      26.391   2.902  50.527  1.00  0.00     0.008 C 
HETATM   10  C1  UNL     1      23.590   4.265  52.728  1.00  0.00     0.049 C 
HETATM   11  C3  UNL     1      23.969   4.860  50.420  1.00  0.00    -0.019 C 
HETATM   12  C4  UNL     1      24.560   4.796  49.063  1.00  0.00     0.031 C 
HETATM   13  C5  UNL     1      26.048   4.891  49.022  1.00  0.00     0.031 C 
HETATM   14  C6  UNL     1      26.752   3.675  49.516  1.00  0.00    -0.026 C 
ENDBRANCH   1   6
BRANCH   5  15
HETATM   15  C12 UNL     1      24.468  -0.382  54.324  1.00  0.00     0.074 C 
BRANCH  15  16
HETATM   16  C13 UNL     1      23.022  -0.571  54.075  1.00  0.00    -0.056 A 
HETATM   17  C14 UNL     1      22.386   0.363  53.260  1.00  0.00     0.008 A 
HETATM   18  C15 UNL     1      21.025   0.277  52.963  1.00  0.00     0.019 A 
HETATM   19  C16 UNL     1      20.292  -0.762  53.490  1.00  0.00     0.011 A 
HETATM   20 BR1  UNL     1      18.423  -0.899  53.094  1.00  0.00    -0.051 Br
HETATM   21  C17 UNL     1      20.919  -1.689  54.297  1.00  0.00     0.019 A 
HETATM   22  C18 UNL     1      22.279  -1.606  54.596  1.00  0.00     0.008 A 
ENDBRANCH  15  16
ENDBRANCH   5  15
TORSDOF 3
ENDMDL
MODEL 6
REMARK VINA RESULT:      -7.5      3.208      5.845
REMARK  3 active torsions:
REMARK  status: ('A' for Active; 'I' for Inactive)
REMARK    1  A    between atoms: C9_9  and  C10_10 
REMARK    2  A    between atoms: C11_14  and  C12_15 
REMARK    3  A    between atoms: C12_15  and  C13_16 
ROOT
HETATM    1  C10 UNL     1      22.433   1.926  49.882  1.00  0.00     0.086 A 
HETATM    2  N1  UNL     1      21.202   1.712  49.538  1.00  0.00    -0.133 NA
HETATM    3  N2  UNL     1      20.895   2.440  48.403  1.00  0.00    -0.048 NA
HETATM    4  N3  UNL     1      21.878   3.111  48.004  1.00  0.00    -0.161 NA
HETATM    5  C11 UNL     1      22.975   2.867  48.894  1.00  0.00     0.190 A 
ENDROOT
BRANCH   1   6
HETATM    6  C9  UNL     1      23.185   1.377  51.007  1.00  0.00     0.043 C 
HETATM    7  C8  UNL     1      22.814   0.899  52.171  1.00  0.00    -0.029 C 
HETATM    8  C2  UNL     1      23.855   0.410  53.104  1.00  0.00    -0.055 C 
HETATM    9  C7  UNL     1      21.396   0.839  52.566  1.00  0.00     0.008 C 
HETATM   10  C1  UNL     1      25.193   1.020  52.869  1.00  0.00     0.049 C 
HETATM   11  C3  UNL     1      23.763  -0.484  54.101  1.00  0.00    -0.019 C 
HETATM   12  C4  UNL     1      22.522  -1.194  54.485  1.00  0.00     0.031 C 
HETATM   13  C5  UNL     1      21.367  -0.306  54.807  1.00  0.00     0.031 C 
HETATM   14  C6  UNL     1      20.760   0.362  53.622  1.00  0.00    -0.026 C 
ENDBRANCH   1   6
BRANCH   5  15
HETATM   15  C12 UNL     1      23.374   4.158  49.587  1.00  0.00     0.074 C 
BRANCH  15  16
HETATM   16  C13 UNL     1      24.786   4.483  49.291  1.00  0.00    -0.056 A 
HETATM   17  C14 UNL     1      25.057   5.749  48.777  1.00  0.00     0.008 A 
HETATM   18  C15 UNL     1      26.355   6.156  48.464  1.00  0.00     0.019 A 
HETATM   19  C16 UNL     1      27.397   5.279  48.671  1.00  0.00     0.011 A 
HETATM   20 BR1  UNL     1      29.185   5.818  48.248  1.00  0.00    -0.051 Br
HETATM   21  C17 UNL     1      27.131   4.025  49.181  1.00  0.00     0.019 A 
HETATM   22  C18 UNL     1      25.836   3.616  49.494  1.00  0.00     0.008 A 
ENDBRANCH  15  16
ENDBRANCH   5  15
TORSDOF 3
ENDMDL
MODEL 7
REMARK VINA RESULT:      -7.5      3.677      5.513
REMARK  3 active torsions:
REMARK  status: ('A' for Active; 'I' for Inactive)
REMARK    1  A    between atoms: C9_9  and  C10_10 
REMARK    2  A    between atoms: C11_14  and  C12_15 
REMARK    3  A    between atoms: C12_15  and  C13_16 
ROOT
HETATM    1  C10 UNL     1      22.687  -0.477  53.313  1.00  0.00     0.086 A 
HETATM    2  N1  UNL     1      23.695  -0.632  54.114  1.00  0.00    -0.133 NA
HETATM    3  N2  UNL     1      23.311  -1.372  55.218  1.00  0.00    -0.048 NA
HETATM    4  N3  UNL     1      22.100  -1.698  55.158  1.00  0.00    -0.161 NA
HETATM    5  C11 UNL     1      21.556  -1.169  53.941  1.00  0.00     0.190 A 
ENDROOT
BRANCH   1   6
HETATM    6  C9  UNL     1      22.625   0.229  52.036  1.00  0.00     0.043 C 
HETATM    7  C8  UNL     1      22.934   1.455  51.686  1.00  0.00    -0.029 C 
HETATM    8  C2  UNL     1      22.748   1.860  50.274  1.00  0.00    -0.055 C 
HETATM    9  C7  UNL     1      23.459   2.428  52.659  1.00  0.00     0.008 C 
HETATM   10  C1  UNL     1      21.728   1.045  49.555  1.00  0.00     0.049 C 
HETATM   11  C3  UNL     1      23.354   2.829  49.570  1.00  0.00    -0.019 C 
HETATM   12  C4  UNL     1      24.390   3.739  50.110  1.00  0.00     0.031 C 
HETATM   13  C5  UNL     1      23.984   4.499  51.327  1.00  0.00     0.031 C 
HETATM   14  C6  UNL     1      23.897   3.672  52.564  1.00  0.00    -0.026 C 
ENDBRANCH   1   6
BRANCH   5  15
HETATM   15  C12 UNL     1      20.460  -0.168  54.259  1.00  0.00     0.074 C 
BRANCH  15  16
HETATM   16  C13 UNL     1      19.356  -0.291  53.282  1.00  0.00    -0.056 A 
HETATM   17  C14 UNL     1      18.395  -1.271  53.523  1.00  0.00     0.008 A 
HETATM   18  C15 UNL     1      17.313  -1.469  52.664  1.00  0.00     0.019 A 
HETATM   19  C16 UNL     1      17.193  -0.672  51.548  1.00  0.00     0.011 A 
HETATM   20 BR1  UNL     1      15.715  -0.927  50.357  1.00  0.00    -0.051 Br
HETATM   21  C17 UNL     1      18.143   0.300  51.307  1.00  0.00     0.019 A 
HETATM   22  C18 UNL     1      19.225   0.501  52.164  1.00  0.00     0.008 A 
ENDBRANCH  15  16
ENDBRANCH   5  15
TORSDOF 3
ENDMDL
MODEL 8
REMARK VINA RESULT:      -7.4      3.596      5.630
REMARK  3 active torsions:
REMARK  status: ('A' for Active; 'I' for Inactive)
REMARK    1  A    between atoms: C9_9  and  C10_10 
REMARK    2  A    between atoms: C11_14  and  C12_15 
REMARK    3  A    between atoms: C12_15  and  C13_16 
ROOT
HETATM    1  C10 UNL     1      25.380   2.314  52.506  1.00  0.00     0.086 A 
HETATM    2  N1  UNL     1      25.766   1.292  53.205  1.00  0.00    -0.133 NA
HETATM    3  N2  UNL     1      27.092   1.009  52.934  1.00  0.00    -0.048 NA
HETATM    4  N3  UNL     1      27.573   1.806  52.092  1.00  0.00    -0.161 NA
HETATM    5  C11 UNL     1      26.545   2.732  51.717  1.00  0.00     0.190 A 
ENDROOT
BRANCH   1   6
HETATM    6  C9  UNL     1      24.073   2.963  52.467  1.00  0.00     0.043 C 
HETATM    7  C8  UNL     1      22.898   2.563  52.043  1.00  0.00    -0.029 C 
HETATM    8  C2  UNL     1      21.748   3.491  52.150  1.00  0.00    -0.055 C 
HETATM    9  C7  UNL     1      22.699   1.222  51.467  1.00  0.00     0.008 C 
HETATM   10  C1  UNL     1      22.149   4.926  52.191  1.00  0.00     0.049 C 
HETATM   11  C3  UNL     1      20.435   3.227  52.217  1.00  0.00    -0.019 C 
HETATM   12  C4  UNL     1      19.845   1.869  52.191  1.00  0.00     0.031 C 
HETATM   13  C5  UNL     1      20.230   1.042  51.010  1.00  0.00     0.031 C 
HETATM   14  C6  UNL     1      21.639   0.560  51.034  1.00  0.00    -0.026 C 
ENDBRANCH   1   6
BRANCH   5  15
HETATM   15  C12 UNL     1      26.236   2.587  50.237  1.00  0.00     0.074 C 
BRANCH  15  16
HETATM   16  C13 UNL     1      26.155   3.919  49.598  1.00  0.00    -0.056 A 
HETATM   17  C14 UNL     1      27.336   4.459  49.093  1.00  0.00     0.008 A 
HETATM   18  C15 UNL     1      27.369   5.708  48.471  1.00  0.00     0.019 A 
HETATM   19  C16 UNL     1      26.200   6.426  48.354  1.00  0.00     0.011 A 
HETATM   20 BR1  UNL     1      26.224   8.142  47.505  1.00  0.00    -0.051 Br
HETATM   21  C17 UNL     1      25.028   5.894  48.853  1.00  0.00     0.019 A 
HETATM   22  C18 UNL     1      24.992   4.646  49.475  1.00  0.00     0.008 A 
ENDBRANCH  15  16
ENDBRANCH   5  15
TORSDOF 3
ENDMDL
MODEL 9
REMARK VINA RESULT:      -7.4      3.503      5.368
REMARK  3 active torsions:
REMARK  status: ('A' for Active; 'I' for Inactive)
REMARK    1  A    between atoms: C9_9  and  C10_10 
REMARK    2  A    between atoms: C11_14  and  C12_15 
REMARK    3  A    between atoms: C12_15  and  C13_16 
ROOT
HETATM    1  C10 UNL     1      25.963   1.291  52.598  1.00  0.00     0.086 A 
HETATM    2  N1  UNL     1      26.909   0.739  53.293  1.00  0.00    -0.133 NA
HETATM    3  N2  UNL     1      28.089   1.441  53.125  1.00  0.00    -0.048 NA
HETATM    4  N3  UNL     1      27.940   2.419  52.352  1.00  0.00    -0.161 NA
HETATM    5  C11 UNL     1      26.572   2.444  51.923  1.00  0.00     0.190 A 
ENDROOT
BRANCH   1   6
HETATM    6  C9  UNL     1      24.563   0.897  52.471  1.00  0.00     0.043 C 
HETATM    7  C8  UNL     1      23.448   1.587  52.446  1.00  0.00    -0.029 C 
HETATM    8  C2  UNL     1      22.165   0.861  52.302  1.00  0.00    -0.055 C 
HETATM    9  C7  UNL     1      23.444   3.056  52.556  1.00  0.00     0.008 C 
HETATM   10  C1  UNL     1      22.231  -0.554  52.765  1.00  0.00     0.049 C 
HETATM   11  C3  UNL     1      20.985   1.287  51.824  1.00  0.00    -0.019 C 
HETATM   12  C4  UNL     1      20.725   2.655  51.320  1.00  0.00     0.031 C 
HETATM   13  C5  UNL     1      21.039   3.748  52.284  1.00  0.00     0.031 C 
HETATM   14  C6  UNL     1      22.496   3.976  52.497  1.00  0.00    -0.026 C 
ENDBRANCH   1   6
BRANCH   5  15
HETATM   15  C12 UNL     1      26.500   2.249  50.419  1.00  0.00     0.074 C 
BRANCH  15  16
HETATM   16  C13 UNL     1      25.720   3.342  49.798  1.00  0.00    -0.056 A 
HETATM   17  C14 UNL     1      26.368   4.561  49.607  1.00  0.00     0.008 A 
HETATM   18  C15 UNL     1      25.723   5.656  49.030  1.00  0.00     0.019 A 
HETATM   19  C16 UNL     1      24.410   5.526  48.637  1.00  0.00     0.011 A 
HETATM   20 BR1  UNL     1      23.507   7.016  47.843  1.00  0.00    -0.051 Br
HETATM   21  C17 UNL     1      23.766   4.319  48.824  1.00  0.00     0.019 A 
HETATM   22  C18 UNL     1      24.408   3.224  49.401  1.00  0.00     0.008 A 
ENDBRANCH  15  16
ENDBRANCH   5  15
TORSDOF 3
ENDMDL
