MODEL 1
REMARK VINA RESULT:      -6.9      0.000      0.000
REMARK  6 active torsions:
REMARK  status: ('A' for Active; 'I' for Inactive)
REMARK    1  A    between atoms: S1_2  and  C2_3 
REMARK    2  A    between atoms: C6_8  and  C7_9 
REMARK    3  A    between atoms: N2_11  and  C9_12 
REMARK    4  A    between atoms: C9_12  and  C10_13 
REMARK    5  A    between atoms: C10_13  and  N3_14 
REMARK    6  A    between atoms: C13_18  and  N5_19 
ROOT
HETATM    1  C7  UNL     1      23.282   0.954  52.346  1.00  0.00     0.012 A 
HETATM    2  C8  UNL     1      24.560   0.687  52.852  1.00  0.00     0.105 A 
HETATM    3  N2  UNL     1      24.386  -0.235  53.830  1.00  0.00    -0.351 N 
HETATM    4  C11 UNL     1      23.095  -0.565  53.976  1.00  0.00     0.083 A 
HETATM    5  C12 UNL     1      22.494  -1.456  54.844  1.00  0.00     0.168 A 
HETATM    6  N4  UNL     1      21.139  -1.571  54.740  1.00  0.00    -0.073 NA
HETATM    7  C13 UNL     1      20.474  -0.825  53.814  1.00  0.00     0.720 A 
HETATM    8  N6  UNL     1      21.080   0.051  52.963  1.00  0.00    -0.060 NA
HETATM    9  C14 UNL     1      22.393   0.175  53.050  1.00  0.00     0.116 A 
ENDROOT
BRANCH   1  10
HETATM   10  C6  UNL     1      23.106   1.918  51.263  1.00  0.00     0.025 C 
HETATM   11  C5  UNL     1      22.426   1.962  50.154  1.00  0.00    -0.025 C 
HETATM   12  C2  UNL     1      22.311   3.007  49.097  1.00  0.00     0.101 C 
HETATM   13  C4  UNL     1      21.537   0.921  49.599  1.00  0.00     0.118 C 
HETATM   14  C3  UNL     1      22.413   2.098  47.865  1.00  0.00     0.168 C 
HETATM   15  N1  UNL     1      21.542   1.013  48.296  1.00  0.00    -0.300 NA
BRANCH  12  16
HETATM   16  S1  UNL     1      20.695   3.771  49.239  1.00  0.00    -0.162 SA
HETATM   17  C1  UNL     1      20.371   4.351  50.934  1.00  0.00     0.090 C 
ENDBRANCH  12  16
ENDBRANCH   1  10
BRANCH   3  18
HETATM   18  C9  UNL     1      25.575  -0.717  54.552  1.00  0.00     0.158 C 
BRANCH  18  19
HETATM   19  C10 UNL     1      26.629   0.370  54.538  1.00  0.00     0.286 C 
BRANCH  19  20
HETATM   20  N3  UNL     1      27.895  -0.179  54.925  1.00  0.00     0.079 N 
HETATM   21  H14 UNL     1      28.687   0.131  54.285  1.00  0.00     0.312 HD
HETATM   22  H15 UNL     1      28.139  -0.086  55.927  1.00  0.00     0.312 HD
ENDBRANCH  19  20
ENDBRANCH  18  19
ENDBRANCH   3  18
BRANCH   7  23
HETATM   23  N5  UNL     1      19.065  -1.039  53.812  1.00  0.00    -0.231 N 
HETATM   24  H17 UNL     1      18.556  -1.809  53.317  1.00  0.00     0.174 HD
HETATM   25  H18 UNL     1      18.266  -0.537  54.258  1.00  0.00     0.174 HD
ENDBRANCH   7  23
TORSDOF 6
ENDMDL
MODEL 2
REMARK VINA RESULT:      -6.8      1.954      2.475
REMARK  6 active torsions:
REMARK  status: ('A' for Active; 'I' for Inactive)
REMARK    1  A    between atoms: S1_2  and  C2_3 
REMARK    2  A    between atoms: C6_8  and  C7_9 
REMARK    3  A    between atoms: N2_11  and  C9_12 
REMARK    4  A    between atoms: C9_12  and  C10_13 
REMARK    5  A    between atoms: C10_13  and  N3_14 
REMARK    6  A    between atoms: C13_18  and  N5_19 
ROOT
HETATM    1  C7  UNL     1      23.677   0.888  52.447  1.00  0.00     0.012 A 
HETATM    2  C8  UNL     1      24.932   0.693  53.038  1.00  0.00     0.105 A 
HETATM    3  N2  UNL     1      24.725  -0.156  54.074  1.00  0.00    -0.351 N 
HETATM    4  C11 UNL     1      23.436  -0.507  54.177  1.00  0.00     0.083 A 
HETATM    5  C12 UNL     1      22.809  -1.345  55.079  1.00  0.00     0.168 A 
HETATM    6  N4  UNL     1      21.464  -1.503  54.914  1.00  0.00    -0.073 NA
HETATM    7  C13 UNL     1      20.834  -0.847  53.899  1.00  0.00     0.720 A 
HETATM    8  N6  UNL     1      21.466  -0.023  53.016  1.00  0.00    -0.060 NA
HETATM    9  C14 UNL     1      22.769   0.142  53.162  1.00  0.00     0.116 A 
ENDROOT
BRANCH   1  10
HETATM   10  C6  UNL     1      23.539   1.763  51.286  1.00  0.00     0.025 C 
HETATM   11  C5  UNL     1      23.483   3.048  51.087  1.00  0.00    -0.025 C 
HETATM   12  C2  UNL     1      23.338   3.858  49.844  1.00  0.00     0.101 C 
HETATM   13  C4  UNL     1      23.539   4.121  52.100  1.00  0.00     0.118 C 
HETATM   14  C3  UNL     1      22.300   4.869  50.350  1.00  0.00     0.168 C 
HETATM   15  N1  UNL     1      22.861   5.148  51.664  1.00  0.00    -0.300 NA
BRANCH  12  16
HETATM   16  S1  UNL     1      24.916   4.631  49.492  1.00  0.00    -0.162 SA
HETATM   17  C1  UNL     1      26.292   3.446  49.623  1.00  0.00     0.090 C 
ENDBRANCH  12  16
ENDBRANCH   1  10
BRANCH   3  18
HETATM   18  C9  UNL     1      25.884  -0.550  54.892  1.00  0.00     0.158 C 
BRANCH  18  19
HETATM   19  C10 UNL     1      27.032   0.392  54.599  1.00  0.00     0.286 C 
BRANCH  19  20
HETATM   20  N3  UNL     1      28.274  -0.238  54.941  1.00  0.00     0.079 N 
HETATM   21  H14 UNL     1      28.982  -0.201  54.149  1.00  0.00     0.312 HD
HETATM   22  H15 UNL     1      28.685   0.040  55.850  1.00  0.00     0.312 HD
ENDBRANCH  19  20
ENDBRANCH  18  19
ENDBRANCH   3  18
BRANCH   7  23
HETATM   23  N5  UNL     1      19.432  -1.097  53.841  1.00  0.00    -0.231 N 
HETATM   24  H17 UNL     1      18.934  -1.667  53.116  1.00  0.00     0.174 HD
HETATM   25  H18 UNL     1      18.629  -0.809  54.442  1.00  0.00     0.174 HD
ENDBRANCH   7  23
TORSDOF 6
ENDMDL
MODEL 3
REMARK VINA RESULT:      -6.8      2.405      4.645
REMARK  6 active torsions:
REMARK  status: ('A' for Active; 'I' for Inactive)
REMARK    1  A    between atoms: S1_2  and  C2_3 
REMARK    2  A    between atoms: C6_8  and  C7_9 
REMARK    3  A    between atoms: N2_11  and  C9_12 
REMARK    4  A    between atoms: C9_12  and  C10_13 
REMARK    5  A    between atoms: C10_13  and  N3_14 
REMARK    6  A    between atoms: C13_18  and  N5_19 
ROOT
HETATM    1  C7  UNL     1      23.809   1.098  52.137  1.00  0.00     0.012 A 
HETATM    2  C8  UNL     1      22.665   0.310  52.324  1.00  0.00     0.105 A 
HETATM    3  N2  UNL     1      22.946  -0.507  53.368  1.00  0.00    -0.351 N 
HETATM    4  C11 UNL     1      24.179  -0.292  53.848  1.00  0.00     0.083 A 
HETATM    5  C12 UNL     1      24.848  -0.899  54.894  1.00  0.00     0.168 A 
HETATM    6  N4  UNL     1      26.111  -0.446  55.139  1.00  0.00    -0.073 NA
HETATM    7  C13 UNL     1      26.626   0.549  54.364  1.00  0.00     0.720 A 
HETATM    8  N6  UNL     1      25.955   1.139  53.335  1.00  0.00    -0.060 NA
HETATM    9  C14 UNL     1      24.730   0.712  53.083  1.00  0.00     0.116 A 
ENDROOT
BRANCH   1  10
HETATM   10  C6  UNL     1      23.845   2.101  51.076  1.00  0.00     0.025 C 
HETATM   11  C5  UNL     1      23.818   3.402  51.020  1.00  0.00    -0.025 C 
HETATM   12  C2  UNL     1      23.860   4.350  49.870  1.00  0.00     0.101 C 
HETATM   13  C4  UNL     1      23.720   4.351  52.147  1.00  0.00     0.118 C 
HETATM   14  C3  UNL     1      22.757   5.314  50.329  1.00  0.00     0.168 C 
HETATM   15  N1  UNL     1      23.114   5.432  51.736  1.00  0.00    -0.300 NA
BRANCH  12  16
HETATM   16  S1  UNL     1      25.472   5.133  49.848  1.00  0.00    -0.162 SA
HETATM   17  C1  UNL     1      26.784   3.960  49.381  1.00  0.00     0.090 C 
ENDBRANCH  12  16
ENDBRANCH   1  10
BRANCH   3  18
HETATM   18  C9  UNL     1      21.912  -1.460  53.802  1.00  0.00     0.158 C 
BRANCH  18  19
HETATM   19  C10 UNL     1      20.584  -0.739  53.881  1.00  0.00     0.286 C 
BRANCH  19  20
HETATM   20  N3  UNL     1      20.582   0.147  55.008  1.00  0.00     0.079 N 
HETATM   21  H14 UNL     1      20.896   1.131  54.754  1.00  0.00     0.312 HD
HETATM   22  H15 UNL     1      19.719   0.145  55.582  1.00  0.00     0.312 HD
ENDBRANCH  19  20
ENDBRANCH  18  19
ENDBRANCH   3  18
BRANCH   7  23
HETATM   23  N5  UNL     1      27.953   0.926  54.725  1.00  0.00    -0.231 N 
HETATM   24  H17 UNL     1      28.473   1.769  54.383  1.00  0.00     0.174 HD
HETATM   25  H18 UNL     1      28.669   0.503  55.357  1.00  0.00     0.174 HD
ENDBRANCH   7  23
TORSDOF 6
ENDMDL
MODEL 4
REMARK VINA RESULT:      -6.7      2.379      4.665
REMARK  6 active torsions:
REMARK  status: ('A' for Active; 'I' for Inactive)
REMARK    1  A    between atoms: S1_2  and  C2_3 
REMARK    2  A    between atoms: C6_8  and  C7_9 
REMARK    3  A    between atoms: N2_11  and  C9_12 
REMARK    4  A    between atoms: C9_12  and  C10_13 
REMARK    5  A    between atoms: C10_13  and  N3_14 
REMARK    6  A    between atoms: C13_18  and  N5_19 
ROOT
HETATM    1  C7  UNL     1      24.146   2.248  53.099  1.00  0.00     0.012 A 
HETATM    2  C8  UNL     1      23.074   1.364  52.920  1.00  0.00     0.105 A 
HETATM    3  N2  UNL     1      23.531   0.146  53.298  1.00  0.00    -0.351 N 
HETATM    4  C11 UNL     1      24.809   0.199  53.699  1.00  0.00     0.083 A 
HETATM    5  C12 UNL     1      25.642  -0.802  54.160  1.00  0.00     0.168 A 
HETATM    6  N4  UNL     1      26.907  -0.420  54.498  1.00  0.00    -0.073 NA
HETATM    7  C13 UNL     1      27.267   0.887  54.367  1.00  0.00     0.720 A 
HETATM    8  N6  UNL     1      26.435   1.865  53.911  1.00  0.00    -0.060 NA
HETATM    9  C14 UNL     1      25.206   1.513  53.578  1.00  0.00     0.116 A 
ENDROOT
BRANCH   1  10
HETATM   10  C6  UNL     1      23.992   3.665  52.781  1.00  0.00     0.025 C 
HETATM   11  C5  UNL     1      23.901   4.372  51.692  1.00  0.00    -0.025 C 
HETATM   12  C2  UNL     1      23.745   5.838  51.467  1.00  0.00     0.101 C 
HETATM   13  C4  UNL     1      23.942   3.890  50.297  1.00  0.00     0.118 C 
HETATM   14  C3  UNL     1      24.768   6.005  50.335  1.00  0.00     0.168 C 
HETATM   15  N1  UNL     1      24.438   4.831  49.539  1.00  0.00    -0.300 NA
BRANCH  12  16
HETATM   16  S1  UNL     1      22.068   6.143  50.909  1.00  0.00    -0.162 SA
HETATM   17  C1  UNL     1      21.900   7.789  50.151  1.00  0.00     0.090 C 
ENDBRANCH  12  16
ENDBRANCH   1  10
BRANCH   3  18
HETATM   18  C9  UNL     1      22.608  -0.998  53.220  1.00  0.00     0.158 C 
BRANCH  18  19
HETATM   19  C10 UNL     1      21.992  -1.224  54.584  1.00  0.00     0.286 C 
BRANCH  19  20
HETATM   20  N3  UNL     1      20.609  -0.849  54.558  1.00  0.00     0.079 N 
HETATM   21  H14 UNL     1      19.971  -1.618  54.923  1.00  0.00     0.312 HD
HETATM   22  H15 UNL     1      20.385   0.076  54.965  1.00  0.00     0.312 HD
ENDBRANCH  19  20
ENDBRANCH  18  19
ENDBRANCH   3  18
BRANCH   7  23
HETATM   23  N5  UNL     1      28.614   1.149  54.751  1.00  0.00    -0.231 N 
HETATM   24  H17 UNL     1      29.356   1.587  54.154  1.00  0.00     0.174 HD
HETATM   25  H18 UNL     1      29.149   0.991  55.633  1.00  0.00     0.174 HD
ENDBRANCH   7  23
TORSDOF 6
ENDMDL
MODEL 5
REMARK VINA RESULT:      -5.9      3.089      3.709
REMARK  6 active torsions:
REMARK  status: ('A' for Active; 'I' for Inactive)
REMARK    1  A    between atoms: S1_2  and  C2_3 
REMARK    2  A    between atoms: C6_8  and  C7_9 
REMARK    3  A    between atoms: N2_11  and  C9_12 
REMARK    4  A    between atoms: C9_12  and  C10_13 
REMARK    5  A    between atoms: C10_13  and  N3_14 
REMARK    6  A    between atoms: C13_18  and  N5_19 
ROOT
HETATM    1  C7  UNL     1      25.001   2.285  51.171  1.00  0.00     0.012 A 
HETATM    2  C8  UNL     1      26.223   2.093  51.829  1.00  0.00     0.105 A 
HETATM    3  N2  UNL     1      25.988   1.158  52.781  1.00  0.00    -0.351 N 
HETATM    4  C11 UNL     1      24.711   0.750  52.771  1.00  0.00     0.083 A 
HETATM    5  C12 UNL     1      24.065  -0.180  53.563  1.00  0.00     0.168 A 
HETATM    6  N4  UNL     1      22.742  -0.376  53.296  1.00  0.00    -0.073 NA
HETATM    7  C13 UNL     1      22.150   0.333  52.295  1.00  0.00     0.720 A 
HETATM    8  N6  UNL     1      22.800   1.247  51.520  1.00  0.00    -0.060 NA
HETATM    9  C14 UNL     1      24.082   1.450  51.765  1.00  0.00     0.116 A 
ENDROOT
BRANCH   1  10
HETATM   10  C6  UNL     1      24.899   3.241  50.072  1.00  0.00     0.025 C 
HETATM   11  C5  UNL     1      24.626   4.510  49.962  1.00  0.00    -0.025 C 
HETATM   12  C2  UNL     1      24.544   5.411  48.777  1.00  0.00     0.101 C 
HETATM   13  C4  UNL     1      24.290   5.458  51.043  1.00  0.00     0.118 C 
HETATM   14  C3  UNL     1      23.255   6.157  49.146  1.00  0.00     0.168 C 
HETATM   15  N1  UNL     1      23.510   6.387  50.561  1.00  0.00    -0.300 NA
BRANCH  12  16
HETATM   16  S1  UNL     1      25.976   6.490  48.795  1.00  0.00    -0.162 SA
HETATM   17  C1  UNL     1      27.521   5.563  48.537  1.00  0.00     0.090 C 
ENDBRANCH  12  16
ENDBRANCH   1  10
BRANCH   3  18
HETATM   18  C9  UNL     1      27.109   0.746  53.642  1.00  0.00     0.158 C 
BRANCH  18  19
HETATM   19  C10 UNL     1      28.352   1.497  53.218  1.00  0.00     0.286 C 
BRANCH  19  20
HETATM   20  N3  UNL     1      28.871   2.240  54.329  1.00  0.00     0.079 N 
HETATM   21  H14 UNL     1      29.896   2.497  54.206  1.00  0.00     0.312 HD
HETATM   22  H15 UNL     1      28.298   3.045  54.640  1.00  0.00     0.312 HD
ENDBRANCH  19  20
ENDBRANCH  18  19
ENDBRANCH   3  18
BRANCH   7  23
HETATM   23  N5  UNL     1      20.766   0.033  52.124  1.00  0.00    -0.231 N 
HETATM   24  H17 UNL     1      20.340  -0.490  51.322  1.00  0.00     0.174 HD
HETATM   25  H18 UNL     1      19.916   0.237  52.693  1.00  0.00     0.174 HD
ENDBRANCH   7  23
TORSDOF 6
ENDMDL
MODEL 6
REMARK VINA RESULT:      -5.9      8.888     10.973
REMARK  6 active torsions:
REMARK  status: ('A' for Active; 'I' for Inactive)
REMARK    1  A    between atoms: S1_2  and  C2_3 
REMARK    2  A    between atoms: C6_8  and  C7_9 
REMARK    3  A    between atoms: N2_11  and  C9_12 
REMARK    4  A    between atoms: C9_12  and  C10_13 
REMARK    5  A    between atoms: C10_13  and  N3_14 
REMARK    6  A    between atoms: C13_18  and  N5_19 
ROOT
HETATM    1  C7  UNL     1      28.530   6.579  48.292  1.00  0.00     0.012 A 
HETATM    2  C8  UNL     1      27.492   5.684  48.581  1.00  0.00     0.105 A 
HETATM    3  N2  UNL     1      26.537   6.415  49.207  1.00  0.00    -0.351 N 
HETATM    4  C11 UNL     1      26.900   7.699  49.334  1.00  0.00     0.083 A 
HETATM    5  C12 UNL     1      26.227   8.765  49.900  1.00  0.00     0.168 A 
HETATM    6  N4  UNL     1      26.873   9.966  49.868  1.00  0.00    -0.073 NA
HETATM    7  C13 UNL     1      28.108  10.045  49.296  1.00  0.00     0.720 A 
HETATM    8  N6  UNL     1      28.760   8.985  48.741  1.00  0.00    -0.060 NA
HETATM    9  C14 UNL     1      28.149   7.814  48.763  1.00  0.00     0.116 A 
ENDROOT
BRANCH   1  10
HETATM   10  C6  UNL     1      29.734   6.113  47.608  1.00  0.00     0.025 C 
HETATM   11  C5  UNL     1      31.003   6.048  47.892  1.00  0.00    -0.025 C 
HETATM   12  C2  UNL     1      32.172   5.548  47.115  1.00  0.00     0.101 C 
HETATM   13  C4  UNL     1      31.673   6.490  49.131  1.00  0.00     0.118 C 
HETATM   14  C3  UNL     1      33.154   6.689  47.420  1.00  0.00     0.168 C 
HETATM   15  N1  UNL     1      32.895   6.850  48.844  1.00  0.00    -0.300 NA
BRANCH  12  16
HETATM   16  S1  UNL     1      32.701   3.994  47.836  1.00  0.00    -0.162 SA
HETATM   17  C1  UNL     1      32.414   2.596  46.707  1.00  0.00     0.090 C 
ENDBRANCH  12  16
ENDBRANCH   1  10
BRANCH   3  18
HETATM   18  C9  UNL     1      25.306   5.730  49.634  1.00  0.00     0.158 C 
BRANCH  18  19
HETATM   19  C10 UNL     1      25.567   4.240  49.682  1.00  0.00     0.286 C 
BRANCH  19  20
HETATM   20  N3  UNL     1      25.823   3.838  51.033  1.00  0.00     0.079 N 
HETATM   21  H14 UNL     1      25.597   4.603  51.737  1.00  0.00     0.312 HD
HETATM   22  H15 UNL     1      25.435   2.919  51.312  1.00  0.00     0.312 HD
ENDBRANCH  19  20
ENDBRANCH  18  19
ENDBRANCH   3  18
BRANCH   7  23
HETATM   23  N5  UNL     1      28.671  11.354  49.332  1.00  0.00    -0.231 N 
HETATM   24  H17 UNL     1      29.116  11.815  50.161  1.00  0.00     0.174 HD
HETATM   25  H18 UNL     1      28.773  12.107  48.617  1.00  0.00     0.174 HD
ENDBRANCH   7  23
TORSDOF 6
ENDMDL
MODEL 7
REMARK VINA RESULT:      -5.8      4.123      7.415
REMARK  6 active torsions:
REMARK  status: ('A' for Active; 'I' for Inactive)
REMARK    1  A    between atoms: S1_2  and  C2_3 
REMARK    2  A    between atoms: C6_8  and  C7_9 
REMARK    3  A    between atoms: N2_11  and  C9_12 
REMARK    4  A    between atoms: C9_12  and  C10_13 
REMARK    5  A    between atoms: C10_13  and  N3_14 
REMARK    6  A    between atoms: C13_18  and  N5_19 
ROOT
HETATM    1  C7  UNL     1      23.307   4.125  52.453  1.00  0.00     0.012 A 
HETATM    2  C8  UNL     1      22.043   3.551  52.259  1.00  0.00     0.105 A 
HETATM    3  N2  UNL     1      21.347   4.437  51.505  1.00  0.00    -0.351 N 
HETATM    4  C11 UNL     1      22.078   5.523  51.214  1.00  0.00     0.083 A 
HETATM    5  C12 UNL     1      21.753   6.645  50.477  1.00  0.00     0.168 A 
HETATM    6  N4  UNL     1      22.733   7.587  50.359  1.00  0.00    -0.073 NA
HETATM    7  C13 UNL     1      23.940   7.374  50.955  1.00  0.00     0.720 A 
HETATM    8  N6  UNL     1      24.247   6.260  51.678  1.00  0.00    -0.060 NA
HETATM    9  C14 UNL     1      23.309   5.338  51.804  1.00  0.00     0.116 A 
ENDROOT
BRANCH   1  10
HETATM   10  C6  UNL     1      24.321   3.422  53.235  1.00  0.00     0.025 C 
HETATM   11  C5  UNL     1      25.100   2.397  53.045  1.00  0.00    -0.025 C 
HETATM   12  C2  UNL     1      26.118   1.745  53.918  1.00  0.00     0.101 C 
HETATM   13  C4  UNL     1      25.188   1.539  51.846  1.00  0.00     0.118 C 
HETATM   14  C3  UNL     1      25.741   0.281  53.654  1.00  0.00     0.168 C 
HETATM   15  N1  UNL     1      25.553   0.340  52.211  1.00  0.00    -0.300 NA
BRANCH  12  16
HETATM   16  S1  UNL     1      27.744   2.148  53.280  1.00  0.00    -0.162 SA
HETATM   17  C1  UNL     1      28.987   0.916  53.780  1.00  0.00     0.090 C 
ENDBRANCH  12  16
ENDBRANCH   1  10
BRANCH   3  18
HETATM   18  C9  UNL     1      19.964   4.097  51.133  1.00  0.00     0.158 C 
BRANCH  18  19
HETATM   19  C10 UNL     1      19.813   2.591  51.134  1.00  0.00     0.286 C 
BRANCH  19  20
HETATM   20  N3  UNL     1      18.537   2.233  51.678  1.00  0.00     0.079 N 
HETATM   21  H14 UNL     1      18.458   2.456  52.715  1.00  0.00     0.312 HD
HETATM   22  H15 UNL     1      17.711   2.556  51.142  1.00  0.00     0.312 HD
ENDBRANCH  19  20
ENDBRANCH  18  19
ENDBRANCH   3  18
BRANCH   7  23
HETATM   23  N5  UNL     1      24.871   8.435  50.755  1.00  0.00    -0.231 N 
HETATM   24  H17 UNL     1      24.680   9.344  50.270  1.00  0.00     0.174 HD
HETATM   25  H18 UNL     1      25.873   8.564  51.015  1.00  0.00     0.174 HD
ENDBRANCH   7  23
TORSDOF 6
ENDMDL
MODEL 8
REMARK VINA RESULT:      -5.7      1.955      2.345
REMARK  6 active torsions:
REMARK  status: ('A' for Active; 'I' for Inactive)
REMARK    1  A    between atoms: S1_2  and  C2_3 
REMARK    2  A    between atoms: C6_8  and  C7_9 
REMARK    3  A    between atoms: N2_11  and  C9_12 
REMARK    4  A    between atoms: C9_12  and  C10_13 
REMARK    5  A    between atoms: C10_13  and  N3_14 
REMARK    6  A    between atoms: C13_18  and  N5_19 
ROOT
HETATM    1  C7  UNL     1      23.436   2.588  52.545  1.00  0.00     0.012 A 
HETATM    2  C8  UNL     1      24.818   2.371  52.469  1.00  0.00     0.105 A 
HETATM    3  N2  UNL     1      25.016   1.096  52.883  1.00  0.00    -0.351 N 
HETATM    4  C11 UNL     1      23.863   0.498  53.213  1.00  0.00     0.083 A 
HETATM    5  C12 UNL     1      23.621  -0.782  53.673  1.00  0.00     0.168 A 
HETATM    6  N4  UNL     1      22.316  -1.094  53.919  1.00  0.00    -0.073 NA
HETATM    7  C13 UNL     1      21.354  -0.155  53.703  1.00  0.00     0.720 A 
HETATM    8  N6  UNL     1      21.606   1.105  53.248  1.00  0.00    -0.060 NA
HETATM    9  C14 UNL     1      22.865   1.424  53.005  1.00  0.00     0.116 A 
ENDROOT
BRANCH   1  10
HETATM   10  C6  UNL     1      22.873   3.881  52.165  1.00  0.00     0.025 C 
HETATM   11  C5  UNL     1      22.757   4.559  51.059  1.00  0.00    -0.025 C 
HETATM   12  C2  UNL     1      22.156   5.892  50.769  1.00  0.00     0.101 C 
HETATM   13  C4  UNL     1      23.227   4.178  49.713  1.00  0.00     0.118 C 
HETATM   14  C3  UNL     1      23.258   6.444  49.853  1.00  0.00     0.168 C 
HETATM   15  N1  UNL     1      23.507   5.262  49.041  1.00  0.00    -0.300 NA
BRANCH  12  16
HETATM   16  S1  UNL     1      20.617   5.633  49.888  1.00  0.00    -0.162 SA
HETATM   17  C1  UNL     1      19.549   4.428  50.738  1.00  0.00     0.090 C 
ENDBRANCH  12  16
ENDBRANCH   1  10
BRANCH   3  18
HETATM   18  C9  UNL     1      26.394   0.579  52.908  1.00  0.00     0.158 C 
BRANCH  18  19
HETATM   19  C10 UNL     1      26.982   0.819  54.282  1.00  0.00     0.286 C 
BRANCH  19  20
HETATM   20  N3  UNL     1      27.576  -0.391  54.771  1.00  0.00     0.079 N 
HETATM   21  H14 UNL     1      27.548  -1.177  54.056  1.00  0.00     0.312 HD
HETATM   22  H15 UNL     1      28.509  -0.289  55.210  1.00  0.00     0.312 HD
ENDBRANCH  19  20
ENDBRANCH  18  19
ENDBRANCH   3  18
BRANCH   7  23
HETATM   23  N5  UNL     1      20.035  -0.609  54.000  1.00  0.00    -0.231 N 
HETATM   24  H17 UNL     1      19.140  -0.154  53.700  1.00  0.00     0.174 HD
HETATM   25  H18 UNL     1      19.665  -1.424  54.536  1.00  0.00     0.174 HD
ENDBRANCH   7  23
TORSDOF 6
ENDMDL
MODEL 9
REMARK VINA RESULT:      -5.7     18.482     21.881
REMARK  6 active torsions:
REMARK  status: ('A' for Active; 'I' for Inactive)
REMARK    1  A    between atoms: S1_2  and  C2_3 
REMARK    2  A    between atoms: C6_8  and  C7_9 
REMARK    3  A    between atoms: N2_11  and  C9_12 
REMARK    4  A    between atoms: C9_12  and  C10_13 
REMARK    5  A    between atoms: C10_13  and  N3_14 
REMARK    6  A    between atoms: C13_18  and  N5_19 
ROOT
HETATM    1  C7  UNL     1      43.078   7.972  53.288  1.00  0.00     0.012 A 
HETATM    2  C8  UNL     1      43.460   8.558  52.075  1.00  0.00     0.105 A 
HETATM    3  N2  UNL     1      42.335   8.612  51.320  1.00  0.00    -0.351 N 
HETATM    4  C11 UNL     1      41.278   8.104  51.968  1.00  0.00     0.083 A 
HETATM    5  C12 UNL     1      39.963   7.973  51.566  1.00  0.00     0.168 A 
HETATM    6  N4  UNL     1      39.113   7.410  52.472  1.00  0.00    -0.073 NA
HETATM    7  C13 UNL     1      39.594   7.019  53.686  1.00  0.00     0.720 A 
HETATM    8  N6  UNL     1      40.895   7.155  54.070  1.00  0.00    -0.060 NA
HETATM    9  C14 UNL     1      41.732   7.698  53.204  1.00  0.00     0.116 A 
ENDROOT
BRANCH   1  10
HETATM   10  C6  UNL     1      44.063   7.761  54.345  1.00  0.00     0.025 C 
HETATM   11  C5  UNL     1      44.104   7.947  55.633  1.00  0.00    -0.025 C 
HETATM   12  C2  UNL     1      45.173   7.697  56.642  1.00  0.00     0.101 C 
HETATM   13  C4  UNL     1      43.044   8.501  56.499  1.00  0.00     0.118 C 
HETATM   14  C3  UNL     1      45.052   9.007  57.433  1.00  0.00     0.168 C 
HETATM   15  N1  UNL     1      43.601   9.100  57.517  1.00  0.00    -0.300 NA
BRANCH  12  16
HETATM   16  S1  UNL     1      44.698   6.272  57.620  1.00  0.00    -0.162 SA
HETATM   17  C1  UNL     1      44.444   4.797  56.583  1.00  0.00     0.090 C 
ENDBRANCH  12  16
ENDBRANCH   1  10
BRANCH   3  18
HETATM   18  C9  UNL     1      42.431   9.193  49.970  1.00  0.00     0.158 C 
BRANCH  18  19
HETATM   19  C10 UNL     1      43.272   8.279  49.104  1.00  0.00     0.286 C 
BRANCH  19  20
HETATM   20  N3  UNL     1      42.437   7.280  48.504  1.00  0.00     0.079 N 
HETATM   21  H14 UNL     1      41.441   7.620  48.348  1.00  0.00     0.312 HD
HETATM   22  H15 UNL     1      42.827   6.808  47.668  1.00  0.00     0.312 HD
ENDBRANCH  19  20
ENDBRANCH  18  19
ENDBRANCH   3  18
BRANCH   7  23
HETATM   23  N5  UNL     1      38.604   6.444  54.535  1.00  0.00    -0.231 N 
HETATM   24  H17 UNL     1      38.198   6.880  55.397  1.00  0.00     0.174 HD
HETATM   25  H18 UNL     1      38.084   5.540  54.515  1.00  0.00     0.174 HD
ENDBRANCH   7  23
TORSDOF 6
ENDMDL
