MODEL 1
REMARK VINA RESULT:      -7.9      0.000      0.000
REMARK  3 active torsions:
REMARK  status: ('A' for Active; 'I' for Inactive)
REMARK    1  A    between atoms: O1_2  and  C2_3 
REMARK    2  A    between atoms: C5_6  and  S1_7 
REMARK    3  A    between atoms: C8_10  and  C9_11 
ROOT
HETATM    1  S1  UNL     1      25.521   2.790  50.392  1.00  0.00    -0.133 SA
HETATM    2  C6  UNL     1      24.555   4.352  50.567  1.00  0.00     0.084 C 
HETATM    3  C7  UNL     1      25.090   4.974  49.307  1.00  0.00     0.071 C 
HETATM    4  C8  UNL     1      26.518   4.701  49.191  1.00  0.00     0.052 C 
HETATM    5  N1  UNL     1      26.894   3.578  49.721  1.00  0.00    -0.239 NA
HETATM    6  H6  UNL     1      24.793   2.056  48.944  1.00  0.00     0.109 HD
ENDROOT
BRANCH   1   7
HETATM    7  C5  UNL     1      25.511   1.685  51.620  1.00  0.00    -0.001 A 
HETATM    8  C4  UNL     1      24.425   1.275  52.364  1.00  0.00     0.021 A 
HETATM    9  C3  UNL     1      24.487   0.349  53.375  1.00  0.00     0.038 A 
HETATM   10  C2  UNL     1      25.688  -0.242  53.711  1.00  0.00     0.068 A 
HETATM   11  C18 UNL     1      26.801   0.129  53.003  1.00  0.00     0.038 A 
HETATM   12  C17 UNL     1      26.691   1.067  51.992  1.00  0.00     0.021 A 
BRANCH  10  13
HETATM   13  O1  UNL     1      25.643  -1.151  54.732  1.00  0.00    -0.356 OA
HETATM   14  C1  UNL     1      24.532  -1.157  55.598  1.00  0.00     0.210 C 
ENDBRANCH  10  13
ENDBRANCH   1   7
BRANCH   4  15
HETATM   15  C9  UNL     1      27.490   5.581  48.544  1.00  0.00    -0.010 A 
HETATM   16  C10 UNL     1      27.127   6.824  48.069  1.00  0.00     0.014 A 
HETATM   17  C11 UNL     1      27.987   7.710  47.449  1.00  0.00     0.008 A 
HETATM   18  C12 UNL     1      29.305   7.343  47.283  1.00  0.00    -0.056 A 
HETATM   19  C13 UNL     1      30.245   8.285  46.616  1.00  0.00     0.049 C 
HETATM   20  C14 UNL     1      29.719   6.110  47.741  1.00  0.00    -0.055 A 
HETATM   21  C15 UNL     1      31.145   5.737  47.551  1.00  0.00     0.049 C 
HETATM   22  C16 UNL     1      28.817   5.269  48.352  1.00  0.00     0.020 A 
ENDBRANCH   4  15
TORSDOF 3
ENDMDL
MODEL 2
REMARK VINA RESULT:      -7.8      3.087      8.843
REMARK  3 active torsions:
REMARK  status: ('A' for Active; 'I' for Inactive)
REMARK    1  A    between atoms: O1_2  and  C2_3 
REMARK    2  A    between atoms: C5_6  and  S1_7 
REMARK    3  A    between atoms: C8_10  and  C9_11 
ROOT
HETATM    1  S1  UNL     1      24.765   4.303  49.877  1.00  0.00    -0.133 SA
HETATM    2  C6  UNL     1      23.703   3.194  48.856  1.00  0.00     0.084 C 
HETATM    3  C7  UNL     1      22.869   2.716  50.013  1.00  0.00     0.071 C 
HETATM    4  C8  UNL     1      23.725   2.477  51.169  1.00  0.00     0.052 C 
HETATM    5  N1  UNL     1      24.769   3.244  51.232  1.00  0.00    -0.239 NA
HETATM    6  H6  UNL     1      23.611   5.549  50.407  1.00  0.00     0.109 HD
ENDROOT
BRANCH   1   7
HETATM    7  C5  UNL     1      26.073   5.039  49.187  1.00  0.00    -0.001 A 
HETATM    8  C4  UNL     1      27.324   4.495  48.982  1.00  0.00     0.021 A 
HETATM    9  C3  UNL     1      28.371   5.165  48.400  1.00  0.00     0.038 A 
HETATM   10  C2  UNL     1      28.218   6.469  47.974  1.00  0.00     0.068 A 
HETATM   11  C18 UNL     1      26.994   7.059  48.152  1.00  0.00     0.038 A 
HETATM   12  C17 UNL     1      25.967   6.345  48.744  1.00  0.00     0.021 A 
BRANCH  10  13
HETATM   13  O1  UNL     1      29.321   7.047  47.407  1.00  0.00    -0.356 OA
HETATM   14  C1  UNL     1      30.365   7.495  48.239  1.00  0.00     0.210 C 
ENDBRANCH  10  13
ENDBRANCH   1   7
BRANCH   4  15
HETATM   15  C9  UNL     1      23.476   1.473  52.203  1.00  0.00    -0.010 A 
HETATM   16  C10 UNL     1      24.480   0.641  52.650  1.00  0.00     0.014 A 
HETATM   17  C11 UNL     1      24.324  -0.329  53.622  1.00  0.00     0.008 A 
HETATM   18  C12 UNL     1      23.082  -0.491  54.197  1.00  0.00    -0.056 A 
HETATM   19  C13 UNL     1      22.894  -1.531  55.245  1.00  0.00     0.049 C 
HETATM   20  C14 UNL     1      22.043   0.317  53.785  1.00  0.00    -0.055 A 
HETATM   21  C15 UNL     1      20.713   0.124  54.421  1.00  0.00     0.049 C 
HETATM   22  C16 UNL     1      22.259   1.267  52.813  1.00  0.00     0.020 A 
ENDBRANCH   4  15
TORSDOF 3
ENDMDL
MODEL 3
REMARK VINA RESULT:      -7.8      3.019      8.616
REMARK  3 active torsions:
REMARK  status: ('A' for Active; 'I' for Inactive)
REMARK    1  A    between atoms: O1_2  and  C2_3 
REMARK    2  A    between atoms: C5_6  and  S1_7 
REMARK    3  A    between atoms: C8_10  and  C9_11 
ROOT
HETATM    1  S1  UNL     1      24.538   4.352  49.867  1.00  0.00    -0.133 SA
HETATM    2  C6  UNL     1      23.539   3.221  48.806  1.00  0.00     0.084 C 
HETATM    3  C7  UNL     1      22.703   2.692  49.938  1.00  0.00     0.071 C 
HETATM    4  C8  UNL     1      23.544   2.465  51.108  1.00  0.00     0.052 C 
HETATM    5  N1  UNL     1      24.557   3.271  51.204  1.00  0.00    -0.239 NA
HETATM    6  H6  UNL     1      23.327   5.544  50.394  1.00  0.00     0.109 HD
ENDROOT
BRANCH   1   7
HETATM    7  C5  UNL     1      25.830   5.149  49.215  1.00  0.00    -0.001 A 
HETATM    8  C4  UNL     1      25.877   6.463  48.801  1.00  0.00     0.021 A 
HETATM    9  C3  UNL     1      26.988   7.065  48.265  1.00  0.00     0.038 A 
HETATM   10  C2  UNL     1      28.161   6.355  48.108  1.00  0.00     0.068 A 
HETATM   11  C18 UNL     1      28.171   5.043  48.503  1.00  0.00     0.038 A 
HETATM   12  C17 UNL     1      27.028   4.479  49.038  1.00  0.00     0.021 A 
BRANCH  10  13
HETATM   13  O1  UNL     1      29.210   7.046  47.565  1.00  0.00    -0.356 OA
HETATM   14  C1  UNL     1      30.038   7.812  48.408  1.00  0.00     0.210 C 
ENDBRANCH  10  13
ENDBRANCH   1   7
BRANCH   4  15
HETATM   15  C9  UNL     1      23.314   1.435  52.120  1.00  0.00    -0.010 A 
HETATM   16  C10 UNL     1      22.043   0.988  52.412  1.00  0.00     0.014 A 
HETATM   17  C11 UNL     1      21.747   0.020  53.352  1.00  0.00     0.008 A 
HETATM   18  C12 UNL     1      22.784  -0.552  54.058  1.00  0.00    -0.056 A 
HETATM   19  C13 UNL     1      22.484  -1.597  55.075  1.00  0.00     0.049 C 
HETATM   20  C14 UNL     1      24.075  -0.140  53.802  1.00  0.00    -0.055 A 
HETATM   21  C15 UNL     1      25.175  -0.773  54.576  1.00  0.00     0.049 C 
HETATM   22  C16 UNL     1      24.309   0.829  52.853  1.00  0.00     0.020 A 
ENDBRANCH   4  15
TORSDOF 3
ENDMDL
MODEL 4
REMARK VINA RESULT:      -7.8      6.963      8.428
REMARK  3 active torsions:
REMARK  status: ('A' for Active; 'I' for Inactive)
REMARK    1  A    between atoms: O1_2  and  C2_3 
REMARK    2  A    between atoms: C5_6  and  S1_7 
REMARK    3  A    between atoms: C8_10  and  C9_11 
ROOT
HETATM    1  S1  UNL     1      21.802  -0.193  53.889  1.00  0.00    -0.133 SA
HETATM    2  C6  UNL     1      22.179  -1.629  54.983  1.00  0.00     0.084 C 
HETATM    3  C7  UNL     1      23.556  -1.151  55.351  1.00  0.00     0.071 C 
HETATM    4  C8  UNL     1      24.218  -0.605  54.172  1.00  0.00     0.052 C 
HETATM    5  N1  UNL     1      23.415  -0.063  53.308  1.00  0.00    -0.239 NA
HETATM    6  H6  UNL     1      21.735   1.156  55.046  1.00  0.00     0.109 HD
ENDROOT
BRANCH   1   7
HETATM    7  C5  UNL     1      20.418  -0.199  52.987  1.00  0.00    -0.001 A 
HETATM    8  C4  UNL     1      20.213   0.417  51.771  1.00  0.00     0.021 A 
HETATM    9  C3  UNL     1      19.032   0.373  51.072  1.00  0.00     0.038 A 
HETATM   10  C2  UNL     1      17.948  -0.319  51.572  1.00  0.00     0.068 A 
HETATM   11  C18 UNL     1      18.096  -0.952  52.779  1.00  0.00     0.038 A 
HETATM   12  C17 UNL     1      19.304  -0.879  53.448  1.00  0.00     0.021 A 
BRANCH  10  13
HETATM   13  O1  UNL     1      16.819  -0.303  50.800  1.00  0.00    -0.356 OA
HETATM   14  C1  UNL     1      16.870   0.285  49.521  1.00  0.00     0.210 C 
ENDBRANCH  10  13
ENDBRANCH   1   7
BRANCH   4  15
HETATM   15  C9  UNL     1      25.660  -0.634  53.930  1.00  0.00    -0.010 A 
HETATM   16  C10 UNL     1      26.219  -1.526  53.039  1.00  0.00     0.014 A 
HETATM   17  C11 UNL     1      27.569  -1.613  52.757  1.00  0.00     0.008 A 
HETATM   18  C12 UNL     1      28.434  -0.757  53.404  1.00  0.00    -0.056 A 
HETATM   19  C13 UNL     1      29.891  -0.837  53.113  1.00  0.00     0.049 C 
HETATM   20  C14 UNL     1      27.924   0.155  54.304  1.00  0.00    -0.055 A 
HETATM   21  C15 UNL     1      28.878   1.068  54.988  1.00  0.00     0.049 C 
HETATM   22  C16 UNL     1      26.570   0.196  54.544  1.00  0.00     0.020 A 
ENDBRANCH   4  15
TORSDOF 3
ENDMDL
MODEL 5
REMARK VINA RESULT:      -7.8      3.330      8.907
REMARK  3 active torsions:
REMARK  status: ('A' for Active; 'I' for Inactive)
REMARK    1  A    between atoms: O1_2  and  C2_3 
REMARK    2  A    between atoms: C5_6  and  S1_7 
REMARK    3  A    between atoms: C8_10  and  C9_11 
ROOT
HETATM    1  S1  UNL     1      25.992   3.143  50.077  1.00  0.00    -0.133 SA
HETATM    2  C6  UNL     1      26.788   2.483  51.604  1.00  0.00     0.084 C 
HETATM    3  C7  UNL     1      25.888   1.283  51.708  1.00  0.00     0.071 C 
HETATM    4  C8  UNL     1      24.517   1.668  51.394  1.00  0.00     0.052 C 
HETATM    5  N1  UNL     1      24.414   2.642  50.542  1.00  0.00    -0.239 NA
HETATM    6  H6  UNL     1      26.412   1.907  48.868  1.00  0.00     0.109 HD
ENDROOT
BRANCH   1   7
HETATM    7  C5  UNL     1      26.435   4.628  49.505  1.00  0.00    -0.001 A 
HETATM    8  C4  UNL     1      25.780   5.826  49.700  1.00  0.00     0.021 A 
HETATM    9  C3  UNL     1      26.204   7.029  49.194  1.00  0.00     0.038 A 
HETATM   10  C2  UNL     1      27.354   7.103  48.435  1.00  0.00     0.068 A 
HETATM   11  C18 UNL     1      28.046   5.942  48.209  1.00  0.00     0.038 A 
HETATM   12  C17 UNL     1      27.580   4.752  48.739  1.00  0.00     0.021 A 
BRANCH  10  13
HETATM   13  O1  UNL     1      27.690   8.348  47.978  1.00  0.00    -0.356 OA
HETATM   14  C1  UNL     1      28.108   9.328  48.899  1.00  0.00     0.210 C 
ENDBRANCH  10  13
ENDBRANCH   1   7
BRANCH   4  15
HETATM   15  C9  UNL     1      23.320   1.045  51.959  1.00  0.00    -0.010 A 
HETATM   16  C10 UNL     1      22.101   1.125  51.320  1.00  0.00     0.014 A 
HETATM   17  C11 UNL     1      20.929   0.564  51.790  1.00  0.00     0.008 A 
HETATM   18  C12 UNL     1      20.962  -0.130  52.981  1.00  0.00    -0.056 A 
HETATM   19  C13 UNL     1      19.708  -0.741  53.502  1.00  0.00     0.049 C 
HETATM   20  C14 UNL     1      22.157  -0.239  53.659  1.00  0.00    -0.055 A 
HETATM   21  C15 UNL     1      22.166  -0.993  54.941  1.00  0.00     0.049 C 
HETATM   22  C16 UNL     1      23.293   0.341  53.141  1.00  0.00     0.020 A 
ENDBRANCH   4  15
TORSDOF 3
ENDMDL
MODEL 6
REMARK VINA RESULT:      -7.7      5.287      8.965
REMARK  3 active torsions:
REMARK  status: ('A' for Active; 'I' for Inactive)
REMARK    1  A    between atoms: O1_2  and  C2_3 
REMARK    2  A    between atoms: C5_6  and  S1_7 
REMARK    3  A    between atoms: C8_10  and  C9_11 
ROOT
HETATM    1  S1  UNL     1      24.065   1.601  52.738  1.00  0.00    -0.133 SA
HETATM    2  C6  UNL     1      23.536   2.191  51.073  1.00  0.00     0.084 C 
HETATM    3  C7  UNL     1      22.073   2.245  51.416  1.00  0.00     0.071 C 
HETATM    4  C8  UNL     1      21.712   1.079  52.214  1.00  0.00     0.052 C 
HETATM    5  N1  UNL     1      22.668   0.626  52.966  1.00  0.00    -0.239 NA
HETATM    6  H6  UNL     1      23.690   3.000  53.771  1.00  0.00     0.109 HD
ENDROOT
BRANCH   1   7
HETATM    7  C5  UNL     1      25.638   1.157  52.982  1.00  0.00    -0.001 A 
HETATM    8  C4  UNL     1      26.172  -0.110  52.882  1.00  0.00     0.021 A 
HETATM    9  C3  UNL     1      27.493  -0.410  53.099  1.00  0.00     0.038 A 
HETATM   10  C2  UNL     1      28.389   0.581  53.443  1.00  0.00     0.068 A 
HETATM   11  C18 UNL     1      27.913   1.861  53.556  1.00  0.00     0.038 A 
HETATM   12  C17 UNL     1      26.573   2.117  53.329  1.00  0.00     0.021 A 
BRANCH  10  13
HETATM   13  O1  UNL     1      29.682   0.179  53.637  1.00  0.00    -0.356 OA
HETATM   14  C1  UNL     1      29.989  -1.195  53.587  1.00  0.00     0.210 C 
ENDBRANCH  10  13
ENDBRANCH   1   7
BRANCH   4  15
HETATM   15  C9  UNL     1      20.399   0.433  52.209  1.00  0.00    -0.010 A 
HETATM   16  C10 UNL     1      19.974  -0.332  53.274  1.00  0.00     0.014 A 
HETATM   17  C11 UNL     1      18.751  -0.971  53.344  1.00  0.00     0.008 A 
HETATM   18  C12 UNL     1      17.881  -0.847  52.281  1.00  0.00    -0.056 A 
HETATM   19  C13 UNL     1      16.559  -1.529  52.338  1.00  0.00     0.049 C 
HETATM   20  C14 UNL     1      18.260  -0.093  51.191  1.00  0.00    -0.055 A 
HETATM   21  C15 UNL     1      17.305   0.026  50.058  1.00  0.00     0.049 C 
HETATM   22  C16 UNL     1      19.491   0.522  51.179  1.00  0.00     0.020 A 
ENDBRANCH   4  15
TORSDOF 3
ENDMDL
MODEL 7
REMARK VINA RESULT:      -7.7      5.487      7.337
REMARK  3 active torsions:
REMARK  status: ('A' for Active; 'I' for Inactive)
REMARK    1  A    between atoms: O1_2  and  C2_3 
REMARK    2  A    between atoms: C5_6  and  S1_7 
REMARK    3  A    between atoms: C8_10  and  C9_11 
ROOT
HETATM    1  S1  UNL     1      21.944   0.928  51.705  1.00  0.00    -0.133 SA
HETATM    2  C6  UNL     1      22.391   2.587  52.377  1.00  0.00     0.084 C 
HETATM    3  C7  UNL     1      23.840   2.497  51.984  1.00  0.00     0.071 C 
HETATM    4  C8  UNL     1      24.340   1.154  52.252  1.00  0.00     0.052 C 
HETATM    5  N1  UNL     1      23.448   0.217  52.143  1.00  0.00    -0.239 NA
HETATM    6  H6  UNL     1      22.160   1.159  49.955  1.00  0.00     0.109 HD
ENDROOT
BRANCH   1   7
HETATM    7  C5  UNL     1      20.436   0.316  51.987  1.00  0.00    -0.001 A 
HETATM    8  C4  UNL     1      19.334   0.403  51.164  1.00  0.00     0.021 A 
HETATM    9  C3  UNL     1      18.104  -0.130  51.461  1.00  0.00     0.038 A 
HETATM   10  C2  UNL     1      17.903  -0.808  52.646  1.00  0.00     0.068 A 
HETATM   11  C18 UNL     1      18.966  -0.925  53.503  1.00  0.00     0.038 A 
HETATM   12  C17 UNL     1      20.187  -0.371  53.162  1.00  0.00     0.021 A 
BRANCH  10  13
HETATM   13  O1  UNL     1      16.643  -1.301  52.847  1.00  0.00    -0.356 OA
HETATM   14  C1  UNL     1      15.624  -0.978  51.930  1.00  0.00     0.210 C 
ENDBRANCH  10  13
ENDBRANCH   1   7
BRANCH   4  15
HETATM   15  C9  UNL     1      25.719   0.829  52.616  1.00  0.00    -0.010 A 
HETATM   16  C10 UNL     1      26.182  -0.469  52.579  1.00  0.00     0.014 A 
HETATM   17  C11 UNL     1      27.468  -0.854  52.907  1.00  0.00     0.008 A 
HETATM   18  C12 UNL     1      28.365   0.115  53.302  1.00  0.00    -0.056 A 
HETATM   19  C13 UNL     1      29.755  -0.281  53.659  1.00  0.00     0.049 C 
HETATM   20  C14 UNL     1      27.951   1.429  53.354  1.00  0.00    -0.055 A 
HETATM   21  C15 UNL     1      28.938   2.456  53.783  1.00  0.00     0.049 C 
HETATM   22  C16 UNL     1      26.657   1.753  53.015  1.00  0.00     0.020 A 
ENDBRANCH   4  15
TORSDOF 3
ENDMDL
MODEL 8
REMARK VINA RESULT:      -7.6      1.451      2.411
REMARK  3 active torsions:
REMARK  status: ('A' for Active; 'I' for Inactive)
REMARK    1  A    between atoms: O1_2  and  C2_3 
REMARK    2  A    between atoms: C5_6  and  S1_7 
REMARK    3  A    between atoms: C8_10  and  C9_11 
ROOT
HETATM    1  S1  UNL     1      24.062   3.041  50.303  1.00  0.00    -0.133 SA
HETATM    2  C6  UNL     1      23.458   4.755  50.615  1.00  0.00     0.084 C 
HETATM    3  C7  UNL     1      24.144   5.352  49.418  1.00  0.00     0.071 C 
HETATM    4  C8  UNL     1      25.480   4.783  49.283  1.00  0.00     0.052 C 
HETATM    5  N1  UNL     1      25.590   3.562  49.710  1.00  0.00    -0.239 NA
HETATM    6  H6  UNL     1      23.225   2.614  48.792  1.00  0.00     0.109 HD
ENDROOT
BRANCH   1   7
HETATM    7  C5  UNL     1      23.782   1.862  51.426  1.00  0.00    -0.001 A 
HETATM    8  C4  UNL     1      24.656   1.401  52.386  1.00  0.00     0.021 A 
HETATM    9  C3  UNL     1      24.358   0.413  53.292  1.00  0.00     0.038 A 
HETATM   10  C2  UNL     1      23.117  -0.191  53.286  1.00  0.00     0.068 A 
HETATM   11  C18 UNL     1      22.207   0.229  52.351  1.00  0.00     0.038 A 
HETATM   12  C17 UNL     1      22.553   1.227  51.458  1.00  0.00     0.021 A 
BRANCH  10  13
HETATM   13  O1  UNL     1      22.920  -1.162  54.228  1.00  0.00    -0.356 OA
HETATM   14  C1  UNL     1      21.604  -1.512  54.590  1.00  0.00     0.210 C 
ENDBRANCH  10  13
ENDBRANCH   1   7
BRANCH   4  15
HETATM   15  C9  UNL     1      26.636   5.481  48.721  1.00  0.00    -0.010 A 
HETATM   16  C10 UNL     1      27.878   4.884  48.671  1.00  0.00     0.014 A 
HETATM   17  C11 UNL     1      29.015   5.477  48.155  1.00  0.00     0.008 A 
HETATM   18  C12 UNL     1      28.919   6.757  47.651  1.00  0.00    -0.056 A 
HETATM   19  C13 UNL     1      30.134   7.412  47.091  1.00  0.00     0.049 C 
HETATM   20  C14 UNL     1      27.699   7.397  47.677  1.00  0.00    -0.055 A 
HETATM   21  C15 UNL     1      27.621   8.776  47.127  1.00  0.00     0.049 C 
HETATM   22  C16 UNL     1      26.600   6.755  48.203  1.00  0.00     0.020 A 
ENDBRANCH   4  15
TORSDOF 3
ENDMDL
MODEL 9
REMARK VINA RESULT:      -7.5      5.570      9.688
REMARK  3 active torsions:
REMARK  status: ('A' for Active; 'I' for Inactive)
REMARK    1  A    between atoms: O1_2  and  C2_3 
REMARK    2  A    between atoms: C5_6  and  S1_7 
REMARK    3  A    between atoms: C8_10  and  C9_11 
ROOT
HETATM    1  S1  UNL     1      23.077  -0.593  53.490  1.00  0.00    -0.133 SA
HETATM    2  C6  UNL     1      22.132  -1.067  55.002  1.00  0.00     0.084 C 
HETATM    3  C7  UNL     1      20.948  -1.605  54.249  1.00  0.00     0.071 C 
HETATM    4  C8  UNL     1      20.640  -0.729  53.124  1.00  0.00     0.052 C 
HETATM    5  N1  UNL     1      21.671  -0.124  52.618  1.00  0.00    -0.239 NA
HETATM    6  H6  UNL     1      23.435  -2.175  52.758  1.00  0.00     0.109 HD
ENDROOT
BRANCH   1   7
HETATM    7  C5  UNL     1      24.483   0.261  53.643  1.00  0.00    -0.001 A 
HETATM    8  C4  UNL     1      25.652  -0.158  54.240  1.00  0.00     0.021 A 
HETATM    9  C3  UNL     1      26.788   0.606  54.333  1.00  0.00     0.038 A 
HETATM   10  C2  UNL     1      26.818   1.883  53.813  1.00  0.00     0.068 A 
HETATM   11  C18 UNL     1      25.681   2.352  53.207  1.00  0.00     0.038 A 
HETATM   12  C17 UNL     1      24.559   1.547  53.137  1.00  0.00     0.021 A 
BRANCH  10  13
HETATM   13  O1  UNL     1      27.997   2.562  53.957  1.00  0.00    -0.356 OA
HETATM   14  C1  UNL     1      29.200   1.836  54.057  1.00  0.00     0.210 C 
ENDBRANCH  10  13
ENDBRANCH   1   7
BRANCH   4  15
HETATM   15  C9  UNL     1      19.304  -0.512  52.570  1.00  0.00    -0.010 A 
HETATM   16  C10 UNL     1      18.183  -1.033  53.180  1.00  0.00     0.014 A 
HETATM   17  C11 UNL     1      16.891  -0.871  52.719  1.00  0.00     0.008 A 
HETATM   18  C12 UNL     1      16.689  -0.138  51.569  1.00  0.00    -0.056 A 
HETATM   19  C13 UNL     1      15.303   0.047  51.057  1.00  0.00     0.049 C 
HETATM   20  C14 UNL     1      17.778   0.405  50.922  1.00  0.00    -0.055 A 
HETATM   21  C15 UNL     1      17.534   1.191  49.683  1.00  0.00     0.049 C 
HETATM   22  C16 UNL     1      19.042   0.210  51.429  1.00  0.00     0.020 A 
ENDBRANCH   4  15
TORSDOF 3
ENDMDL
