MODEL 1
REMARK VINA RESULT:      -6.5      0.000      0.000
REMARK  10 active torsions:
REMARK  status: ('A' for Active; 'I' for Inactive)
REMARK    1  A    between atoms: N1_2  and  C3_4 
REMARK    2  A    between atoms: C3_4  and  C4_5 
REMARK    3  A    between atoms: C4_5  and  C5_6 
REMARK    4  A    between atoms: C5_6  and  C6_7 
REMARK    5  A    between atoms: C6_7  and  C7_8 
REMARK    6  A    between atoms: C6_7  and  N3_19 
REMARK    7  A    between atoms: C7_8  and  C8_9 
REMARK    8  A    between atoms: C9_10  and  N2_11 
REMARK    9  A    between atoms: N2_11  and  C10_12 
REMARK   10  A    between atoms: C16_20  and  C17_21 
ROOT
HETATM    1  C17 UNL     1      27.286  -0.613  53.159  1.00  0.00     0.170 C 
HETATM    2  C18 UNL     1      27.944   0.221  54.178  1.00  0.00     0.064 C 
HETATM    3  N4  UNL     1      28.463   0.883  54.978  1.00  0.00    -0.197 NA
ENDROOT
BRANCH   1   4
HETATM    4  C16 UNL     1      25.862  -0.228  52.992  1.00  0.00     0.104 C 
HETATM    5  N3  UNL     1      25.038  -0.688  53.872  1.00  0.00    -0.269 NA
BRANCH   5   6
HETATM    6  C6  UNL     1      23.661  -0.312  53.705  1.00  0.00     0.034 C 
BRANCH   6   7
HETATM    7  C5  UNL     1      22.623  -0.807  54.645  1.00  0.00     0.061 C 
BRANCH   7   8
HETATM    8  C4  UNL     1      21.318  -0.112  54.356  1.00  0.00     0.036 C 
BRANCH   8   9
HETATM    9  C3  UNL     1      20.286  -1.105  53.851  1.00  0.00     0.271 C 
BRANCH   9  10
HETATM   10  N1  UNL     1      19.298  -0.349  53.127  1.00  0.00     0.080 N 
HETATM   11  C1  UNL     1      18.053  -1.016  52.962  1.00  0.00     0.309 C 
HETATM   12  C2  UNL     1      19.827   0.297  51.953  1.00  0.00     0.309 C 
ENDBRANCH   9  10
ENDBRANCH   8   9
ENDBRANCH   7   8
ENDBRANCH   6   7
BRANCH   6  13
HETATM   13  C7  UNL     1      23.569   0.474  52.651  1.00  0.00     0.028 C 
BRANCH  13  14
HETATM   14  C8  UNL     1      23.431   1.590  51.736  1.00  0.00     0.019 C 
HETATM   15  C9  UNL     1      23.039   1.930  50.519  1.00  0.00     0.088 C 
BRANCH  15  16
HETATM   16  N2  UNL     1      23.259   3.314  50.430  1.00  0.00    -0.366 N 
HETATM   17  H16 UNL     1      22.437   3.817  50.801  1.00  0.00     0.165 HD
BRANCH  16  18
HETATM   18  C10 UNL     1      24.426   3.935  49.912  1.00  0.00     0.033 A 
HETATM   19  C11 UNL     1      25.586   3.202  49.961  1.00  0.00     0.029 A 
HETATM   20  C12 UNL     1      26.768   3.748  49.472  1.00  0.00     0.004 A 
HETATM   21  C13 UNL     1      26.710   5.031  48.950  1.00  0.00     0.019 A 
HETATM   22  C14 UNL     1      25.530   5.747  48.914  1.00  0.00     0.013 A 
HETATM   23 BR1  UNL     1      25.587   7.510  48.167  1.00  0.00    -0.051 Br
HETATM   24  C15 UNL     1      24.348   5.202  49.403  1.00  0.00     0.048 A 
ENDBRANCH  16  18
ENDBRANCH  15  16
ENDBRANCH  13  14
ENDBRANCH   6  13
ENDBRANCH   5   6
ENDBRANCH   1   4
TORSDOF 10
ENDMDL
MODEL 2
REMARK VINA RESULT:      -6.3      3.371      7.461
REMARK  10 active torsions:
REMARK  status: ('A' for Active; 'I' for Inactive)
REMARK    1  A    between atoms: N1_2  and  C3_4 
REMARK    2  A    between atoms: C3_4  and  C4_5 
REMARK    3  A    between atoms: C4_5  and  C5_6 
REMARK    4  A    between atoms: C5_6  and  C6_7 
REMARK    5  A    between atoms: C6_7  and  C7_8 
REMARK    6  A    between atoms: C6_7  and  N3_19 
REMARK    7  A    between atoms: C7_8  and  C8_9 
REMARK    8  A    between atoms: C9_10  and  N2_11 
REMARK    9  A    between atoms: N2_11  and  C10_12 
REMARK   10  A    between atoms: C16_20  and  C17_21 
ROOT
HETATM    1  C17 UNL     1      26.583   4.936  49.062  1.00  0.00     0.170 C 
HETATM    2  C18 UNL     1      27.970   5.073  48.591  1.00  0.00     0.064 C 
HETATM    3  N4  UNL     1      29.067   5.180  48.225  1.00  0.00    -0.197 NA
ENDROOT
BRANCH   1   4
HETATM    4  C16 UNL     1      26.340   3.583  49.624  1.00  0.00     0.104 C 
HETATM    5  N3  UNL     1      25.789   3.538  50.790  1.00  0.00    -0.269 NA
BRANCH   5   6
HETATM    6  C6  UNL     1      25.558   2.227  51.328  1.00  0.00     0.034 C 
BRANCH   6   7
HETATM    7  C5  UNL     1      26.687   1.411  51.844  1.00  0.00     0.061 C 
BRANCH   7   8
HETATM    8  C4  UNL     1      26.180   0.047  52.233  1.00  0.00     0.036 C 
BRANCH   8   9
HETATM    9  C3  UNL     1      26.604  -0.294  53.651  1.00  0.00     0.271 C 
BRANCH   9  10
HETATM   10  N1  UNL     1      28.043  -0.291  53.668  1.00  0.00     0.080 N 
HETATM   11  C1  UNL     1      28.638  -1.470  53.141  1.00  0.00     0.309 C 
HETATM   12  C2  UNL     1      28.594   0.193  54.908  1.00  0.00     0.309 C 
ENDBRANCH   9  10
ENDBRANCH   8   9
ENDBRANCH   7   8
ENDBRANCH   6   7
BRANCH   6  13
HETATM   13  C7  UNL     1      24.267   1.968  51.256  1.00  0.00     0.028 C 
BRANCH  13  14
HETATM   14  C8  UNL     1      22.838   1.876  51.472  1.00  0.00     0.019 C 
HETATM   15  C9  UNL     1      21.850   2.265  52.262  1.00  0.00     0.088 C 
BRANCH  15  16
HETATM   16  N2  UNL     1      20.691   1.685  51.723  1.00  0.00    -0.366 N 
HETATM   17  H16 UNL     1      20.439   2.171  50.847  1.00  0.00     0.165 HD
BRANCH  16  18
HETATM   18  C10 UNL     1      19.969   0.599  52.287  1.00  0.00     0.033 A 
HETATM   19  C11 UNL     1      20.628  -0.156  53.225  1.00  0.00     0.029 A 
HETATM   20  C12 UNL     1      19.982  -1.236  53.818  1.00  0.00     0.004 A 
HETATM   21  C13 UNL     1      18.680  -1.497  53.421  1.00  0.00     0.019 A 
HETATM   22  C14 UNL     1      18.040  -0.721  52.474  1.00  0.00     0.013 A 
HETATM   23 BR1  UNL     1      16.241  -1.190  52.015  1.00  0.00    -0.051 Br
HETATM   24  C15 UNL     1      18.685   0.358  51.880  1.00  0.00     0.048 A 
ENDBRANCH  16  18
ENDBRANCH  15  16
ENDBRANCH  13  14
ENDBRANCH   6  13
ENDBRANCH   5   6
ENDBRANCH   1   4
TORSDOF 10
ENDMDL
MODEL 3
REMARK VINA RESULT:      -6.2      1.890      5.532
REMARK  10 active torsions:
REMARK  status: ('A' for Active; 'I' for Inactive)
REMARK    1  A    between atoms: N1_2  and  C3_4 
REMARK    2  A    between atoms: C3_4  and  C4_5 
REMARK    3  A    between atoms: C4_5  and  C5_6 
REMARK    4  A    between atoms: C5_6  and  C6_7 
REMARK    5  A    between atoms: C6_7  and  C7_8 
REMARK    6  A    between atoms: C6_7  and  N3_19 
REMARK    7  A    between atoms: C7_8  and  C8_9 
REMARK    8  A    between atoms: C9_10  and  N2_11 
REMARK    9  A    between atoms: N2_11  and  C10_12 
REMARK   10  A    between atoms: C16_20  and  C17_21 
ROOT
HETATM    1  C17 UNL     1      21.245  -1.255  54.537  1.00  0.00     0.170 C 
HETATM    2  C18 UNL     1      20.408  -0.582  53.531  1.00  0.00     0.064 C 
HETATM    3  N4  UNL     1      19.748  -0.045  52.741  1.00  0.00    -0.197 NA
ENDROOT
BRANCH   1   4
HETATM    4  C16 UNL     1      22.619  -0.693  54.552  1.00  0.00     0.104 C 
HETATM    5  N3  UNL     1      23.148  -0.446  53.401  1.00  0.00    -0.269 NA
BRANCH   5   6
HETATM    6  C6  UNL     1      24.478   0.098  53.422  1.00  0.00     0.034 C 
BRANCH   6   7
HETATM    7  C5  UNL     1      25.531  -0.515  54.272  1.00  0.00     0.061 C 
BRANCH   7   8
HETATM    8  C4  UNL     1      26.523   0.545  54.678  1.00  0.00     0.036 C 
BRANCH   8   9
HETATM    9  C3  UNL     1      27.889  -0.070  54.922  1.00  0.00     0.271 C 
BRANCH   9  10
HETATM   10  N1  UNL     1      28.852   0.778  54.269  1.00  0.00     0.080 N 
HETATM   11  C1  UNL     1      28.285   1.886  53.580  1.00  0.00     0.309 C 
HETATM   12  C2  UNL     1      29.864   0.042  53.555  1.00  0.00     0.309 C 
ENDBRANCH   9  10
ENDBRANCH   8   9
ENDBRANCH   7   8
ENDBRANCH   6   7
BRANCH   6  13
HETATM   13  C7  UNL     1      24.518   1.135  52.610  1.00  0.00     0.028 C 
BRANCH  13  14
HETATM   14  C8  UNL     1      24.809   2.387  51.941  1.00  0.00     0.019 C 
HETATM   15  C9  UNL     1      25.593   2.959  51.042  1.00  0.00     0.088 C 
BRANCH  15  16
HETATM   16  N2  UNL     1      25.181   4.300  50.987  1.00  0.00    -0.366 N 
HETATM   17  H16 UNL     1      25.767   4.866  51.622  1.00  0.00     0.165 HD
BRANCH  16  18
HETATM   18  C10 UNL     1      24.124   4.810  50.187  1.00  0.00     0.033 A 
HETATM   19  C11 UNL     1      23.962   4.242  48.947  1.00  0.00     0.029 A 
HETATM   20  C12 UNL     1      22.947   4.693  48.110  1.00  0.00     0.004 A 
HETATM   21  C13 UNL     1      22.137   5.714  48.581  1.00  0.00     0.019 A 
HETATM   22  C14 UNL     1      22.322   6.268  49.833  1.00  0.00     0.013 A 
HETATM   23 BR1  UNL     1      21.132   7.672  50.363  1.00  0.00    -0.051 Br
HETATM   24  C15 UNL     1      23.336   5.818  50.671  1.00  0.00     0.048 A 
ENDBRANCH  16  18
ENDBRANCH  15  16
ENDBRANCH  13  14
ENDBRANCH   6  13
ENDBRANCH   5   6
ENDBRANCH   1   4
TORSDOF 10
ENDMDL
MODEL 4
REMARK VINA RESULT:      -6.1      2.033      5.531
REMARK  10 active torsions:
REMARK  status: ('A' for Active; 'I' for Inactive)
REMARK    1  A    between atoms: N1_2  and  C3_4 
REMARK    2  A    between atoms: C3_4  and  C4_5 
REMARK    3  A    between atoms: C4_5  and  C5_6 
REMARK    4  A    between atoms: C5_6  and  C6_7 
REMARK    5  A    between atoms: C6_7  and  C7_8 
REMARK    6  A    between atoms: C6_7  and  N3_19 
REMARK    7  A    between atoms: C7_8  and  C8_9 
REMARK    8  A    between atoms: C9_10  and  N2_11 
REMARK    9  A    between atoms: N2_11  and  C10_12 
REMARK   10  A    between atoms: C16_20  and  C17_21 
ROOT
HETATM    1  C17 UNL     1      20.857   0.924  52.922  1.00  0.00     0.170 C 
HETATM    2  C18 UNL     1      20.413   2.305  52.672  1.00  0.00     0.064 C 
HETATM    3  N4  UNL     1      20.065   3.396  52.480  1.00  0.00    -0.197 NA
ENDROOT
BRANCH   1   4
HETATM    4  C16 UNL     1      22.316   0.872  53.192  1.00  0.00     0.104 C 
HETATM    5  N3  UNL     1      23.086   0.797  52.160  1.00  0.00    -0.269 NA
BRANCH   5   6
HETATM    6  C6  UNL     1      24.497   0.746  52.427  1.00  0.00     0.034 C 
BRANCH   6   7
HETATM    7  C5  UNL     1      25.077  -0.373  53.213  1.00  0.00     0.061 C 
BRANCH   7   8
HETATM    8  C4  UNL     1      26.456  -0.684  52.692  1.00  0.00     0.036 C 
BRANCH   8   9
HETATM    9  C3  UNL     1      27.489  -0.527  53.793  1.00  0.00     0.271 C 
BRANCH   9  10
HETATM   10  N1  UNL     1      28.571   0.247  53.243  1.00  0.00     0.080 N 
HETATM   11  C1  UNL     1      29.867  -0.232  53.582  1.00  0.00     0.309 C 
HETATM   12  C2  UNL     1      28.372   1.669  53.367  1.00  0.00     0.309 C 
ENDBRANCH   9  10
ENDBRANCH   8   9
ENDBRANCH   7   8
ENDBRANCH   6   7
BRANCH   6  13
HETATM   13  C7  UNL     1      25.064   1.801  51.876  1.00  0.00     0.028 C 
BRANCH  13  14
HETATM   14  C8  UNL     1      25.355   3.075  51.251  1.00  0.00     0.019 C 
HETATM   15  C9  UNL     1      26.048   3.658  50.287  1.00  0.00     0.088 C 
BRANCH  15  16
HETATM   16  N2  UNL     1      25.736   5.023  50.375  1.00  0.00    -0.366 N 
HETATM   17  H16 UNL     1      25.541   5.268  51.360  1.00  0.00     0.165 HD
BRANCH  16  18
HETATM   18  C10 UNL     1      25.693   5.935  49.287  1.00  0.00     0.033 A 
HETATM   19  C11 UNL     1      26.896   6.446  48.865  1.00  0.00     0.029 A 
HETATM   20  C12 UNL     1      26.929   7.346  47.805  1.00  0.00     0.004 A 
HETATM   21  C13 UNL     1      25.719   7.686  47.219  1.00  0.00     0.019 A 
HETATM   22  C14 UNL     1      24.523   7.158  47.664  1.00  0.00     0.013 A 
HETATM   23 BR1  UNL     1      22.924   7.710  46.767  1.00  0.00    -0.051 Br
HETATM   24  C15 UNL     1      24.489   6.259  48.724  1.00  0.00     0.048 A 
ENDBRANCH  16  18
ENDBRANCH  15  16
ENDBRANCH  13  14
ENDBRANCH   6  13
ENDBRANCH   5   6
ENDBRANCH   1   4
TORSDOF 10
ENDMDL
MODEL 5
REMARK VINA RESULT:      -6.1      1.871      2.961
REMARK  10 active torsions:
REMARK  status: ('A' for Active; 'I' for Inactive)
REMARK    1  A    between atoms: N1_2  and  C3_4 
REMARK    2  A    between atoms: C3_4  and  C4_5 
REMARK    3  A    between atoms: C4_5  and  C5_6 
REMARK    4  A    between atoms: C5_6  and  C6_7 
REMARK    5  A    between atoms: C6_7  and  C7_8 
REMARK    6  A    between atoms: C6_7  and  N3_19 
REMARK    7  A    between atoms: C7_8  and  C8_9 
REMARK    8  A    between atoms: C9_10  and  N2_11 
REMARK    9  A    between atoms: N2_11  and  C10_12 
REMARK   10  A    between atoms: C16_20  and  C17_21 
ROOT
HETATM    1  C17 UNL     1      29.169  -0.223  53.803  1.00  0.00     0.170 C 
HETATM    2  C18 UNL     1      29.341   1.083  54.460  1.00  0.00     0.064 C 
HETATM    3  N4  UNL     1      29.478   2.115  54.974  1.00  0.00    -0.197 NA
ENDROOT
BRANCH   1   4
HETATM    4  C16 UNL     1      27.966  -0.228  52.932  1.00  0.00     0.104 C 
HETATM    5  N3  UNL     1      26.998   0.547  53.289  1.00  0.00    -0.269 NA
BRANCH   5   6
HETATM    6  C6  UNL     1      25.837   0.537  52.443  1.00  0.00     0.034 C 
BRANCH   6   7
HETATM    7  C5  UNL     1      24.759  -0.463  52.652  1.00  0.00     0.061 C 
BRANCH   7   8
HETATM    8  C4  UNL     1      23.836   0.020  53.741  1.00  0.00     0.036 C 
BRANCH   8   9
HETATM    9  C3  UNL     1      22.801   0.977  53.176  1.00  0.00     0.271 C 
BRANCH   9  10
HETATM   10  N1  UNL     1      21.601   0.213  52.958  1.00  0.00     0.080 N 
HETATM   11  C1  UNL     1      21.065   0.324  51.645  1.00  0.00     0.309 C 
HETATM   12  C2  UNL     1      20.652   0.325  54.036  1.00  0.00     0.309 C 
ENDBRANCH   9  10
ENDBRANCH   8   9
ENDBRANCH   7   8
ENDBRANCH   6   7
BRANCH   6  13
HETATM   13  C7  UNL     1      25.958   1.506  51.558  1.00  0.00     0.028 C 
BRANCH  13  14
HETATM   14  C8  UNL     1      25.927   2.760  50.832  1.00  0.00     0.019 C 
HETATM   15  C9  UNL     1      26.581   3.502  49.954  1.00  0.00     0.088 C 
BRANCH  15  16
HETATM   16  N2  UNL     1      25.803   4.658  49.787  1.00  0.00    -0.366 N 
HETATM   17  H16 UNL     1      24.973   4.605  50.401  1.00  0.00     0.165 HD
BRANCH  16  18
HETATM   18  C10 UNL     1      26.099   5.738  48.914  1.00  0.00     0.033 A 
HETATM   19  C11 UNL     1      25.033   6.482  48.472  1.00  0.00     0.029 A 
HETATM   20  C12 UNL     1      25.249   7.555  47.614  1.00  0.00     0.004 A 
HETATM   21  C13 UNL     1      26.559   7.821  47.243  1.00  0.00     0.019 A 
HETATM   22  C14 UNL     1      27.613   7.056  47.702  1.00  0.00     0.013 A 
HETATM   23 BR1  UNL     1      29.372   7.531  47.114  1.00  0.00    -0.051 Br
HETATM   24  C15 UNL     1      27.398   5.983  48.560  1.00  0.00     0.048 A 
ENDBRANCH  16  18
ENDBRANCH  15  16
ENDBRANCH  13  14
ENDBRANCH   6  13
ENDBRANCH   5   6
ENDBRANCH   1   4
TORSDOF 10
ENDMDL
MODEL 6
REMARK VINA RESULT:      -6.1      2.183      2.632
REMARK  10 active torsions:
REMARK  status: ('A' for Active; 'I' for Inactive)
REMARK    1  A    between atoms: N1_2  and  C3_4 
REMARK    2  A    between atoms: C3_4  and  C4_5 
REMARK    3  A    between atoms: C4_5  and  C5_6 
REMARK    4  A    between atoms: C5_6  and  C6_7 
REMARK    5  A    between atoms: C6_7  and  C7_8 
REMARK    6  A    between atoms: C6_7  and  N3_19 
REMARK    7  A    between atoms: C7_8  and  C8_9 
REMARK    8  A    between atoms: C9_10  and  N2_11 
REMARK    9  A    between atoms: N2_11  and  C10_12 
REMARK   10  A    between atoms: C16_20  and  C17_21 
ROOT
HETATM    1  C17 UNL     1      27.804   0.401  53.460  1.00  0.00     0.170 C 
HETATM    2  C18 UNL     1      28.672   1.341  54.187  1.00  0.00     0.064 C 
HETATM    3  N4  UNL     1      29.356   2.087  54.756  1.00  0.00    -0.197 NA
ENDROOT
BRANCH   1   4
HETATM    4  C16 UNL     1      26.371   0.749  53.641  1.00  0.00     0.104 C 
HETATM    5  N3  UNL     1      25.522   0.030  52.988  1.00  0.00    -0.269 NA
BRANCH   5   6
HETATM    6  C6  UNL     1      24.138   0.371  53.167  1.00  0.00     0.034 C 
BRANCH   6   7
HETATM    7  C5  UNL     1      23.130  -0.684  53.444  1.00  0.00     0.061 C 
BRANCH   7   8
HETATM    8  C4  UNL     1      21.753  -0.149  53.143  1.00  0.00     0.036 C 
BRANCH   8   9
HETATM    9  C3  UNL     1      20.700  -0.928  53.910  1.00  0.00     0.271 C 
BRANCH   9  10
HETATM   10  N1  UNL     1      19.421  -0.540  53.375  1.00  0.00     0.080 N 
HETATM   11  C1  UNL     1      18.431  -1.559  53.422  1.00  0.00     0.309 C 
HETATM   12  C2  UNL     1      19.522   0.184  52.132  1.00  0.00     0.309 C 
ENDBRANCH   9  10
ENDBRANCH   8   9
ENDBRANCH   7   8
ENDBRANCH   6   7
BRANCH   6  13
HETATM   13  C7  UNL     1      24.010   1.677  53.038  1.00  0.00     0.028 C 
BRANCH  13  14
HETATM   14  C8  UNL     1      24.023   3.053  52.585  1.00  0.00     0.019 C 
HETATM   15  C9  UNL     1      23.252   4.077  52.259  1.00  0.00     0.088 C 
BRANCH  15  16
HETATM   16  N2  UNL     1      24.133   5.111  51.906  1.00  0.00    -0.366 N 
HETATM   17  H16 UNL     1      25.075   4.901  52.276  1.00  0.00     0.165 HD
BRANCH  16  18
HETATM   18  C10 UNL     1      23.795   6.269  51.157  1.00  0.00     0.033 A 
HETATM   19  C11 UNL     1      24.840   7.026  50.689  1.00  0.00     0.029 A 
HETATM   20  C12 UNL     1      24.583   8.174  49.948  1.00  0.00     0.004 A 
HETATM   21  C13 UNL     1      23.255   8.501  49.717  1.00  0.00     0.019 A 
HETATM   22  C14 UNL     1      22.222   7.722  50.201  1.00  0.00     0.013 A 
HETATM   23 BR1  UNL     1      20.433   8.284  49.811  1.00  0.00    -0.051 Br
HETATM   24  C15 UNL     1      22.479   6.573  50.942  1.00  0.00     0.048 A 
ENDBRANCH  16  18
ENDBRANCH  15  16
ENDBRANCH  13  14
ENDBRANCH   6  13
ENDBRANCH   5   6
ENDBRANCH   1   4
TORSDOF 10
ENDMDL
MODEL 7
REMARK VINA RESULT:      -6.0      2.520      3.678
REMARK  10 active torsions:
REMARK  status: ('A' for Active; 'I' for Inactive)
REMARK    1  A    between atoms: N1_2  and  C3_4 
REMARK    2  A    between atoms: C3_4  and  C4_5 
REMARK    3  A    between atoms: C4_5  and  C5_6 
REMARK    4  A    between atoms: C5_6  and  C6_7 
REMARK    5  A    between atoms: C6_7  and  C7_8 
REMARK    6  A    between atoms: C6_7  and  N3_19 
REMARK    7  A    between atoms: C7_8  and  C8_9 
REMARK    8  A    between atoms: C9_10  and  N2_11 
REMARK    9  A    between atoms: N2_11  and  C10_12 
REMARK   10  A    between atoms: C16_20  and  C17_21 
ROOT
HETATM    1  C17 UNL     1      26.102  -0.584  53.983  1.00  0.00     0.170 C 
HETATM    2  C18 UNL     1      27.251   0.159  54.526  1.00  0.00     0.064 C 
HETATM    3  N4  UNL     1      28.160   0.744  54.950  1.00  0.00    -0.197 NA
ENDROOT
BRANCH   1   4
HETATM    4  C16 UNL     1      25.540   0.099  52.791  1.00  0.00     0.104 C 
HETATM    5  N3  UNL     1      24.684   1.037  53.020  1.00  0.00    -0.269 NA
BRANCH   5   6
HETATM    6  C6  UNL     1      24.143   1.694  51.863  1.00  0.00     0.034 C 
BRANCH   6   7
HETATM    7  C5  UNL     1      22.689   1.625  51.566  1.00  0.00     0.061 C 
BRANCH   7   8
HETATM    8  C4  UNL     1      22.485   1.632  50.072  1.00  0.00     0.036 C 
BRANCH   8   9
HETATM    9  C3  UNL     1      21.150   1.004  49.714  1.00  0.00     0.271 C 
BRANCH   9  10
HETATM   10  N1  UNL     1      20.627   1.745  48.596  1.00  0.00     0.080 N 
HETATM   11  C1  UNL     1      21.605   2.473  47.866  1.00  0.00     0.309 C 
HETATM   12  C2  UNL     1      19.412   2.456  48.905  1.00  0.00     0.309 C 
ENDBRANCH   9  10
ENDBRANCH   8   9
ENDBRANCH   7   8
ENDBRANCH   6   7
BRANCH   6  13
HETATM   13  C7  UNL     1      25.129   2.288  51.221  1.00  0.00     0.028 C 
BRANCH  13  14
HETATM   14  C8  UNL     1      25.968   3.185  50.452  1.00  0.00     0.019 C 
HETATM   15  C9  UNL     1      25.992   3.981  49.396  1.00  0.00     0.088 C 
BRANCH  15  16
HETATM   16  N2  UNL     1      27.291   4.512  49.357  1.00  0.00    -0.366 N 
HETATM   17  H16 UNL     1      27.905   3.961  49.979  1.00  0.00     0.165 HD
BRANCH  16  18
HETATM   18  C10 UNL     1      27.706   5.631  48.588  1.00  0.00     0.033 A 
HETATM   19  C11 UNL     1      29.021   5.651  48.192  1.00  0.00     0.029 A 
HETATM   20  C12 UNL     1      29.497   6.717  47.436  1.00  0.00     0.004 A 
HETATM   21  C13 UNL     1      28.600   7.724  47.117  1.00  0.00     0.019 A 
HETATM   22  C14 UNL     1      27.282   7.680  47.529  1.00  0.00     0.013 A 
HETATM   23 BR1  UNL     1      26.147   9.136  47.021  1.00  0.00    -0.051 Br
HETATM   24  C15 UNL     1      26.805   6.615  48.285  1.00  0.00     0.048 A 
ENDBRANCH  16  18
ENDBRANCH  15  16
ENDBRANCH  13  14
ENDBRANCH   6  13
ENDBRANCH   5   6
ENDBRANCH   1   4
TORSDOF 10
ENDMDL
MODEL 8
REMARK VINA RESULT:      -6.0      4.812     10.149
REMARK  10 active torsions:
REMARK  status: ('A' for Active; 'I' for Inactive)
REMARK    1  A    between atoms: N1_2  and  C3_4 
REMARK    2  A    between atoms: C3_4  and  C4_5 
REMARK    3  A    between atoms: C4_5  and  C5_6 
REMARK    4  A    between atoms: C5_6  and  C6_7 
REMARK    5  A    between atoms: C6_7  and  C7_8 
REMARK    6  A    between atoms: C6_7  and  N3_19 
REMARK    7  A    between atoms: C7_8  and  C8_9 
REMARK    8  A    between atoms: C9_10  and  N2_11 
REMARK    9  A    between atoms: N2_11  and  C10_12 
REMARK   10  A    between atoms: C16_20  and  C17_21 
ROOT
HETATM    1  C17 UNL     1      25.787   9.343  48.387  1.00  0.00     0.170 C 
HETATM    2  C18 UNL     1      26.360  10.684  48.577  1.00  0.00     0.064 C 
HETATM    3  N4  UNL     1      26.813  11.743  48.734  1.00  0.00    -0.197 NA
ENDROOT
BRANCH   1   4
HETATM    4  C16 UNL     1      26.763   8.287  48.758  1.00  0.00     0.104 C 
HETATM    5  N3  UNL     1      27.129   7.488  47.814  1.00  0.00    -0.269 NA
BRANCH   5   6
HETATM    6  C6  UNL     1      28.073   6.469  48.180  1.00  0.00     0.034 C 
BRANCH   6   7
HETATM    7  C5  UNL     1      29.533   6.701  48.026  1.00  0.00     0.061 C 
BRANCH   7   8
HETATM    8  C4  UNL     1      30.243   5.374  47.962  1.00  0.00     0.036 C 
BRANCH   8   9
HETATM    9  C3  UNL     1      31.689   5.522  48.403  1.00  0.00     0.271 C 
BRANCH   9  10
HETATM   10  N1  UNL     1      32.262   6.577  47.609  1.00  0.00     0.080 N 
HETATM   11  C1  UNL     1      32.810   6.146  46.369  1.00  0.00     0.309 C 
HETATM   12  C2  UNL     1      33.075   7.486  48.375  1.00  0.00     0.309 C 
ENDBRANCH   9  10
ENDBRANCH   8   9
ENDBRANCH   7   8
ENDBRANCH   6   7
BRANCH   6  13
HETATM   13  C7  UNL     1      27.406   5.423  48.624  1.00  0.00     0.028 C 
BRANCH  13  14
HETATM   14  C8  UNL     1      26.678   4.452  49.414  1.00  0.00     0.019 C 
HETATM   15  C9  UNL     1      26.415   3.161  49.544  1.00  0.00     0.088 C 
BRANCH  15  16
HETATM   16  N2  UNL     1      25.555   3.065  50.649  1.00  0.00    -0.366 N 
HETATM   17  H16 UNL     1      25.048   3.957  50.769  1.00  0.00     0.165 HD
BRANCH  16  18
HETATM   18  C10 UNL     1      25.398   1.924  51.480  1.00  0.00     0.033 A 
HETATM   19  C11 UNL     1      26.515   1.149  51.677  1.00  0.00     0.029 A 
HETATM   20  C12 UNL     1      26.434   0.015  52.479  1.00  0.00     0.004 A 
HETATM   21  C13 UNL     1      25.204  -0.278  53.048  1.00  0.00     0.019 A 
HETATM   22  C14 UNL     1      24.097   0.519  52.833  1.00  0.00     0.013 A 
HETATM   23 BR1  UNL     1      22.458   0.002  53.678  1.00  0.00    -0.051 Br
HETATM   24  C15 UNL     1      24.176   1.652  52.031  1.00  0.00     0.048 A 
ENDBRANCH  16  18
ENDBRANCH  15  16
ENDBRANCH  13  14
ENDBRANCH   6  13
ENDBRANCH   5   6
ENDBRANCH   1   4
TORSDOF 10
ENDMDL
MODEL 9
REMARK VINA RESULT:      -6.0      1.969      3.111
REMARK  10 active torsions:
REMARK  status: ('A' for Active; 'I' for Inactive)
REMARK    1  A    between atoms: N1_2  and  C3_4 
REMARK    2  A    between atoms: C3_4  and  C4_5 
REMARK    3  A    between atoms: C4_5  and  C5_6 
REMARK    4  A    between atoms: C5_6  and  C6_7 
REMARK    5  A    between atoms: C6_7  and  C7_8 
REMARK    6  A    between atoms: C6_7  and  N3_19 
REMARK    7  A    between atoms: C7_8  and  C8_9 
REMARK    8  A    between atoms: C9_10  and  N2_11 
REMARK    9  A    between atoms: N2_11  and  C10_12 
REMARK   10  A    between atoms: C16_20  and  C17_21 
ROOT
HETATM    1  C17 UNL     1      25.712  -0.497  53.969  1.00  0.00     0.170 C 
HETATM    2  C18 UNL     1      27.086  -0.183  54.392  1.00  0.00     0.064 C 
HETATM    3  N4  UNL     1      28.173   0.063  54.720  1.00  0.00    -0.197 NA
ENDROOT
BRANCH   1   4
HETATM    4  C16 UNL     1      25.321   0.306  52.783  1.00  0.00     0.104 C 
HETATM    5  N3  UNL     1      24.166   0.880  52.837  1.00  0.00    -0.269 NA
BRANCH   5   6
HETATM    6  C6  UNL     1      23.794   1.656  51.686  1.00  0.00     0.034 C 
BRANCH   6   7
HETATM    7  C5  UNL     1      22.450   1.500  51.074  1.00  0.00     0.061 C 
BRANCH   7   8
HETATM    8  C4  UNL     1      21.432   1.261  52.159  1.00  0.00     0.036 C 
BRANCH   8   9
HETATM    9  C3  UNL     1      21.024  -0.201  52.195  1.00  0.00     0.271 C 
BRANCH   9  10
HETATM   10  N1  UNL     1      20.831  -0.548  53.578  1.00  0.00     0.080 N 
HETATM   11  C1  UNL     1      20.798   0.565  54.463  1.00  0.00     0.309 C 
HETATM   12  C2  UNL     1      21.637  -1.665  54.001  1.00  0.00     0.309 C 
ENDBRANCH   9  10
ENDBRANCH   8   9
ENDBRANCH   7   8
ENDBRANCH   6   7
BRANCH   6  13
HETATM   13  C7  UNL     1      24.808   2.431  51.359  1.00  0.00     0.028 C 
BRANCH  13  14
HETATM   14  C8  UNL     1      25.791   3.247  50.675  1.00  0.00     0.019 C 
HETATM   15  C9  UNL     1      26.513   3.347  49.570  1.00  0.00     0.088 C 
BRANCH  15  16
HETATM   16  N2  UNL     1      27.262   4.525  49.720  1.00  0.00    -0.366 N 
HETATM   17  H16 UNL     1      27.861   4.447  50.559  1.00  0.00     0.165 HD
BRANCH  16  18
HETATM   18  C10 UNL     1      27.213   5.654  48.859  1.00  0.00     0.033 A 
HETATM   19  C11 UNL     1      25.989   6.257  48.707  1.00  0.00     0.029 A 
HETATM   20  C12 UNL     1      25.866   7.367  47.878  1.00  0.00     0.004 A 
HETATM   21  C13 UNL     1      27.011   7.814  47.236  1.00  0.00     0.019 A 
HETATM   22  C14 UNL     1      28.231   7.188  47.408  1.00  0.00     0.013 A 
HETATM   23 BR1  UNL     1      29.734   7.907  46.464  1.00  0.00    -0.051 Br
HETATM   24  C15 UNL     1      28.354   6.078  48.236  1.00  0.00     0.048 A 
ENDBRANCH  16  18
ENDBRANCH  15  16
ENDBRANCH  13  14
ENDBRANCH   6  13
ENDBRANCH   5   6
ENDBRANCH   1   4
TORSDOF 10
ENDMDL
