MODEL 1
REMARK VINA RESULT:      -8.4      0.000      0.000
REMARK  2 active torsions:
REMARK  status: ('A' for Active; 'I' for Inactive)
REMARK    1  A    between atoms: O1_2  and  C2_3 
REMARK    2  A    between atoms: C9_12  and  O2_13 
ROOT
HETATM    1  C2  UNL     1      25.554   2.557  51.171  1.00  0.00     0.104 A 
HETATM    2  C3  UNL     1      26.833   2.439  51.670  1.00  0.00     0.072 A 
HETATM    3  C4  UNL     1      27.152   1.489  52.625  1.00  0.00     0.075 A 
HETATM    4  N1  UNL     1      28.444   1.521  52.987  1.00  0.00    -0.241 NA
HETATM    5  C5  UNL     1      28.819   0.620  53.916  1.00  0.00     0.235 A 
HETATM    6  N2  UNL     1      27.956  -0.244  54.440  1.00  0.00    -0.224 NA
HETATM    7  C6  UNL     1      26.635  -0.298  54.089  1.00  0.00     0.138 A 
HETATM    8  C7  UNL     1      26.168   0.611  53.115  1.00  0.00     0.048 A 
HETATM    9  C8  UNL     1      24.853   0.731  52.599  1.00  0.00     0.004 A 
HETATM   10  C9  UNL     1      24.596   1.694  51.655  1.00  0.00     0.109 A 
HETATM   11  C11 UNL     1      24.076  -0.329  53.181  1.00  0.00     0.071 A 
HETATM   12  C12 UNL     1      22.704  -0.590  52.883  1.00  0.00    -0.015 A 
HETATM   13  C13 UNL     1      21.713  -1.092  53.597  1.00  0.00    -0.003 A 
HETATM   14  C14 UNL     1      22.013  -1.456  54.976  1.00  0.00    -0.002 A 
HETATM   15  C15 UNL     1      23.256  -1.189  55.319  1.00  0.00    -0.001 A 
HETATM   16  C16 UNL     1      24.388  -0.599  54.632  1.00  0.00     0.118 A 
HETATM   17  N3  UNL     1      25.681  -1.213  54.743  1.00  0.00    -0.365 N 
HETATM   18  H15 UNL     1      26.121  -2.081  55.138  1.00  0.00     0.162 HD
ENDROOT
BRANCH   1  19
HETATM   19  O1  UNL     1      25.119   3.466  50.221  1.00  0.00    -0.353 OA
HETATM   20  C1  UNL     1      26.072   4.351  49.657  1.00  0.00     0.210 C 
ENDBRANCH   1  19
BRANCH  10  21
HETATM   21  O2  UNL     1      23.270   1.699  51.245  1.00  0.00    -0.352 OA
HETATM   22  C10 UNL     1      22.454   2.724  51.823  1.00  0.00     0.210 C 
ENDBRANCH  10  21
TORSDOF 2
ENDMDL
MODEL 2
REMARK VINA RESULT:      -8.4      1.337      4.676
REMARK  2 active torsions:
REMARK  status: ('A' for Active; 'I' for Inactive)
REMARK    1  A    between atoms: O1_2  and  C2_3 
REMARK    2  A    between atoms: C9_12  and  O2_13 
ROOT
HETATM    1  C2  UNL     1      23.547  -0.449  53.451  1.00  0.00     0.104 A 
HETATM    2  C3  UNL     1      24.646  -0.737  54.230  1.00  0.00     0.072 A 
HETATM    3  C4  UNL     1      25.813   0.002  54.135  1.00  0.00     0.075 A 
HETATM    4  N1  UNL     1      26.773  -0.422  54.971  1.00  0.00    -0.241 NA
HETATM    5  C5  UNL     1      27.936   0.257  54.927  1.00  0.00     0.235 A 
HETATM    6  N2  UNL     1      28.116   1.282  54.101  1.00  0.00    -0.224 NA
HETATM    7  C6  UNL     1      27.155   1.735  53.238  1.00  0.00     0.138 A 
HETATM    8  C7  UNL     1      25.906   1.077  53.232  1.00  0.00     0.048 A 
HETATM    9  C8  UNL     1      24.772   1.375  52.434  1.00  0.00     0.004 A 
HETATM   10  C9  UNL     1      23.644   0.604  52.570  1.00  0.00     0.109 A 
HETATM   11  C11 UNL     1      25.089   2.559  51.682  1.00  0.00     0.071 A 
HETATM   12  C12 UNL     1      24.191   3.218  50.788  1.00  0.00    -0.015 A 
HETATM   13  C13 UNL     1      24.381   3.917  49.683  1.00  0.00    -0.003 A 
HETATM   14  C14 UNL     1      25.757   4.067  49.226  1.00  0.00    -0.002 A 
HETATM   15  C15 UNL     1      26.624   3.433  49.989  1.00  0.00    -0.001 A 
HETATM   16  C16 UNL     1      26.509   2.608  51.176  1.00  0.00     0.118 A 
HETATM   17  N3  UNL     1      27.407   2.823  52.275  1.00  0.00    -0.365 N 
HETATM   18  H15 UNL     1      28.155   3.496  52.576  1.00  0.00     0.162 HD
ENDROOT
BRANCH   1  19
HETATM   19  O1  UNL     1      22.333  -1.118  53.457  1.00  0.00    -0.353 OA
HETATM   20  C1  UNL     1      21.624  -1.204  54.680  1.00  0.00     0.210 C 
ENDBRANCH   1  19
BRANCH  10  21
HETATM   21  O2  UNL     1      22.618   1.007  51.725  1.00  0.00    -0.352 OA
HETATM   22  C10 UNL     1      21.552   1.725  52.356  1.00  0.00     0.210 C 
ENDBRANCH  10  21
TORSDOF 2
ENDMDL
MODEL 3
REMARK VINA RESULT:      -8.2      2.526      5.508
REMARK  2 active torsions:
REMARK  status: ('A' for Active; 'I' for Inactive)
REMARK    1  A    between atoms: O1_2  and  C2_3 
REMARK    2  A    between atoms: C9_12  and  O2_13 
ROOT
HETATM    1  C2  UNL     1      23.202  -0.509  53.646  1.00  0.00     0.104 A 
HETATM    2  C3  UNL     1      22.656   0.336  52.705  1.00  0.00     0.072 A 
HETATM    3  C4  UNL     1      23.436   1.245  52.010  1.00  0.00     0.075 A 
HETATM    4  N1  UNL     1      22.732   1.980  51.134  1.00  0.00    -0.241 NA
HETATM    5  C5  UNL     1      23.434   2.886  50.426  1.00  0.00     0.235 A 
HETATM    6  N2  UNL     1      24.744   3.039  50.591  1.00  0.00    -0.224 NA
HETATM    7  C6  UNL     1      25.485   2.305  51.476  1.00  0.00     0.138 A 
HETATM    8  C7  UNL     1      24.819   1.330  52.251  1.00  0.00     0.048 A 
HETATM    9  C8  UNL     1      25.380   0.457  53.216  1.00  0.00     0.004 A 
HETATM   10  C9  UNL     1      24.556  -0.421  53.875  1.00  0.00     0.109 A 
HETATM   11  C11 UNL     1      26.802   0.672  53.200  1.00  0.00     0.071 A 
HETATM   12  C12 UNL     1      27.743  -0.048  53.998  1.00  0.00    -0.015 A 
HETATM   13  C13 UNL     1      28.907   0.284  54.525  1.00  0.00    -0.003 A 
HETATM   14  C14 UNL     1      29.371   1.646  54.297  1.00  0.00    -0.002 A 
HETATM   15  C15 UNL     1      28.515   2.371  53.606  1.00  0.00    -0.001 A 
HETATM   16  C16 UNL     1      27.206   2.117  53.037  1.00  0.00     0.118 A 
HETATM   17  N3  UNL     1      26.922   2.550  51.698  1.00  0.00    -0.365 N 
HETATM   18  H15 UNL     1      27.417   2.971  50.873  1.00  0.00     0.162 HD
ENDROOT
BRANCH   1  19
HETATM   19  O1  UNL     1      22.523  -1.452  54.400  1.00  0.00    -0.353 OA
HETATM   20  C1  UNL     1      21.115  -1.529  54.265  1.00  0.00     0.210 C 
ENDBRANCH   1  19
BRANCH  10  21
HETATM   21  O2  UNL     1      25.240  -1.209  54.793  1.00  0.00    -0.352 OA
HETATM   22  C10 UNL     1      25.073  -0.834  56.165  1.00  0.00     0.210 C 
ENDBRANCH  10  21
TORSDOF 2
ENDMDL
MODEL 4
REMARK VINA RESULT:      -8.0      2.629      4.111
REMARK  2 active torsions:
REMARK  status: ('A' for Active; 'I' for Inactive)
REMARK    1  A    between atoms: O1_2  and  C2_3 
REMARK    2  A    between atoms: C9_12  and  O2_13 
ROOT
HETATM    1  C2  UNL     1      26.960  -0.070  53.308  1.00  0.00     0.104 A 
HETATM    2  C3  UNL     1      27.269   0.878  52.358  1.00  0.00     0.072 A 
HETATM    3  C4  UNL     1      26.283   1.622  51.731  1.00  0.00     0.075 A 
HETATM    4  N1  UNL     1      26.772   2.497  50.839  1.00  0.00    -0.241 NA
HETATM    5  C5  UNL     1      25.862   3.251  50.192  1.00  0.00     0.235 A 
HETATM    6  N2  UNL     1      24.560   3.130  50.428  1.00  0.00    -0.224 NA
HETATM    7  C6  UNL     1      24.034   2.246  51.331  1.00  0.00     0.138 A 
HETATM    8  C7  UNL     1      24.928   1.425  52.052  1.00  0.00     0.048 A 
HETATM    9  C8  UNL     1      24.611   0.451  53.033  1.00  0.00     0.004 A 
HETATM   10  C9  UNL     1      25.632  -0.257  53.618  1.00  0.00     0.109 A 
HETATM   11  C11 UNL     1      23.191   0.516  53.245  1.00  0.00     0.071 A 
HETATM   12  C12 UNL     1      22.473  -0.274  54.195  1.00  0.00    -0.015 A 
HETATM   13  C13 UNL     1      21.244  -0.757  54.210  1.00  0.00    -0.003 A 
HETATM   14  C14 UNL     1      20.411  -0.476  53.048  1.00  0.00    -0.002 A 
HETATM   15  C15 UNL     1      21.042   0.209  52.117  1.00  0.00    -0.001 A 
HETATM   16  C16 UNL     1      22.388   0.733  51.986  1.00  0.00     0.118 A 
HETATM   17  N3  UNL     1      22.582   2.074  51.514  1.00  0.00    -0.365 N 
HETATM   18  H15 UNL     1      22.015   2.925  51.273  1.00  0.00     0.162 HD
ENDROOT
BRANCH   1  19
HETATM   19  O1  UNL     1      27.857  -0.871  53.996  1.00  0.00    -0.353 OA
HETATM   20  C1  UNL     1      29.063  -0.285  54.453  1.00  0.00     0.210 C 
ENDBRANCH   1  19
BRANCH  10  21
HETATM   21  O2  UNL     1      25.176  -1.176  54.554  1.00  0.00    -0.352 OA
HETATM   22  C10 UNL     1      25.373  -0.805  55.923  1.00  0.00     0.210 C 
ENDBRANCH  10  21
TORSDOF 2
ENDMDL
MODEL 5
REMARK VINA RESULT:      -7.9      1.596      4.355
REMARK  2 active torsions:
REMARK  status: ('A' for Active; 'I' for Inactive)
REMARK    1  A    between atoms: O1_2  and  C2_3 
REMARK    2  A    between atoms: C9_12  and  O2_13 
ROOT
HETATM    1  C2  UNL     1      23.530   2.279  51.101  1.00  0.00     0.104 A 
HETATM    2  C3  UNL     1      22.643   1.335  51.570  1.00  0.00     0.072 A 
HETATM    3  C4  UNL     1      22.980   0.475  52.602  1.00  0.00     0.075 A 
HETATM    4  N1  UNL     1      21.990  -0.371  52.925  1.00  0.00    -0.241 NA
HETATM    5  C5  UNL     1      22.256  -1.237  53.922  1.00  0.00     0.235 A 
HETATM    6  N2  UNL     1      23.431  -1.248  54.543  1.00  0.00    -0.224 NA
HETATM    7  C6  UNL     1      24.457  -0.397  54.234  1.00  0.00     0.138 A 
HETATM    8  C7  UNL     1      24.251   0.544  53.202  1.00  0.00     0.048 A 
HETATM    9  C8  UNL     1      25.161   1.518  52.721  1.00  0.00     0.004 A 
HETATM   10  C9  UNL     1      24.771   2.342  51.694  1.00  0.00     0.109 A 
HETATM   11  C11 UNL     1      26.330   1.448  53.555  1.00  0.00     0.071 A 
HETATM   12  C12 UNL     1      27.470   2.300  53.432  1.00  0.00    -0.015 A 
HETATM   13  C13 UNL     1      28.755   2.116  53.676  1.00  0.00    -0.003 A 
HETATM   14  C14 UNL     1      29.154   0.798  54.151  1.00  0.00    -0.002 A 
HETATM   15  C15 UNL     1      28.145  -0.045  54.235  1.00  0.00    -0.001 A 
HETATM   16  C16 UNL     1      26.727   0.045  53.944  1.00  0.00     0.118 A 
HETATM   17  N3  UNL     1      25.778  -0.483  54.883  1.00  0.00    -0.365 N 
HETATM   18  H15 UNL     1      25.755  -0.894  55.849  1.00  0.00     0.162 HD
ENDROOT
BRANCH   1  19
HETATM   19  O1  UNL     1      23.305   3.187  50.078  1.00  0.00    -0.353 OA
HETATM   20  C1  UNL     1      22.959   2.682  48.801  1.00  0.00     0.210 C 
ENDBRANCH   1  19
BRANCH  10  21
HETATM   21  O2  UNL     1      25.763   3.240  51.324  1.00  0.00    -0.352 OA
HETATM   22  C10 UNL     1      26.484   2.900  50.134  1.00  0.00     0.210 C 
ENDBRANCH  10  21
TORSDOF 2
ENDMDL
MODEL 6
REMARK VINA RESULT:      -7.8      2.528      5.565
REMARK  2 active torsions:
REMARK  status: ('A' for Active; 'I' for Inactive)
REMARK    1  A    between atoms: O1_2  and  C2_3 
REMARK    2  A    between atoms: C9_12  and  O2_13 
ROOT
HETATM    1  C2  UNL     1      26.835   0.003  53.925  1.00  0.00     0.104 A 
HETATM    2  C3  UNL     1      25.616  -0.553  54.245  1.00  0.00     0.072 A 
HETATM    3  C4  UNL     1      24.459  -0.196  53.573  1.00  0.00     0.075 A 
HETATM    4  N1  UNL     1      23.372  -0.843  54.019  1.00  0.00    -0.241 NA
HETATM    5  C5  UNL     1      22.211  -0.539  53.406  1.00  0.00     0.235 A 
HETATM    6  N2  UNL     1      22.154   0.349  52.419  1.00  0.00    -0.224 NA
HETATM    7  C6  UNL     1      23.247   1.023  51.945  1.00  0.00     0.138 A 
HETATM    8  C7  UNL     1      24.501   0.753  52.535  1.00  0.00     0.048 A 
HETATM    9  C8  UNL     1      25.757   1.321  52.204  1.00  0.00     0.004 A 
HETATM   10  C9  UNL     1      26.868   0.931  52.908  1.00  0.00     0.109 A 
HETATM   11  C11 UNL     1      25.544   2.172  51.064  1.00  0.00     0.071 A 
HETATM   12  C12 UNL     1      26.572   2.897  50.388  1.00  0.00    -0.015 A 
HETATM   13  C13 UNL     1      26.576   4.046  49.737  1.00  0.00    -0.003 A 
HETATM   14  C14 UNL     1      25.314   4.774  49.676  1.00  0.00    -0.002 A 
HETATM   15  C15 UNL     1      24.342   4.171  50.329  1.00  0.00    -0.001 A 
HETATM   16  C16 UNL     1      24.253   2.951  51.108  1.00  0.00     0.118 A 
HETATM   17  N3  UNL     1      23.144   2.062  50.904  1.00  0.00    -0.365 N 
HETATM   18  H15 UNL     1      22.322   1.946  50.262  1.00  0.00     0.162 HD
ENDROOT
BRANCH   1  19
HETATM   19  O1  UNL     1      28.052  -0.273  54.528  1.00  0.00    -0.353 OA
HETATM   20  C1  UNL     1      28.978  -1.081  53.824  1.00  0.00     0.210 C 
ENDBRANCH   1  19
BRANCH  10  21
HETATM   21  O2  UNL     1      28.024   1.571  52.480  1.00  0.00    -0.352 OA
HETATM   22  C10 UNL     1      28.558   2.540  53.388  1.00  0.00     0.210 C 
ENDBRANCH  10  21
TORSDOF 2
ENDMDL
MODEL 7
REMARK VINA RESULT:      -7.8      1.297      1.806
REMARK  2 active torsions:
REMARK  status: ('A' for Active; 'I' for Inactive)
REMARK    1  A    between atoms: O1_2  and  C2_3 
REMARK    2  A    between atoms: C9_12  and  O2_13 
ROOT
HETATM    1  C2  UNL     1      25.389   2.713  51.387  1.00  0.00     0.104 A 
HETATM    2  C3  UNL     1      26.335   2.262  52.281  1.00  0.00     0.072 A 
HETATM    3  C4  UNL     1      26.053   1.250  53.183  1.00  0.00     0.075 A 
HETATM    4  N1  UNL     1      27.096   0.943  53.970  1.00  0.00    -0.241 NA
HETATM    5  C5  UNL     1      26.886  -0.035  54.873  1.00  0.00     0.235 A 
HETATM    6  N2  UNL     1      25.714  -0.653  54.974  1.00  0.00    -0.224 NA
HETATM    7  C6  UNL     1      24.635  -0.359  54.185  1.00  0.00     0.138 A 
HETATM    8  C7  UNL     1      24.781   0.652  53.210  1.00  0.00     0.048 A 
HETATM    9  C8  UNL     1      23.809   1.113  52.287  1.00  0.00     0.004 A 
HETATM   10  C9  UNL     1      24.146   2.121  51.418  1.00  0.00     0.109 A 
HETATM   11  C11 UNL     1      22.647   0.283  52.451  1.00  0.00     0.071 A 
HETATM   12  C12 UNL     1      21.454   0.390  51.672  1.00  0.00    -0.015 A 
HETATM   13  C13 UNL     1      20.184   0.153  51.944  1.00  0.00    -0.003 A 
HETATM   14  C14 UNL     1      19.871  -0.293  53.296  1.00  0.00    -0.002 A 
HETATM   15  C15 UNL     1      20.932  -0.360  54.073  1.00  0.00    -0.001 A 
HETATM   16  C16 UNL     1      22.341  -0.074  53.885  1.00  0.00     0.118 A 
HETATM   17  N3  UNL     1      23.322  -1.004  54.370  1.00  0.00    -0.365 N 
HETATM   18  H15 UNL     1      23.371  -1.961  54.800  1.00  0.00     0.162 HD
ENDROOT
BRANCH   1  19
HETATM   19  O1  UNL     1      25.555   3.715  50.444  1.00  0.00    -0.353 OA
HETATM   20  C1  UNL     1      26.571   3.555  49.470  1.00  0.00     0.210 C 
ENDBRANCH   1  19
BRANCH  10  21
HETATM   21  O2  UNL     1      23.098   2.474  50.577  1.00  0.00    -0.352 OA
HETATM   22  C10 UNL     1      22.404   3.674  50.935  1.00  0.00     0.210 C 
ENDBRANCH  10  21
TORSDOF 2
ENDMDL
MODEL 8
REMARK VINA RESULT:      -7.3      2.983      6.269
REMARK  2 active torsions:
REMARK  status: ('A' for Active; 'I' for Inactive)
REMARK    1  A    between atoms: O1_2  and  C2_3 
REMARK    2  A    between atoms: C9_12  and  O2_13 
ROOT
HETATM    1  C2  UNL     1      25.030   0.444  52.986  1.00  0.00     0.104 A 
HETATM    2  C3  UNL     1      23.670   0.506  53.194  1.00  0.00     0.072 A 
HETATM    3  C4  UNL     1      22.869   1.386  52.485  1.00  0.00     0.075 A 
HETATM    4  N1  UNL     1      21.572   1.301  52.819  1.00  0.00    -0.241 NA
HETATM    5  C5  UNL     1      20.739   2.134  52.165  1.00  0.00     0.235 A 
HETATM    6  N2  UNL     1      21.182   2.986  51.246  1.00  0.00    -0.224 NA
HETATM    7  C6  UNL     1      22.498   3.093  50.887  1.00  0.00     0.138 A 
HETATM    8  C7  UNL     1      23.431   2.247  51.526  1.00  0.00     0.048 A 
HETATM    9  C8  UNL     1      24.831   2.180  51.310  1.00  0.00     0.004 A 
HETATM   10  C9  UNL     1      25.573   1.290  52.045  1.00  0.00     0.109 A 
HETATM   11  C11 UNL     1      25.132   3.077  50.227  1.00  0.00     0.071 A 
HETATM   12  C12 UNL     1      26.431   3.268  49.667  1.00  0.00    -0.015 A 
HETATM   13  C13 UNL     1      27.020   4.309  49.106  1.00  0.00    -0.003 A 
HETATM   14  C14 UNL     1      26.245   5.541  49.028  1.00  0.00    -0.002 A 
HETATM   15  C15 UNL     1      25.053   5.434  49.577  1.00  0.00    -0.001 A 
HETATM   16  C16 UNL     1      24.346   4.365  50.256  1.00  0.00     0.118 A 
HETATM   17  N3  UNL     1      22.975   4.102  49.923  1.00  0.00    -0.365 N 
HETATM   18  H15 UNL     1      22.249   4.407  49.228  1.00  0.00     0.162 HD
ENDROOT
BRANCH   1  19
HETATM   19  O1  UNL     1      25.927  -0.390  53.635  1.00  0.00    -0.353 OA
HETATM   20  C1  UNL     1      26.170  -0.168  55.013  1.00  0.00     0.210 C 
ENDBRANCH   1  19
BRANCH  10  21
HETATM   21  O2  UNL     1      26.926   1.336  51.733  1.00  0.00    -0.352 OA
HETATM   22  C10 UNL     1      27.721   2.172  52.581  1.00  0.00     0.210 C 
ENDBRANCH  10  21
TORSDOF 2
ENDMDL
MODEL 9
REMARK VINA RESULT:      -7.3      2.379      5.081
REMARK  2 active torsions:
REMARK  status: ('A' for Active; 'I' for Inactive)
REMARK    1  A    between atoms: O1_2  and  C2_3 
REMARK    2  A    between atoms: C9_12  and  O2_13 
ROOT
HETATM    1  C2  UNL     1      26.071  -0.188  52.980  1.00  0.00     0.104 A 
HETATM    2  C3  UNL     1      25.235  -0.814  53.878  1.00  0.00     0.072 A 
HETATM    3  C4  UNL     1      23.886  -0.507  53.945  1.00  0.00     0.075 A 
HETATM    4  N1  UNL     1      23.232  -1.218  54.876  1.00  0.00    -0.241 NA
HETATM    5  C5  UNL     1      21.913  -0.965  54.993  1.00  0.00     0.235 A 
HETATM    6  N2  UNL     1      21.305  -0.062  54.230  1.00  0.00    -0.224 NA
HETATM    7  C6  UNL     1      21.949   0.677  53.275  1.00  0.00     0.138 A 
HETATM    8  C7  UNL     1      23.332   0.462  53.090  1.00  0.00     0.048 A 
HETATM    9  C8  UNL     1      24.193   1.102  52.163  1.00  0.00     0.004 A 
HETATM   10  C9  UNL     1      25.521   0.758  52.145  1.00  0.00     0.109 A 
HETATM   11  C11 UNL     1      23.372   1.961  51.353  1.00  0.00     0.071 A 
HETATM   12  C12 UNL     1      23.850   2.752  50.264  1.00  0.00    -0.015 A 
HETATM   13  C13 UNL     1      23.464   3.912  49.764  1.00  0.00    -0.003 A 
HETATM   14  C14 UNL     1      22.343   4.573  50.420  1.00  0.00    -0.002 A 
HETATM   15  C15 UNL     1      21.895   3.908  51.465  1.00  0.00    -0.001 A 
HETATM   16  C16 UNL     1      22.280   2.671  52.115  1.00  0.00     0.118 A 
HETATM   17  N3  UNL     1      21.267   1.729  52.498  1.00  0.00    -0.365 N 
HETATM   18  H15 UNL     1      20.233   1.581  52.392  1.00  0.00     0.162 HD
ENDROOT
BRANCH   1  19
HETATM   19  O1  UNL     1      27.430  -0.411  52.824  1.00  0.00    -0.353 OA
HETATM   20  C1  UNL     1      28.253  -0.351  53.976  1.00  0.00     0.210 C 
ENDBRANCH   1  19
BRANCH  10  21
HETATM   21  O2  UNL     1      26.244   1.466  51.193  1.00  0.00    -0.352 OA
HETATM   22  C10 UNL     1      27.029   2.549  51.703  1.00  0.00     0.210 C 
ENDBRANCH  10  21
TORSDOF 2
ENDMDL
