MODEL 1
REMARK VINA RESULT:      -8.6      0.000      0.000
REMARK  9 active torsions:
REMARK  status: ('A' for Active; 'I' for Inactive)
REMARK    1  A    between atoms: O1_2  and  C2_3 
REMARK    2  A    between atoms: C6_9  and  N3_10 
REMARK    3  A    between atoms: N3_10  and  C7_11 
REMARK    4  A    between atoms: C14_20  and  O2_21 
REMARK    5  A    between atoms: O2_21  and  C15_22 
REMARK    6  A    between atoms: C15_22  and  C16_23 
REMARK    7  A    between atoms: C16_23  and  O3_24 
REMARK    8  A    between atoms: C16_23  and  C17_25 
REMARK    9  A    between atoms: C17_25  and  N4_26 
ROOT
HETATM    1  C2  UNL     1      20.544   2.674  52.434  1.00  0.00     0.103 A 
HETATM    2  C3  UNL     1      20.446   1.482  53.142  1.00  0.00     0.072 A 
HETATM    3  C4  UNL     1      21.655   0.853  53.345  1.00  0.00     0.075 A 
HETATM    4  N1  UNL     1      21.603  -0.318  54.022  1.00  0.00    -0.241 NA
HETATM    5  C5  UNL     1      22.697  -1.049  54.289  1.00  0.00     0.236 A 
HETATM    6  N2  UNL     1      23.896  -0.594  53.862  1.00  0.00    -0.224 NA
HETATM    7  C6  UNL     1      24.042   0.552  53.185  1.00  0.00     0.142 A 
HETATM    8  C12 UNL     1      22.899   1.277  52.929  1.00  0.00     0.042 A 
HETATM    9  C13 UNL     1      22.931   2.482  52.223  1.00  0.00     0.057 A 
HETATM   10  C14 UNL     1      21.745   3.167  51.983  1.00  0.00     0.103 A 
ENDROOT
BRANCH  10  11
HETATM   11  O2  UNL     1      21.946   4.323  51.282  1.00  0.00    -0.346 OA
BRANCH  11  12
HETATM   12  C15 UNL     1      22.330   5.548  51.864  1.00  0.00     0.209 C 
BRANCH  12  13
HETATM   13  C16 UNL     1      23.807   5.763  51.463  1.00  0.00     0.160 C 
BRANCH  13  14
HETATM   14  O3  UNL     1      24.308   6.903  52.084  1.00  0.00    -0.392 OA
HETATM   15  H14 UNL     1      24.680   6.713  52.976  1.00  0.00     0.210 HD
ENDBRANCH  13  14
BRANCH  13  16
HETATM   16  C17 UNL     1      23.848   5.947  49.941  1.00  0.00     0.150 C 
BRANCH  16  17
HETATM   17  N4  UNL     1      24.933   5.279  49.391  1.00  0.00    -0.406 N 
HETATM   18  C18 UNL     1      24.911   3.855  49.380  1.00  0.00     0.143 C 
HETATM   19  C19 UNL     1      26.079   3.351  50.196  1.00  0.00     0.187 C 
HETATM   20  O4  UNL     1      27.287   3.850  49.773  1.00  0.00    -0.388 OA
HETATM   21  C20 UNL     1      27.171   4.815  48.783  1.00  0.00     0.187 C 
HETATM   22  C21 UNL     1      26.187   5.903  49.239  1.00  0.00     0.143 C 
ENDBRANCH  16  17
ENDBRANCH  13  16
ENDBRANCH  12  13
ENDBRANCH  11  12
ENDBRANCH  10  11
BRANCH   1  23
HETATM   23  O1  UNL     1      19.409   3.425  52.150  1.00  0.00    -0.353 OA
HETATM   24  C1  UNL     1      18.539   3.087  51.070  1.00  0.00     0.210 C 
ENDBRANCH   1  23
BRANCH   7  25
HETATM   25  N3  UNL     1      25.295   1.032  52.717  1.00  0.00    -0.340 N 
HETATM   26  H6  UNL     1      25.292   1.860  52.117  1.00  0.00     0.167 HD
BRANCH  25  27
HETATM   27  C7  UNL     1      26.462   0.352  53.093  1.00  0.00     0.034 A 
HETATM   28  C8  UNL     1      27.310   0.863  54.001  1.00  0.00     0.045 A 
HETATM   29  C9  UNL     1      28.506   0.000  54.282  1.00  0.00     0.240 A 
HETATM   30  F1  UNL     1      29.648   0.637  53.825  1.00  0.00    -0.239 F 
HETATM   31  C10 UNL     1      28.207  -1.144  53.356  1.00  0.00     0.051 A 
HETATM   32 CL1  UNL     1      29.246  -2.520  53.204  1.00  0.00    -0.086 Cl
HETATM   33  C11 UNL     1      27.075  -0.914  52.718  1.00  0.00     0.052 A 
ENDBRANCH  25  27
ENDBRANCH   7  25
TORSDOF 9
ENDMDL
MODEL 2
REMARK VINA RESULT:      -8.3      2.059      2.955
REMARK  9 active torsions:
REMARK  status: ('A' for Active; 'I' for Inactive)
REMARK    1  A    between atoms: O1_2  and  C2_3 
REMARK    2  A    between atoms: C6_9  and  N3_10 
REMARK    3  A    between atoms: N3_10  and  C7_11 
REMARK    4  A    between atoms: C14_20  and  O2_21 
REMARK    5  A    between atoms: O2_21  and  C15_22 
REMARK    6  A    between atoms: C15_22  and  C16_23 
REMARK    7  A    between atoms: C16_23  and  O3_24 
REMARK    8  A    between atoms: C16_23  and  C17_25 
REMARK    9  A    between atoms: C17_25  and  N4_26 
ROOT
HETATM    1  C2  UNL     1      19.609  -0.154  52.435  1.00  0.00     0.103 A 
HETATM    2  C3  UNL     1      19.964  -0.788  53.620  1.00  0.00     0.072 A 
HETATM    3  C4  UNL     1      21.315  -0.758  53.886  1.00  0.00     0.075 A 
HETATM    4  N1  UNL     1      21.706  -1.374  55.026  1.00  0.00    -0.241 NA
HETATM    5  C5  UNL     1      22.990  -1.435  55.414  1.00  0.00     0.236 A 
HETATM    6  N2  UNL     1      23.927  -0.855  54.631  1.00  0.00    -0.224 NA
HETATM    7  C6  UNL     1      23.633  -0.225  53.487  1.00  0.00     0.142 A 
HETATM    8  C12 UNL     1      22.306  -0.182  53.119  1.00  0.00     0.042 A 
HETATM    9  C13 UNL     1      21.885   0.441  51.942  1.00  0.00     0.057 A 
HETATM   10  C14 UNL     1      20.534   0.445  51.614  1.00  0.00     0.103 A 
ENDROOT
BRANCH  10  11
HETATM   11  O2  UNL     1      20.288   1.090  50.435  1.00  0.00    -0.346 OA
BRANCH  11  12
HETATM   12  C15 UNL     1      19.499   2.254  50.316  1.00  0.00     0.209 C 
BRANCH  12  13
HETATM   13  C16 UNL     1      19.941   3.184  51.469  1.00  0.00     0.160 C 
BRANCH  13  14
HETATM   14  O3  UNL     1      18.834   3.569  52.219  1.00  0.00    -0.392 OA
HETATM   15  H14 UNL     1      18.417   4.394  51.877  1.00  0.00     0.210 HD
ENDBRANCH  13  14
BRANCH  13  16
HETATM   16  C17 UNL     1      20.589   4.422  50.836  1.00  0.00     0.150 C 
BRANCH  16  17
HETATM   17  N4  UNL     1      21.974   4.338  50.890  1.00  0.00    -0.406 N 
HETATM   18  C18 UNL     1      22.685   4.189  49.666  1.00  0.00     0.143 C 
HETATM   19  C19 UNL     1      23.439   2.880  49.705  1.00  0.00     0.187 C 
HETATM   20  O4  UNL     1      24.263   2.765  50.797  1.00  0.00    -0.388 OA
HETATM   21  C20 UNL     1      24.129   3.806  51.704  1.00  0.00     0.187 C 
HETATM   22  C21 UNL     1      22.648   3.978  52.073  1.00  0.00     0.143 C 
ENDBRANCH  16  17
ENDBRANCH  13  16
ENDBRANCH  12  13
ENDBRANCH  11  12
ENDBRANCH  10  11
BRANCH   1  23
HETATM   23  O1  UNL     1      18.280  -0.101  52.030  1.00  0.00    -0.353 OA
HETATM   24  C1  UNL     1      17.266  -0.854  52.694  1.00  0.00     0.210 C 
ENDBRANCH   1  23
BRANCH   7  25
HETATM   25  N3  UNL     1      24.612   0.374  52.648  1.00  0.00    -0.340 N 
HETATM   26  H6  UNL     1      24.284   0.881  51.822  1.00  0.00     0.167 HD
BRANCH  25  27
HETATM   27  C7  UNL     1      25.966   0.239  52.986  1.00  0.00     0.034 A 
HETATM   28  C8  UNL     1      26.634   1.222  53.612  1.00  0.00     0.045 A 
HETATM   29  C9  UNL     1      28.073   0.905  53.896  1.00  0.00     0.240 A 
HETATM   30  F1  UNL     1      28.884   1.732  53.137  1.00  0.00    -0.239 F 
HETATM   31  C10 UNL     1      28.141  -0.478  53.314  1.00  0.00     0.051 A 
HETATM   32 CL1  UNL     1      29.588  -1.427  53.324  1.00  0.00    -0.086 Cl
HETATM   33  C11 UNL     1      26.962  -0.810  52.822  1.00  0.00     0.052 A 
ENDBRANCH  25  27
ENDBRANCH   7  25
TORSDOF 9
ENDMDL
MODEL 3
REMARK VINA RESULT:      -7.9      4.203      7.154
REMARK  9 active torsions:
REMARK  status: ('A' for Active; 'I' for Inactive)
REMARK    1  A    between atoms: O1_2  and  C2_3 
REMARK    2  A    between atoms: C6_9  and  N3_10 
REMARK    3  A    between atoms: N3_10  and  C7_11 
REMARK    4  A    between atoms: C14_20  and  O2_21 
REMARK    5  A    between atoms: O2_21  and  C15_22 
REMARK    6  A    between atoms: C15_22  and  C16_23 
REMARK    7  A    between atoms: C16_23  and  O3_24 
REMARK    8  A    between atoms: C16_23  and  C17_25 
REMARK    9  A    between atoms: C17_25  and  N4_26 
ROOT
HETATM    1  C2  UNL     1      27.110   6.975  47.956  1.00  0.00     0.103 A 
HETATM    2  C3  UNL     1      25.770   6.907  48.319  1.00  0.00     0.072 A 
HETATM    3  C4  UNL     1      25.429   5.746  48.978  1.00  0.00     0.075 A 
HETATM    4  N1  UNL     1      24.130   5.634  49.340  1.00  0.00    -0.241 NA
HETATM    5  C5  UNL     1      23.647   4.557  49.981  1.00  0.00     0.236 A 
HETATM    6  N2  UNL     1      24.496   3.547  50.274  1.00  0.00    -0.224 NA
HETATM    7  C6  UNL     1      25.796   3.571  49.953  1.00  0.00     0.142 A 
HETATM    8  C12 UNL     1      26.258   4.691  49.297  1.00  0.00     0.042 A 
HETATM    9  C13 UNL     1      27.592   4.820  48.906  1.00  0.00     0.057 A 
HETATM   10  C14 UNL     1      28.002   5.967  48.236  1.00  0.00     0.103 A 
ENDROOT
BRANCH  10  11
HETATM   11  O2  UNL     1      29.332   5.939  47.923  1.00  0.00    -0.346 OA
BRANCH  11  12
HETATM   12  C15 UNL     1      30.330   6.636  48.634  1.00  0.00     0.209 C 
BRANCH  12  13
HETATM   13  C16 UNL     1      31.361   5.572  49.072  1.00  0.00     0.160 C 
BRANCH  13  14
HETATM   14  O3  UNL     1      31.378   5.467  50.459  1.00  0.00    -0.392 OA
HETATM   15  H14 UNL     1      30.941   4.643  50.779  1.00  0.00     0.210 HD
ENDBRANCH  13  14
BRANCH  13  16
HETATM   16  C17 UNL     1      32.737   6.033  48.575  1.00  0.00     0.150 C 
BRANCH  16  17
HETATM   17  N4  UNL     1      33.228   5.170  47.605  1.00  0.00    -0.406 N 
HETATM   18  C18 UNL     1      32.932   3.782  47.729  1.00  0.00     0.143 C 
HETATM   19  C19 UNL     1      34.232   3.025  47.869  1.00  0.00     0.187 C 
HETATM   20  O4  UNL     1      35.113   3.274  46.846  1.00  0.00    -0.388 OA
HETATM   21  C20 UNL     1      34.687   4.268  45.977  1.00  0.00     0.187 C 
HETATM   22  C21 UNL     1      34.311   5.524  46.778  1.00  0.00     0.143 C 
ENDBRANCH  16  17
ENDBRANCH  13  16
ENDBRANCH  12  13
ENDBRANCH  11  12
ENDBRANCH  10  11
BRANCH   1  23
HETATM   23  O1  UNL     1      27.606   8.086  47.284  1.00  0.00    -0.353 OA
HETATM   24  C1  UNL     1      27.622   9.380  47.886  1.00  0.00     0.210 C 
ENDBRANCH   1  23
BRANCH   7  25
HETATM   25  N3  UNL     1      26.694   2.509  50.242  1.00  0.00    -0.340 N 
HETATM   26  H6  UNL     1      27.382   2.261  49.527  1.00  0.00     0.167 HD
BRANCH  25  27
HETATM   27  C7  UNL     1      26.592   1.853  51.477  1.00  0.00     0.034 A 
HETATM   28  C8  UNL     1      27.392   2.170  52.508  1.00  0.00     0.045 A 
HETATM   29  C9  UNL     1      27.143   1.368  53.752  1.00  0.00     0.240 A 
HETATM   30  F1  UNL     1      28.237   0.557  54.003  1.00  0.00    -0.239 F 
HETATM   31  C10 UNL     1      26.020   0.498  53.264  1.00  0.00     0.051 A 
HETATM   32 CL1  UNL     1      25.257  -0.692  54.261  1.00  0.00    -0.086 Cl
HETATM   33  C11 UNL     1      25.745   0.794  52.007  1.00  0.00     0.052 A 
ENDBRANCH  25  27
ENDBRANCH   7  25
TORSDOF 9
ENDMDL
MODEL 4
REMARK VINA RESULT:      -7.8      3.450      5.592
REMARK  9 active torsions:
REMARK  status: ('A' for Active; 'I' for Inactive)
REMARK    1  A    between atoms: O1_2  and  C2_3 
REMARK    2  A    between atoms: C6_9  and  N3_10 
REMARK    3  A    between atoms: N3_10  and  C7_11 
REMARK    4  A    between atoms: C14_20  and  O2_21 
REMARK    5  A    between atoms: O2_21  and  C15_22 
REMARK    6  A    between atoms: C15_22  and  C16_23 
REMARK    7  A    between atoms: C16_23  and  O3_24 
REMARK    8  A    between atoms: C16_23  and  C17_25 
REMARK    9  A    between atoms: C17_25  and  N4_26 
ROOT
HETATM    1  C2  UNL     1      23.229  -0.186  53.032  1.00  0.00     0.103 A 
HETATM    2  C3  UNL     1      24.540  -0.059  53.474  1.00  0.00     0.072 A 
HETATM    3  C4  UNL     1      25.279   0.867  52.770  1.00  0.00     0.075 A 
HETATM    4  N1  UNL     1      26.566   1.014  53.162  1.00  0.00    -0.241 NA
HETATM    5  C5  UNL     1      27.411   1.871  52.566  1.00  0.00     0.236 A 
HETATM    6  N2  UNL     1      26.953   2.615  51.534  1.00  0.00    -0.224 NA
HETATM    7  C6  UNL     1      25.696   2.534  51.079  1.00  0.00     0.142 A 
HETATM    8  C12 UNL     1      24.857   1.645  51.713  1.00  0.00     0.042 A 
HETATM    9  C13 UNL     1      23.529   1.472  51.317  1.00  0.00     0.057 A 
HETATM   10  C14 UNL     1      22.729   0.552  51.985  1.00  0.00     0.103 A 
ENDROOT
BRANCH  10  11
HETATM   11  O2  UNL     1      21.461   0.500  51.478  1.00  0.00    -0.346 OA
BRANCH  11  12
HETATM   12  C15 UNL     1      20.340   1.111  52.077  1.00  0.00     0.209 C 
BRANCH  12  13
HETATM   13  C16 UNL     1      20.440   2.614  51.729  1.00  0.00     0.160 C 
BRANCH  13  14
HETATM   14  O3  UNL     1      19.922   3.378  52.770  1.00  0.00    -0.392 OA
HETATM   15  H14 UNL     1      19.001   3.118  53.005  1.00  0.00     0.210 HD
ENDBRANCH  13  14
BRANCH  13  16
HETATM   16  C17 UNL     1      19.612   2.847  50.459  1.00  0.00     0.150 C 
BRANCH  16  17
HETATM   17  N4  UNL     1      20.429   3.199  49.393  1.00  0.00    -0.406 N 
HETATM   18  C18 UNL     1      20.530   2.295  48.297  1.00  0.00     0.143 C 
HETATM   19  C19 UNL     1      21.970   1.853  48.170  1.00  0.00     0.187 C 
HETATM   20  O4  UNL     1      22.847   2.903  48.054  1.00  0.00    -0.388 OA
HETATM   21  C20 UNL     1      22.250   4.145  48.218  1.00  0.00     0.187 C 
HETATM   22  C21 UNL     1      21.449   4.161  49.528  1.00  0.00     0.143 C 
ENDBRANCH  16  17
ENDBRANCH  13  16
ENDBRANCH  12  13
ENDBRANCH  11  12
ENDBRANCH  10  11
BRANCH   1  23
HETATM   23  O1  UNL     1      22.359  -1.081  53.643  1.00  0.00    -0.353 OA
HETATM   24  C1  UNL     1      21.757  -0.797  54.906  1.00  0.00     0.210 C 
ENDBRANCH   1  23
BRANCH   7  25
HETATM   25  N3  UNL     1      25.209   3.299  49.985  1.00  0.00    -0.340 N 
HETATM   26  H6  UNL     1      24.285   3.063  49.615  1.00  0.00     0.167 HD
BRANCH  25  27
HETATM   27  C7  UNL     1      26.011   4.326  49.467  1.00  0.00     0.034 A 
HETATM   28  C8  UNL     1      25.585   5.599  49.433  1.00  0.00     0.045 A 
HETATM   29  C9  UNL     1      26.573   6.565  48.846  1.00  0.00     0.240 A 
HETATM   30  F1  UNL     1      26.079   7.058  47.650  1.00  0.00    -0.239 F 
HETATM   31  C10 UNL     1      27.692   5.612  48.533  1.00  0.00     0.051 A 
HETATM   32 CL1  UNL     1      29.179   6.122  47.811  1.00  0.00    -0.086 Cl
HETATM   33  C11 UNL     1      27.345   4.389  48.888  1.00  0.00     0.052 A 
ENDBRANCH  25  27
ENDBRANCH   7  25
TORSDOF 9
ENDMDL
MODEL 5
REMARK VINA RESULT:      -7.6      2.133      3.201
REMARK  9 active torsions:
REMARK  status: ('A' for Active; 'I' for Inactive)
REMARK    1  A    between atoms: O1_2  and  C2_3 
REMARK    2  A    between atoms: C6_9  and  N3_10 
REMARK    3  A    between atoms: N3_10  and  C7_11 
REMARK    4  A    between atoms: C14_20  and  O2_21 
REMARK    5  A    between atoms: O2_21  and  C15_22 
REMARK    6  A    between atoms: C15_22  and  C16_23 
REMARK    7  A    between atoms: C16_23  and  O3_24 
REMARK    8  A    between atoms: C16_23  and  C17_25 
REMARK    9  A    between atoms: C17_25  and  N4_26 
ROOT
HETATM    1  C2  UNL     1      20.581   3.048  52.258  1.00  0.00     0.103 A 
HETATM    2  C3  UNL     1      20.419   1.761  52.757  1.00  0.00     0.072 A 
HETATM    3  C4  UNL     1      21.603   1.086  52.955  1.00  0.00     0.075 A 
HETATM    4  N1  UNL     1      21.490  -0.176  53.430  1.00  0.00    -0.241 NA
HETATM    5  C5  UNL     1      22.554  -0.960  53.666  1.00  0.00     0.236 A 
HETATM    6  N2  UNL     1      23.787  -0.464  53.417  1.00  0.00    -0.224 NA
HETATM    7  C6  UNL     1      23.994   0.772  52.946  1.00  0.00     0.142 A 
HETATM    8  C12 UNL     1      22.879   1.549  52.716  1.00  0.00     0.042 A 
HETATM    9  C13 UNL     1      22.976   2.850  52.217  1.00  0.00     0.057 A 
HETATM   10  C14 UNL     1      21.818   3.585  51.993  1.00  0.00     0.103 A 
ENDROOT
BRANCH  10  11
HETATM   11  O2  UNL     1      22.081   4.834  51.504  1.00  0.00    -0.346 OA
BRANCH  11  12
HETATM   12  C15 UNL     1      23.376   5.377  51.370  1.00  0.00     0.209 C 
BRANCH  12  13
HETATM   13  C16 UNL     1      23.180   6.817  50.846  1.00  0.00     0.160 C 
BRANCH  13  14
HETATM   14  O3  UNL     1      23.932   7.707  51.607  1.00  0.00    -0.392 OA
HETATM   15  H14 UNL     1      24.761   7.984  51.151  1.00  0.00     0.210 HD
ENDBRANCH  13  14
BRANCH  13  16
HETATM   16  C17 UNL     1      21.690   7.156  50.983  1.00  0.00     0.150 C 
BRANCH  16  17
HETATM   17  N4  UNL     1      21.209   7.750  49.824  1.00  0.00    -0.406 N 
HETATM   18  C18 UNL     1      22.138   8.046  48.786  1.00  0.00     0.143 C 
HETATM   19  C19 UNL     1      22.138   9.540  48.554  1.00  0.00     0.187 C 
HETATM   20  O4  UNL     1      20.889  10.044  48.286  1.00  0.00    -0.388 OA
HETATM   21  C20 UNL     1      19.873   9.108  48.422  1.00  0.00     0.187 C 
HETATM   22  C21 UNL     1      19.978   8.433  49.798  1.00  0.00     0.143 C 
ENDBRANCH  16  17
ENDBRANCH  13  16
ENDBRANCH  12  13
ENDBRANCH  11  12
ENDBRANCH  10  11
BRANCH   1  23
HETATM   23  O1  UNL     1      19.477   3.854  52.006  1.00  0.00    -0.353 OA
HETATM   24  C1  UNL     1      18.235   3.306  51.566  1.00  0.00     0.210 C 
ENDBRANCH   1  23
BRANCH   7  25
HETATM   25  N3  UNL     1      25.284   1.298  52.666  1.00  0.00    -0.340 N 
HETATM   26  H6  UNL     1      25.337   2.155  52.111  1.00  0.00     0.167 HD
BRANCH  25  27
HETATM   27  C7  UNL     1      26.411   0.622  53.154  1.00  0.00     0.034 A 
HETATM   28  C8  UNL     1      26.978   0.958  54.325  1.00  0.00     0.045 A 
HETATM   29  C9  UNL     1      28.174   0.128  54.691  1.00  0.00     0.240 A 
HETATM   30  F1  UNL     1      29.309   0.920  54.664  1.00  0.00    -0.239 F 
HETATM   31  C10 UNL     1      28.214  -0.786  53.499  1.00  0.00     0.051 A 
HETATM   32 CL1  UNL     1      29.408  -2.024  53.310  1.00  0.00    -0.086 Cl
HETATM   33  C11 UNL     1      27.228  -0.483  52.675  1.00  0.00     0.052 A 
ENDBRANCH  25  27
ENDBRANCH   7  25
TORSDOF 9
ENDMDL
MODEL 6
REMARK VINA RESULT:      -7.5      3.494      5.979
REMARK  9 active torsions:
REMARK  status: ('A' for Active; 'I' for Inactive)
REMARK    1  A    between atoms: O1_2  and  C2_3 
REMARK    2  A    between atoms: C6_9  and  N3_10 
REMARK    3  A    between atoms: N3_10  and  C7_11 
REMARK    4  A    between atoms: C14_20  and  O2_21 
REMARK    5  A    between atoms: O2_21  and  C15_22 
REMARK    6  A    between atoms: C15_22  and  C16_23 
REMARK    7  A    between atoms: C16_23  and  O3_24 
REMARK    8  A    between atoms: C16_23  and  C17_25 
REMARK    9  A    between atoms: C17_25  and  N4_26 
ROOT
HETATM    1  C2  UNL     1      27.602   1.512  53.184  1.00  0.00     0.103 A 
HETATM    2  C3  UNL     1      27.171   0.660  54.193  1.00  0.00     0.072 A 
HETATM    3  C4  UNL     1      25.875   0.218  54.035  1.00  0.00     0.075 A 
HETATM    4  N1  UNL     1      25.411  -0.607  55.003  1.00  0.00    -0.241 NA
HETATM    5  C5  UNL     1      24.167  -1.111  54.989  1.00  0.00     0.236 A 
HETATM    6  N2  UNL     1      23.348  -0.779  53.967  1.00  0.00    -0.224 NA
HETATM    7  C6  UNL     1      23.721   0.031  52.967  1.00  0.00     0.142 A 
HETATM    8  C12 UNL     1      25.005   0.530  53.012  1.00  0.00     0.042 A 
HETATM    9  C13 UNL     1      25.497   1.390  52.029  1.00  0.00     0.057 A 
HETATM   10  C14 UNL     1      26.797   1.873  52.129  1.00  0.00     0.103 A 
ENDROOT
BRANCH  10  11
HETATM   11  O2  UNL     1      27.126   2.700  51.093  1.00  0.00    -0.346 OA
BRANCH  11  12
HETATM   12  C15 UNL     1      26.473   2.705  49.843  1.00  0.00     0.209 C 
BRANCH  12  13
HETATM   13  C16 UNL     1      26.459   4.179  49.378  1.00  0.00     0.160 C 
BRANCH  13  14
HETATM   14  O3  UNL     1      27.722   4.740  49.537  1.00  0.00    -0.392 OA
HETATM   15  H14 UNL     1      28.125   4.517  50.409  1.00  0.00     0.210 HD
ENDBRANCH  13  14
BRANCH  13  16
HETATM   16  C17 UNL     1      25.449   4.928  50.257  1.00  0.00     0.150 C 
BRANCH  16  17
HETATM   17  N4  UNL     1      25.068   6.124  49.664  1.00  0.00    -0.406 N 
HETATM   18  C18 UNL     1      25.361   7.337  50.350  1.00  0.00     0.143 C 
HETATM   19  C19 UNL     1      24.059   8.042  50.656  1.00  0.00     0.187 C 
HETATM   20  O4  UNL     1      23.286   8.254  49.541  1.00  0.00    -0.388 OA
HETATM   21  C20 UNL     1      23.792   7.658  48.394  1.00  0.00     0.187 C 
HETATM   22  C21 UNL     1      24.072   6.173  48.669  1.00  0.00     0.143 C 
ENDBRANCH  16  17
ENDBRANCH  13  16
ENDBRANCH  12  13
ENDBRANCH  11  12
ENDBRANCH  10  11
BRANCH   1  23
HETATM   23  O1  UNL     1      28.888   2.041  53.204  1.00  0.00    -0.353 OA
HETATM   24  C1  UNL     1      29.671   2.057  54.398  1.00  0.00     0.210 C 
ENDBRANCH   1  23
BRANCH   7  25
HETATM   25  N3  UNL     1      22.864   0.400  51.896  1.00  0.00    -0.340 N 
HETATM   26  H6  UNL     1      22.766  -0.257  51.118  1.00  0.00     0.167 HD
BRANCH  25  27
HETATM   27  C7  UNL     1      22.202   1.634  51.953  1.00  0.00     0.034 A 
HETATM   28  C8  UNL     1      21.057   1.786  52.638  1.00  0.00     0.045 A 
HETATM   29  C9  UNL     1      20.489   3.174  52.592  1.00  0.00     0.240 A 
HETATM   30  F1  UNL     1      19.297   3.160  51.886  1.00  0.00    -0.239 F 
HETATM   31  C10 UNL     1      21.530   3.838  51.737  1.00  0.00     0.051 A 
HETATM   32 CL1  UNL     1      21.452   5.509  51.296  1.00  0.00    -0.086 Cl
HETATM   33  C11 UNL     1      22.457   2.958  51.404  1.00  0.00     0.052 A 
ENDBRANCH  25  27
ENDBRANCH   7  25
TORSDOF 9
ENDMDL
MODEL 7
REMARK VINA RESULT:      -7.5      2.060      3.174
REMARK  9 active torsions:
REMARK  status: ('A' for Active; 'I' for Inactive)
REMARK    1  A    between atoms: O1_2  and  C2_3 
REMARK    2  A    between atoms: C6_9  and  N3_10 
REMARK    3  A    between atoms: N3_10  and  C7_11 
REMARK    4  A    between atoms: C14_20  and  O2_21 
REMARK    5  A    between atoms: O2_21  and  C15_22 
REMARK    6  A    between atoms: C15_22  and  C16_23 
REMARK    7  A    between atoms: C16_23  and  O3_24 
REMARK    8  A    between atoms: C16_23  and  C17_25 
REMARK    9  A    between atoms: C17_25  and  N4_26 
ROOT
HETATM    1  C2  UNL     1      22.384   2.119  49.525  1.00  0.00     0.103 A 
HETATM    2  C3  UNL     1      21.618   1.181  50.207  1.00  0.00     0.072 A 
HETATM    3  C4  UNL     1      22.179   0.758  51.392  1.00  0.00     0.075 A 
HETATM    4  N1  UNL     1      21.469  -0.164  52.084  1.00  0.00    -0.241 NA
HETATM    5  C5  UNL     1      21.892  -0.677  53.251  1.00  0.00     0.236 A 
HETATM    6  N2  UNL     1      23.074  -0.252  53.751  1.00  0.00    -0.224 NA
HETATM    7  C6  UNL     1      23.842   0.655  53.135  1.00  0.00     0.142 A 
HETATM    8  C12 UNL     1      23.378   1.161  51.940  1.00  0.00     0.042 A 
HETATM    9  C13 UNL     1      24.100   2.105  51.207  1.00  0.00     0.057 A 
HETATM   10  C14 UNL     1      23.590   2.573  50.002  1.00  0.00     0.103 A 
ENDROOT
BRANCH  10  11
HETATM   11  O2  UNL     1      24.414   3.487  49.409  1.00  0.00    -0.346 OA
BRANCH  11  12
HETATM   12  C15 UNL     1      25.480   4.138  50.064  1.00  0.00     0.209 C 
BRANCH  12  13
HETATM   13  C16 UNL     1      25.192   5.651  49.944  1.00  0.00     0.160 C 
BRANCH  13  14
HETATM   14  O3  UNL     1      26.364   6.375  50.135  1.00  0.00    -0.392 OA
HETATM   15  H14 UNL     1      27.150   5.930  49.741  1.00  0.00     0.210 HD
ENDBRANCH  13  14
BRANCH  13  16
HETATM   16  C17 UNL     1      24.180   6.014  51.039  1.00  0.00     0.150 C 
BRANCH  16  17
HETATM   17  N4  UNL     1      22.986   6.454  50.483  1.00  0.00    -0.406 N 
HETATM   18  C18 UNL     1      21.784   6.233  51.214  1.00  0.00     0.143 C 
HETATM   19  C19 UNL     1      20.875   5.352  50.388  1.00  0.00     0.187 C 
HETATM   20  O4  UNL     1      20.631   5.856  49.134  1.00  0.00    -0.388 OA
HETATM   21  C20 UNL     1      21.375   6.989  48.837  1.00  0.00     0.187 C 
HETATM   22  C21 UNL     1      22.862   6.710  49.104  1.00  0.00     0.143 C 
ENDBRANCH  16  17
ENDBRANCH  13  16
ENDBRANCH  12  13
ENDBRANCH  11  12
ENDBRANCH  10  11
BRANCH   1  23
HETATM   23  O1  UNL     1      21.949   2.641  48.312  1.00  0.00    -0.353 OA
HETATM   24  C1  UNL     1      20.583   2.560  47.909  1.00  0.00     0.210 C 
ENDBRANCH   1  23
BRANCH   7  25
HETATM   25  N3  UNL     1      25.093   1.097  53.643  1.00  0.00    -0.340 N 
HETATM   26  H6  UNL     1      25.114   1.987  54.147  1.00  0.00     0.167 HD
BRANCH  25  27
HETATM   27  C7  UNL     1      26.229   0.302  53.430  1.00  0.00     0.034 A 
HETATM   28  C8  UNL     1      26.227  -0.699  52.535  1.00  0.00     0.045 A 
HETATM   29  C9  UNL     1      27.527  -1.442  52.437  1.00  0.00     0.240 A 
HETATM   30  F1  UNL     1      27.353  -2.735  52.903  1.00  0.00    -0.239 F 
HETATM   31  C10 UNL     1      28.323  -0.681  53.459  1.00  0.00     0.051 A 
HETATM   32 CL1  UNL     1      29.968  -1.061  53.835  1.00  0.00    -0.086 Cl
HETATM   33  C11 UNL     1      27.574   0.271  53.984  1.00  0.00     0.052 A 
ENDBRANCH  25  27
ENDBRANCH   7  25
TORSDOF 9
ENDMDL
MODEL 8
REMARK VINA RESULT:      -7.5      4.466      8.430
REMARK  9 active torsions:
REMARK  status: ('A' for Active; 'I' for Inactive)
REMARK    1  A    between atoms: O1_2  and  C2_3 
REMARK    2  A    between atoms: C6_9  and  N3_10 
REMARK    3  A    between atoms: N3_10  and  C7_11 
REMARK    4  A    between atoms: C14_20  and  O2_21 
REMARK    5  A    between atoms: O2_21  and  C15_22 
REMARK    6  A    between atoms: C15_22  and  C16_23 
REMARK    7  A    between atoms: C16_23  and  O3_24 
REMARK    8  A    between atoms: C16_23  and  C17_25 
REMARK    9  A    between atoms: C17_25  and  N4_26 
ROOT
HETATM    1  C2  UNL     1      26.128   6.195  48.934  1.00  0.00     0.103 A 
HETATM    2  C3  UNL     1      26.721   7.391  48.546  1.00  0.00     0.072 A 
HETATM    3  C4  UNL     1      28.036   7.261  48.157  1.00  0.00     0.075 A 
HETATM    4  N1  UNL     1      28.655   8.405  47.781  1.00  0.00    -0.241 NA
HETATM    5  C5  UNL     1      29.937   8.438  47.384  1.00  0.00     0.236 A 
HETATM    6  N2  UNL     1      30.635   7.281  47.361  1.00  0.00    -0.224 NA
HETATM    7  C6  UNL     1      30.105   6.103  47.717  1.00  0.00     0.142 A 
HETATM    8  C12 UNL     1      28.787   6.105  48.118  1.00  0.00     0.042 A 
HETATM    9  C13 UNL     1      28.135   4.938  48.519  1.00  0.00     0.057 A 
HETATM   10  C14 UNL     1      26.806   4.999  48.924  1.00  0.00     0.103 A 
ENDROOT
BRANCH  10  11
HETATM   11  O2  UNL     1      26.316   3.776  49.286  1.00  0.00    -0.346 OA
BRANCH  11  12
HETATM   12  C15 UNL     1      26.583   3.146  50.519  1.00  0.00     0.209 C 
BRANCH  12  13
HETATM   13  C16 UNL     1      25.222   3.037  51.242  1.00  0.00     0.160 C 
BRANCH  13  14
HETATM   14  O3  UNL     1      24.781   4.302  51.620  1.00  0.00    -0.392 OA
HETATM   15  H14 UNL     1      24.830   4.441  52.594  1.00  0.00     0.210 HD
ENDBRANCH  13  14
BRANCH  13  16
HETATM   16  C17 UNL     1      25.433   2.172  52.492  1.00  0.00     0.150 C 
BRANCH  16  17
HETATM   17  N4  UNL     1      24.517   1.130  52.533  1.00  0.00    -0.406 N 
HETATM   18  C18 UNL     1      23.302   1.275  51.805  1.00  0.00     0.143 C 
HETATM   19  C19 UNL     1      22.149   1.218  52.781  1.00  0.00     0.187 C 
HETATM   20  O4  UNL     1      22.154   0.084  53.555  1.00  0.00    -0.388 OA
HETATM   21  C20 UNL     1      23.285  -0.701  53.380  1.00  0.00     0.187 C 
HETATM   22  C21 UNL     1      24.542   0.163  53.557  1.00  0.00     0.143 C 
ENDBRANCH  16  17
ENDBRANCH  13  16
ENDBRANCH  12  13
ENDBRANCH  11  12
ENDBRANCH  10  11
BRANCH   1  23
HETATM   23  O1  UNL     1      24.803   6.164  49.353  1.00  0.00    -0.353 OA
HETATM   24  C1  UNL     1      23.724   6.109  48.421  1.00  0.00     0.210 C 
ENDBRANCH   1  23
BRANCH   7  25
HETATM   25  N3  UNL     1      30.833   4.883  47.712  1.00  0.00    -0.340 N 
HETATM   26  H6  UNL     1      30.302   4.013  47.623  1.00  0.00     0.167 HD
BRANCH  25  27
HETATM   27  C7  UNL     1      32.229   4.928  47.833  1.00  0.00     0.034 A 
HETATM   28  C8  UNL     1      33.028   4.247  46.995  1.00  0.00     0.045 A 
HETATM   29  C9  UNL     1      34.495   4.411  47.270  1.00  0.00     0.240 A 
HETATM   30  F1  UNL     1      35.019   3.205  47.703  1.00  0.00    -0.239 F 
HETATM   31  C10 UNL     1      34.421   5.338  48.450  1.00  0.00     0.051 A 
HETATM   32 CL1  UNL     1      35.829   5.927  49.266  1.00  0.00    -0.086 Cl
HETATM   33  C11 UNL     1      33.158   5.599  48.730  1.00  0.00     0.052 A 
ENDBRANCH  25  27
ENDBRANCH   7  25
TORSDOF 9
ENDMDL
MODEL 9
REMARK VINA RESULT:      -7.5      4.018      7.750
REMARK  9 active torsions:
REMARK  status: ('A' for Active; 'I' for Inactive)
REMARK    1  A    between atoms: O1_2  and  C2_3 
REMARK    2  A    between atoms: C6_9  and  N3_10 
REMARK    3  A    between atoms: N3_10  and  C7_11 
REMARK    4  A    between atoms: C14_20  and  O2_21 
REMARK    5  A    between atoms: O2_21  and  C15_22 
REMARK    6  A    between atoms: C15_22  and  C16_23 
REMARK    7  A    between atoms: C16_23  and  O3_24 
REMARK    8  A    between atoms: C16_23  and  C17_25 
REMARK    9  A    between atoms: C17_25  and  N4_26 
ROOT
HETATM    1  C2  UNL     1      24.038   6.063  49.271  1.00  0.00     0.103 A 
HETATM    2  C3  UNL     1      24.361   7.016  48.312  1.00  0.00     0.072 A 
HETATM    3  C4  UNL     1      25.705   7.078  48.016  1.00  0.00     0.075 A 
HETATM    4  N1  UNL     1      26.064   8.002  47.094  1.00  0.00    -0.241 NA
HETATM    5  C5  UNL     1      27.337   8.185  46.709  1.00  0.00     0.236 A 
HETATM    6  N2  UNL     1      28.296   7.413  47.268  1.00  0.00    -0.224 NA
HETATM    7  C6  UNL     1      28.033   6.476  48.189  1.00  0.00     0.142 A 
HETATM    8  C12 UNL     1      26.717   6.315  48.559  1.00  0.00     0.042 A 
HETATM    9  C13 UNL     1      26.329   5.375  49.516  1.00  0.00     0.057 A 
HETATM   10  C14 UNL     1      24.987   5.262  49.861  1.00  0.00     0.103 A 
ENDROOT
BRANCH  10  11
HETATM   11  O2  UNL     1      24.773   4.301  50.809  1.00  0.00    -0.346 OA
BRANCH  11  12
HETATM   12  C15 UNL     1      24.971   2.921  50.598  1.00  0.00     0.209 C 
BRANCH  12  13
HETATM   13  C16 UNL     1      25.452   2.350  51.952  1.00  0.00     0.160 C 
BRANCH  13  14
HETATM   14  O3  UNL     1      25.054   3.188  52.989  1.00  0.00    -0.392 OA
HETATM   15  H14 UNL     1      25.768   3.326  53.655  1.00  0.00     0.210 HD
ENDBRANCH  13  14
BRANCH  13  16
HETATM   16  C17 UNL     1      26.984   2.284  51.903  1.00  0.00     0.150 C 
BRANCH  16  17
HETATM   17  N4  UNL     1      27.458   1.231  52.673  1.00  0.00    -0.406 N 
HETATM   18  C18 UNL     1      26.687   0.034  52.721  1.00  0.00     0.143 C 
HETATM   19  C19 UNL     1      26.265  -0.208  54.152  1.00  0.00     0.187 C 
HETATM   20  O4  UNL     1      27.322  -0.240  55.028  1.00  0.00    -0.388 OA
HETATM   21  C20 UNL     1      28.536   0.092  54.444  1.00  0.00     0.187 C 
HETATM   22  C21 UNL     1      28.399   1.430  53.702  1.00  0.00     0.143 C 
ENDBRANCH  16  17
ENDBRANCH  13  16
ENDBRANCH  12  13
ENDBRANCH  11  12
ENDBRANCH  10  11
BRANCH   1  23
HETATM   23  O1  UNL     1      22.721   5.882  49.675  1.00  0.00    -0.353 OA
HETATM   24  C1  UNL     1      22.039   6.857  50.462  1.00  0.00     0.210 C 
ENDBRANCH   1  23
BRANCH   7  25
HETATM   25  N3  UNL     1      29.035   5.671  48.795  1.00  0.00    -0.340 N 
HETATM   26  H6  UNL     1      28.728   4.911  49.406  1.00  0.00     0.167 HD
BRANCH  25  27
HETATM   27  C7  UNL     1      30.383   5.957  48.532  1.00  0.00     0.034 A 
HETATM   28  C8  UNL     1      31.113   5.194  47.702  1.00  0.00     0.045 A 
HETATM   29  C9  UNL     1      32.535   5.646  47.538  1.00  0.00     0.240 A 
HETATM   30  F1  UNL     1      33.384   4.704  48.094  1.00  0.00    -0.239 F 
HETATM   31  C10 UNL     1      32.516   6.848  48.440  1.00  0.00     0.051 A 
HETATM   32 CL1  UNL     1      33.906   7.846  48.696  1.00  0.00    -0.086 Cl
HETATM   33  C11 UNL     1      31.315   6.985  48.970  1.00  0.00     0.052 A 
ENDBRANCH  25  27
ENDBRANCH   7  25
TORSDOF 9
ENDMDL
