MODEL 1
REMARK VINA RESULT:      -7.8      0.000      0.000
REMARK  3 active torsions:
REMARK  status: ('A' for Active; 'I' for Inactive)
REMARK    1  A    between atoms: C5_5  and  S1_6 
REMARK    2  A    between atoms: S1_6  and  N1_9 
REMARK       I    between atoms: N1_9  and  C6_10 
REMARK    3  A    between atoms: C6_10  and  C7_12 
ROOT
HETATM    1  N1  UNL     1      25.549   3.862  51.181  1.00  0.00    -0.245 N 
HETATM    2  C6  UNL     1      26.370   3.806  50.029  1.00  0.00     0.281 C 
HETATM    3  O3  UNL     1      26.766   2.643  49.695  1.00  0.00    -0.265 OA
HETATM    4  H6  UNL     1      25.193   4.796  51.501  1.00  0.00     0.182 HD
ENDROOT
BRANCH   1   5
HETATM    5  S1  UNL     1      25.117   2.470  52.064  1.00  0.00     0.265 S 
HETATM    6  O1  UNL     1      24.332   2.934  53.285  1.00  0.00    -0.200 OA
HETATM    7  O2  UNL     1      24.109   1.614  51.306  1.00  0.00    -0.200 OA
BRANCH   5   8
HETATM    8  C5  UNL     1      26.484   1.493  52.554  1.00  0.00     0.080 A 
HETATM    9  C4  UNL     1      27.642   2.028  53.079  1.00  0.00     0.026 A 
HETATM   10  C3  UNL     1      28.755   1.324  53.482  1.00  0.00     0.008 A 
HETATM   11  C2  UNL     1      28.662  -0.047  53.328  1.00  0.00    -0.062 A 
HETATM   12  C1  UNL     1      29.863  -0.841  53.759  1.00  0.00     0.048 C 
HETATM   13  C13 UNL     1      27.550  -0.674  52.815  1.00  0.00     0.008 A 
HETATM   14  C12 UNL     1      26.489   0.117  52.441  1.00  0.00     0.026 A 
ENDBRANCH   5   8
ENDBRANCH   1   5
BRANCH   2  15
HETATM   15  C7  UNL     1      26.755   4.955  49.259  1.00  0.00     0.097 A 
HETATM   16  C8  UNL     1      25.934   5.864  48.833  1.00  0.00     0.036 A 
HETATM   17  C9  UNL     1      26.319   7.044  48.045  1.00  0.00     0.023 A 
HETATM   18  C10 UNL     1      27.622   7.161  47.761  1.00  0.00     0.029 A 
HETATM   19 CL1  UNL     1      28.063   8.591  46.811  1.00  0.00    -0.087 Cl
HETATM   20  C11 UNL     1      28.700   6.221  48.161  1.00  0.00     0.171 A 
HETATM   21  N2  UNL     1      28.118   5.152  48.915  1.00  0.00    -0.380 N 
HETATM   22  H11 UNL     1      28.856   4.477  49.208  1.00  0.00     0.160 HD
ENDBRANCH   2  15
TORSDOF 3
ENDMDL
MODEL 2
REMARK VINA RESULT:      -7.1      2.121      2.599
REMARK  3 active torsions:
REMARK  status: ('A' for Active; 'I' for Inactive)
REMARK    1  A    between atoms: C5_5  and  S1_6 
REMARK    2  A    between atoms: S1_6  and  N1_9 
REMARK       I    between atoms: N1_9  and  C6_10 
REMARK    3  A    between atoms: C6_10  and  C7_12 
ROOT
HETATM    1  N1  UNL     1      24.812   5.444  51.161  1.00  0.00    -0.245 N 
HETATM    2  C6  UNL     1      25.400   5.600  49.882  1.00  0.00     0.281 C 
HETATM    3  O3  UNL     1      25.094   4.708  49.026  1.00  0.00    -0.265 OA
HETATM    4  H6  UNL     1      25.030   6.150  51.905  1.00  0.00     0.182 HD
ENDROOT
BRANCH   1   5
HETATM    5  S1  UNL     1      23.766   4.151  51.534  1.00  0.00     0.265 S 
HETATM    6  O1  UNL     1      22.934   4.576  52.738  1.00  0.00    -0.200 OA
HETATM    7  O2  UNL     1      22.720   3.943  50.444  1.00  0.00    -0.200 OA
BRANCH   5   8
HETATM    8  C5  UNL     1      24.594   2.646  51.865  1.00  0.00     0.080 A 
HETATM    9  C4  UNL     1      25.890   2.396  51.467  1.00  0.00     0.026 A 
HETATM   10  C3  UNL     1      26.602   1.238  51.689  1.00  0.00     0.008 A 
HETATM   11  C2  UNL     1      25.914   0.257  52.380  1.00  0.00    -0.062 A 
HETATM   12  C1  UNL     1      26.667  -1.018  52.636  1.00  0.00     0.048 C 
HETATM   13  C13 UNL     1      24.620   0.412  52.819  1.00  0.00     0.008 A 
HETATM   14  C12 UNL     1      23.994   1.606  52.548  1.00  0.00     0.026 A 
ENDBRANCH   5   8
ENDBRANCH   1   5
BRANCH   2  15
HETATM   15  C7  UNL     1      26.285   6.674  49.530  1.00  0.00     0.097 A 
HETATM   16  C8  UNL     1      27.023   6.700  48.464  1.00  0.00     0.036 A 
HETATM   17  C9  UNL     1      27.933   7.795  48.095  1.00  0.00     0.023 A 
HETATM   18  C10 UNL     1      27.980   8.830  48.944  1.00  0.00     0.029 A 
HETATM   19 CL1  UNL     1      29.081  10.138  48.479  1.00  0.00    -0.087 Cl
HETATM   20  C11 UNL     1      27.212   8.970  50.207  1.00  0.00     0.171 A 
HETATM   21  N2  UNL     1      26.395   7.807  50.378  1.00  0.00    -0.380 N 
HETATM   22  H11 UNL     1      25.844   7.882  51.259  1.00  0.00     0.160 HD
ENDBRANCH   2  15
TORSDOF 3
ENDMDL
MODEL 3
REMARK VINA RESULT:      -7.0      5.574      7.395
REMARK  3 active torsions:
REMARK  status: ('A' for Active; 'I' for Inactive)
REMARK    1  A    between atoms: C5_5  and  S1_6 
REMARK    2  A    between atoms: S1_6  and  N1_9 
REMARK       I    between atoms: N1_9  and  C6_10 
REMARK    3  A    between atoms: C6_10  and  C7_12 
ROOT
HETATM    1  N1  UNL     1      23.223   0.900  52.687  1.00  0.00    -0.245 N 
HETATM    2  C6  UNL     1      21.913   1.397  52.474  1.00  0.00     0.281 C 
HETATM    3  O3  UNL     1      21.840   2.632  52.171  1.00  0.00    -0.265 OA
HETATM    4  H6  UNL     1      23.343  -0.111  52.940  1.00  0.00     0.182 HD
ENDROOT
BRANCH   1   5
HETATM    5  S1  UNL     1      24.608   1.883  52.547  1.00  0.00     0.265 S 
HETATM    6  O1  UNL     1      24.608   2.464  51.138  1.00  0.00    -0.200 OA
HETATM    7  O2  UNL     1      24.511   3.119  53.434  1.00  0.00    -0.200 OA
BRANCH   5   8
HETATM    8  C5  UNL     1      26.108   1.038  52.859  1.00  0.00     0.080 A 
HETATM    9  C4  UNL     1      27.251   1.670  53.300  1.00  0.00     0.026 A 
HETATM   10  C3  UNL     1      28.463   1.072  53.563  1.00  0.00     0.008 A 
HETATM   11  C2  UNL     1      28.495  -0.294  53.350  1.00  0.00    -0.062 A 
HETATM   12  C1  UNL     1      29.807  -0.974  53.628  1.00  0.00     0.048 C 
HETATM   13  C13 UNL     1      27.408  -1.014  52.911  1.00  0.00     0.008 A 
HETATM   14  C12 UNL     1      26.241  -0.325  52.678  1.00  0.00     0.026 A 
ENDBRANCH   5   8
ENDBRANCH   1   5
BRANCH   2  15
HETATM   15  C7  UNL     1      20.724   0.602  52.583  1.00  0.00     0.097 A 
HETATM   16  C8  UNL     1      20.501  -0.264  53.522  1.00  0.00     0.036 A 
HETATM   17  C9  UNL     1      19.285  -1.083  53.641  1.00  0.00     0.023 A 
HETATM   18  C10 UNL     1      18.357  -0.898  52.694  1.00  0.00     0.029 A 
HETATM   19 CL1  UNL     1      16.901  -1.895  52.858  1.00  0.00    -0.087 Cl
HETATM   20  C11 UNL     1      18.442   0.042  51.548  1.00  0.00     0.171 A 
HETATM   21  N2  UNL     1      19.692   0.737  51.617  1.00  0.00    -0.380 N 
HETATM   22  H11 UNL     1      19.776   1.405  50.822  1.00  0.00     0.160 HD
ENDBRANCH   2  15
TORSDOF 3
ENDMDL
MODEL 4
REMARK VINA RESULT:      -7.0      3.296      7.354
REMARK  3 active torsions:
REMARK  status: ('A' for Active; 'I' for Inactive)
REMARK    1  A    between atoms: C5_5  and  S1_6 
REMARK    2  A    between atoms: S1_6  and  N1_9 
REMARK       I    between atoms: N1_9  and  C6_10 
REMARK    3  A    between atoms: C6_10  and  C7_12 
ROOT
HETATM    1  N1  UNL     1      26.450   3.983  50.474  1.00  0.00    -0.245 N 
HETATM    2  C6  UNL     1      25.946   3.013  51.376  1.00  0.00     0.281 C 
HETATM    3  O3  UNL     1      24.694   3.075  51.602  1.00  0.00    -0.265 OA
HETATM    4  H6  UNL     1      27.475   3.978  50.251  1.00  0.00     0.182 HD
ENDROOT
BRANCH   1   5
HETATM    5  S1  UNL     1      25.452   5.154  49.740  1.00  0.00     0.265 S 
HETATM    6  O1  UNL     1      24.349   4.407  49.001  1.00  0.00    -0.200 OA
HETATM    7  O2  UNL     1      24.688   5.969  50.777  1.00  0.00    -0.200 OA
BRANCH   5   8
HETATM    8  C5  UNL     1      26.304   6.221  48.646  1.00  0.00     0.080 A 
HETATM    9  C4  UNL     1      27.665   6.152  48.435  1.00  0.00     0.026 A 
HETATM   10  C3  UNL     1      28.401   6.958  47.594  1.00  0.00     0.008 A 
HETATM   11  C2  UNL     1      27.667   7.915  46.917  1.00  0.00    -0.062 A 
HETATM   12  C1  UNL     1      28.445   8.809  45.993  1.00  0.00     0.048 C 
HETATM   13  C13 UNL     1      26.307   8.062  47.061  1.00  0.00     0.008 A 
HETATM   14  C12 UNL     1      25.661   7.207  47.924  1.00  0.00     0.026 A 
ENDBRANCH   5   8
ENDBRANCH   1   5
BRANCH   2  15
HETATM   15  C7  UNL     1      26.753   2.013  52.014  1.00  0.00     0.097 A 
HETATM   16  C8  UNL     1      26.562   0.734  51.905  1.00  0.00     0.036 A 
HETATM   17  C9  UNL     1      27.384  -0.298  52.555  1.00  0.00     0.023 A 
HETATM   18  C10 UNL     1      28.398   0.147  53.308  1.00  0.00     0.029 A 
HETATM   19 CL1  UNL     1      29.375  -1.115  54.080  1.00  0.00    -0.087 Cl
HETATM   20  C11 UNL     1      28.762   1.565  53.548  1.00  0.00     0.171 A 
HETATM   21  N2  UNL     1      27.847   2.401  52.831  1.00  0.00    -0.380 N 
HETATM   22  H11 UNL     1      28.082   3.404  52.983  1.00  0.00     0.160 HD
ENDBRANCH   2  15
TORSDOF 3
ENDMDL
MODEL 5
REMARK VINA RESULT:      -6.8      4.766      7.107
REMARK  3 active torsions:
REMARK  status: ('A' for Active; 'I' for Inactive)
REMARK    1  A    between atoms: C5_5  and  S1_6 
REMARK    2  A    between atoms: S1_6  and  N1_9 
REMARK       I    between atoms: N1_9  and  C6_10 
REMARK    3  A    between atoms: C6_10  and  C7_12 
ROOT
HETATM    1  N1  UNL     1      24.950   2.741  51.744  1.00  0.00    -0.245 N 
HETATM    2  C6  UNL     1      25.130   1.839  52.822  1.00  0.00     0.281 C 
HETATM    3  O3  UNL     1      24.126   1.698  53.591  1.00  0.00    -0.265 OA
HETATM    4  H6  UNL     1      25.745   2.895  51.078  1.00  0.00     0.182 HD
ENDROOT
BRANCH   1   5
HETATM    5  S1  UNL     1      23.488   3.580  51.490  1.00  0.00     0.265 S 
HETATM    6  O1  UNL     1      23.379   4.636  52.582  1.00  0.00    -0.200 OA
HETATM    7  O2  UNL     1      23.530   4.405  50.209  1.00  0.00    -0.200 OA
BRANCH   5   8
HETATM    8  C5  UNL     1      22.074   2.550  51.494  1.00  0.00     0.080 A 
HETATM    9  C4  UNL     1      21.977   1.401  50.738  1.00  0.00     0.026 A 
HETATM   10  C3  UNL     1      20.898   0.546  50.689  1.00  0.00     0.008 A 
HETATM   11  C2  UNL     1      19.830   0.912  51.488  1.00  0.00    -0.062 A 
HETATM   12  C1  UNL     1      18.638  -0.003  51.453  1.00  0.00     0.048 C 
HETATM   13  C13 UNL     1      19.831   2.039  52.277  1.00  0.00     0.008 A 
HETATM   14  C12 UNL     1      20.957   2.829  52.257  1.00  0.00     0.026 A 
ENDBRANCH   5   8
ENDBRANCH   1   5
BRANCH   2  15
HETATM   15  C7  UNL     1      26.344   1.115  53.069  1.00  0.00     0.097 A 
HETATM   16  C8  UNL     1      26.575  -0.095  52.664  1.00  0.00     0.036 A 
HETATM   17  C9  UNL     1      27.815  -0.845  52.913  1.00  0.00     0.023 A 
HETATM   18  C10 UNL     1      28.759  -0.203  53.612  1.00  0.00     0.029 A 
HETATM   19 CL1  UNL     1      30.245  -1.125  53.898  1.00  0.00    -0.087 Cl
HETATM   20  C11 UNL     1      28.670   1.176  54.156  1.00  0.00     0.171 A 
HETATM   21  N2  UNL     1      27.395   1.724  53.805  1.00  0.00    -0.380 N 
HETATM   22  H11 UNL     1      27.307   2.694  54.176  1.00  0.00     0.160 HD
ENDBRANCH   2  15
TORSDOF 3
ENDMDL
MODEL 6
REMARK VINA RESULT:      -6.8      3.630      4.555
REMARK  3 active torsions:
REMARK  status: ('A' for Active; 'I' for Inactive)
REMARK    1  A    between atoms: C5_5  and  S1_6 
REMARK    2  A    between atoms: S1_6  and  N1_9 
REMARK       I    between atoms: N1_9  and  C6_10 
REMARK    3  A    between atoms: C6_10  and  C7_12 
ROOT
HETATM    1  N1  UNL     1      22.542   3.312  50.295  1.00  0.00    -0.245 N 
HETATM    2  C6  UNL     1      23.619   3.981  50.926  1.00  0.00     0.281 C 
HETATM    3  O3  UNL     1      23.496   4.151  52.182  1.00  0.00    -0.265 OA
HETATM    4  H6  UNL     1      22.590   3.144  49.261  1.00  0.00     0.182 HD
ENDROOT
BRANCH   1   5
HETATM    5  S1  UNL     1      21.173   2.769  51.155  1.00  0.00     0.265 S 
HETATM    6  O1  UNL     1      20.563   3.983  51.844  1.00  0.00    -0.200 OA
HETATM    7  O2  UNL     1      20.066   2.309  50.214  1.00  0.00    -0.200 OA
BRANCH   5   8
HETATM    8  C5  UNL     1      21.526   1.517  52.324  1.00  0.00     0.080 A 
HETATM    9  C4  UNL     1      22.667   0.743  52.278  1.00  0.00     0.026 A 
HETATM   10  C3  UNL     1      23.008  -0.259  53.159  1.00  0.00     0.008 A 
HETATM   11  C2  UNL     1      22.092  -0.479  54.172  1.00  0.00    -0.062 A 
HETATM   12  C1  UNL     1      22.439  -1.568  55.148  1.00  0.00     0.048 C 
HETATM   13  C13 UNL     1      20.927   0.240  54.302  1.00  0.00     0.008 A 
HETATM   14  C12 UNL     1      20.676   1.221  53.371  1.00  0.00     0.026 A 
ENDBRANCH   5   8
ENDBRANCH   1   5
BRANCH   2  15
HETATM   15  C7  UNL     1      24.786   4.453  50.238  1.00  0.00     0.097 A 
HETATM   16  C8  UNL     1      25.762   3.696  49.841  1.00  0.00     0.036 A 
HETATM   17  C9  UNL     1      26.962   4.170  49.135  1.00  0.00     0.023 A 
HETATM   18  C10 UNL     1      27.023   5.487  48.898  1.00  0.00     0.029 A 
HETATM   19 CL1  UNL     1      28.476   6.035  48.046  1.00  0.00    -0.087 Cl
HETATM   20  C11 UNL     1      26.006   6.499  49.281  1.00  0.00     0.171 A 
HETATM   21  N2  UNL     1      24.929   5.836  49.950  1.00  0.00    -0.380 N 
HETATM   22  H11 UNL     1      24.200   6.526  50.229  1.00  0.00     0.160 HD
ENDBRANCH   2  15
TORSDOF 3
ENDMDL
MODEL 7
REMARK VINA RESULT:      -6.7      3.971      7.045
REMARK  3 active torsions:
REMARK  status: ('A' for Active; 'I' for Inactive)
REMARK    1  A    between atoms: C5_5  and  S1_6 
REMARK    2  A    between atoms: S1_6  and  N1_9 
REMARK       I    between atoms: N1_9  and  C6_10 
REMARK    3  A    between atoms: C6_10  and  C7_12 
ROOT
HETATM    1  N1  UNL     1      24.459   3.545  52.072  1.00  0.00    -0.245 N 
HETATM    2  C6  UNL     1      25.699   3.150  51.512  1.00  0.00     0.281 C 
HETATM    3  O3  UNL     1      26.045   3.774  50.458  1.00  0.00    -0.265 OA
HETATM    4  H6  UNL     1      24.124   3.065  52.943  1.00  0.00     0.182 HD
ENDROOT
BRANCH   1   5
HETATM    5  S1  UNL     1      23.493   4.770  51.384  1.00  0.00     0.265 S 
HETATM    6  O1  UNL     1      22.259   4.920  52.264  1.00  0.00    -0.200 OA
HETATM    7  O2  UNL     1      24.163   6.135  51.486  1.00  0.00    -0.200 OA
BRANCH   5   8
HETATM    8  C5  UNL     1      23.026   4.452  49.728  1.00  0.00     0.080 A 
HETATM    9  C4  UNL     1      22.768   3.186  49.248  1.00  0.00     0.026 A 
HETATM   10  C3  UNL     1      22.399   2.862  47.961  1.00  0.00     0.008 A 
HETATM   11  C2  UNL     1      22.291   3.938  47.099  1.00  0.00    -0.062 A 
HETATM   12  C1  UNL     1      21.891   3.613  45.687  1.00  0.00     0.048 C 
HETATM   13  C13 UNL     1      22.528   5.237  47.483  1.00  0.00     0.008 A 
HETATM   14  C12 UNL     1      22.890   5.459  48.792  1.00  0.00     0.026 A 
ENDBRANCH   5   8
ENDBRANCH   1   5
BRANCH   2  15
HETATM   15  C7  UNL     1      26.539   2.125  52.062  1.00  0.00     0.097 A 
HETATM   16  C8  UNL     1      26.338   0.852  51.916  1.00  0.00     0.036 A 
HETATM   17  C9  UNL     1      27.193  -0.205  52.475  1.00  0.00     0.023 A 
HETATM   18  C10 UNL     1      28.252   0.209  53.183  1.00  0.00     0.029 A 
HETATM   19 CL1  UNL     1      29.268  -1.083  53.846  1.00  0.00    -0.087 Cl
HETATM   20  C11 UNL     1      28.635   1.617  53.455  1.00  0.00     0.171 A 
HETATM   21  N2  UNL     1      27.681   2.480  52.827  1.00  0.00    -0.380 N 
HETATM   22  H11 UNL     1      27.928   3.477  53.003  1.00  0.00     0.160 HD
ENDBRANCH   2  15
TORSDOF 3
ENDMDL
MODEL 8
REMARK VINA RESULT:      -6.6      4.925      7.736
REMARK  3 active torsions:
REMARK  status: ('A' for Active; 'I' for Inactive)
REMARK    1  A    between atoms: C5_5  and  S1_6 
REMARK    2  A    between atoms: S1_6  and  N1_9 
REMARK       I    between atoms: N1_9  and  C6_10 
REMARK    3  A    between atoms: C6_10  and  C7_12 
ROOT
HETATM    1  N1  UNL     1      23.506   3.549  50.981  1.00  0.00    -0.245 N 
HETATM    2  C6  UNL     1      22.404   3.235  51.815  1.00  0.00     0.281 C 
HETATM    3  O3  UNL     1      21.525   4.149  51.928  1.00  0.00    -0.265 OA
HETATM    4  H6  UNL     1      24.260   2.832  50.852  1.00  0.00     0.182 HD
ENDROOT
BRANCH   1   5
HETATM    5  S1  UNL     1      23.648   5.048  50.182  1.00  0.00     0.265 S 
HETATM    6  O1  UNL     1      22.593   5.076  49.084  1.00  0.00    -0.200 OA
HETATM    7  O2  UNL     1      23.241   6.207  51.086  1.00  0.00    -0.200 OA
BRANCH   5   8
HETATM    8  C5  UNL     1      25.236   5.341  49.510  1.00  0.00     0.080 A 
HETATM    9  C4  UNL     1      26.191   4.355  49.376  1.00  0.00     0.026 A 
HETATM   10  C3  UNL     1      27.458   4.513  48.859  1.00  0.00     0.008 A 
HETATM   11  C2  UNL     1      27.762   5.798  48.449  1.00  0.00    -0.062 A 
HETATM   12  C1  UNL     1      29.140   5.999  47.883  1.00  0.00     0.048 C 
HETATM   13  C13 UNL     1      26.879   6.847  48.542  1.00  0.00     0.008 A 
HETATM   14  C12 UNL     1      25.636   6.589  49.071  1.00  0.00     0.026 A 
ENDBRANCH   5   8
ENDBRANCH   1   5
BRANCH   2  15
HETATM   15  C7  UNL     1      22.249   1.986  52.504  1.00  0.00     0.097 A 
HETATM   16  C8  UNL     1      23.228   1.209  52.850  1.00  0.00     0.036 A 
HETATM   17  C9  UNL     1      23.078  -0.072  53.556  1.00  0.00     0.023 A 
HETATM   18  C10 UNL     1      21.824  -0.437  53.850  1.00  0.00     0.029 A 
HETATM   19 CL1  UNL     1      21.668  -1.984  54.701  1.00  0.00    -0.087 Cl
HETATM   20  C11 UNL     1      20.587   0.319  53.531  1.00  0.00     0.171 A 
HETATM   21  N2  UNL     1      20.951   1.525  52.851  1.00  0.00    -0.380 N 
HETATM   22  H11 UNL     1      20.098   2.076  52.616  1.00  0.00     0.160 HD
ENDBRANCH   2  15
TORSDOF 3
ENDMDL
MODEL 9
REMARK VINA RESULT:      -6.6      6.282      7.943
REMARK  3 active torsions:
REMARK  status: ('A' for Active; 'I' for Inactive)
REMARK    1  A    between atoms: C5_5  and  S1_6 
REMARK    2  A    between atoms: S1_6  and  N1_9 
REMARK       I    between atoms: N1_9  and  C6_10 
REMARK    3  A    between atoms: C6_10  and  C7_12 
ROOT
HETATM    1  N1  UNL     1      21.510   1.967  52.224  1.00  0.00    -0.245 N 
HETATM    2  C6  UNL     1      20.969   0.936  51.417  1.00  0.00     0.281 C 
HETATM    3  O3  UNL     1      21.715   0.537  50.465  1.00  0.00    -0.265 OA
HETATM    4  H6  UNL     1      20.939   2.333  53.023  1.00  0.00     0.182 HD
ENDROOT
BRANCH   1   5
HETATM    5  S1  UNL     1      23.055   2.631  51.943  1.00  0.00     0.265 S 
HETATM    6  O1  UNL     1      23.073   3.138  50.506  1.00  0.00    -0.200 OA
HETATM    7  O2  UNL     1      23.278   3.897  52.762  1.00  0.00    -0.200 OA
BRANCH   5   8
HETATM    8  C5  UNL     1      24.366   1.504  52.209  1.00  0.00     0.080 A 
HETATM    9  C4  UNL     1      24.241   0.374  52.988  1.00  0.00     0.026 A 
HETATM   10  C3  UNL     1      25.227  -0.554  53.243  1.00  0.00     0.008 A 
HETATM   11  C2  UNL     1      26.444  -0.287  52.643  1.00  0.00    -0.062 A 
HETATM   12  C1  UNL     1      27.540  -1.282  52.905  1.00  0.00     0.048 C 
HETATM   13  C13 UNL     1      26.668   0.815  51.849  1.00  0.00     0.008 A 
HETATM   14  C12 UNL     1      25.619   1.682  51.654  1.00  0.00     0.026 A 
ENDBRANCH   5   8
ENDBRANCH   1   5
BRANCH   2  15
HETATM   15  C7  UNL     1      19.675   0.351  51.621  1.00  0.00     0.097 A 
HETATM   16  C8  UNL     1      18.689   0.432  50.782  1.00  0.00     0.036 A 
HETATM   17  C9  UNL     1      17.360  -0.163  50.983  1.00  0.00     0.023 A 
HETATM   18  C10 UNL     1      17.184  -0.835  52.128  1.00  0.00     0.029 A 
HETATM   19 CL1  UNL     1      15.575  -1.544  52.348  1.00  0.00    -0.087 Cl
HETATM   20  C11 UNL     1      18.192  -1.027  53.200  1.00  0.00     0.171 A 
HETATM   21  N2  UNL     1      19.406  -0.376  52.811  1.00  0.00    -0.380 N 
HETATM   22  H11 UNL     1      20.131  -0.497  53.549  1.00  0.00     0.160 HD
ENDBRANCH   2  15
TORSDOF 3
ENDMDL
