MODEL 1
REMARK VINA RESULT:      -6.8      0.000      0.000
REMARK  3 active torsions:
REMARK  status: ('A' for Active; 'I' for Inactive)
REMARK    1  A    between atoms: O1_2  and  P1_3 
REMARK    2  A    between atoms: P1_3  and  C2_4 
REMARK    3  A    between atoms: C2_4  and  C3_6 
ROOT
HETATM    1  C3  UNL     1      24.316   3.379  50.013  1.00  0.00     0.037 A 
HETATM    2  C4  UNL     1      23.357   2.868  49.066  1.00  0.00     0.034 A 
HETATM    3  C5  UNL     1      22.726   2.018  49.956  1.00  0.00     0.149 A 
HETATM    4  C6  UNL     1      22.291   1.289  50.958  1.00  0.00    -0.006 A 
HETATM    5  C7  UNL     1      21.366   0.356  51.133  1.00  0.00     0.011 A 
HETATM    6  C8  UNL     1      21.303  -0.189  52.386  1.00  0.00     0.001 A 
HETATM    7  C9  UNL     1      22.176   0.259  53.337  1.00  0.00     0.001 A 
HETATM    8  C10 UNL     1      23.077   1.223  53.015  1.00  0.00     0.011 A 
HETATM    9  C11 UNL     1      23.202   1.799  51.827  1.00  0.00    -0.006 A 
HETATM   10  C12 UNL     1      23.824   2.630  50.980  1.00  0.00     0.158 A 
HETATM   11  O3  UNL     1      24.451   3.099  52.195  1.00  0.00    -0.366 OA
HETATM   12  C13 UNL     1      23.751   4.393  52.475  1.00  0.00     0.171 C 
HETATM   13  C14 UNL     1      22.277   4.371  52.307  1.00  0.00     0.056 C 
HETATM   14  C15 UNL     1      21.622   4.601  51.004  1.00  0.00     0.277 C 
HETATM   15  N1  UNL     1      21.626   3.889  49.819  1.00  0.00     0.107 NA
HETATM   16  C16 UNL     1      21.103   4.861  48.785  1.00  0.00     0.312 C 
HETATM   17  C17 UNL     1      20.641   2.779  49.623  1.00  0.00     0.441 C 
HETATM   18  O4  UNL     1      21.642   1.767  48.954  1.00  0.00    -0.338 OA
ENDROOT
BRANCH   1  19
HETATM   19  C2  UNL     1      25.378   4.265  49.729  1.00  0.00     0.207 C 
HETATM   20  O2  UNL     1      26.490   3.700  49.666  1.00  0.00    -0.285 OA
BRANCH  19  21
HETATM   21  P1  UNL     1      25.653   6.033  49.419  1.00  0.00     0.088 P 
HETATM   22  H4  UNL     1      24.863   6.477  48.252  1.00  0.00     0.096 HD
BRANCH  21  23
HETATM   23  O1  UNL     1      25.260   7.041  50.740  1.00  0.00    -0.363 OA
HETATM   24  C1  UNL     1      23.992   7.572  50.553  1.00  0.00     0.207 C 
ENDBRANCH  21  23
ENDBRANCH  19  21
ENDBRANCH   1  19
TORSDOF 3
ENDMDL
MODEL 2
REMARK VINA RESULT:      -6.8      1.542      2.076
REMARK  3 active torsions:
REMARK  status: ('A' for Active; 'I' for Inactive)
REMARK    1  A    between atoms: O1_2  and  P1_3 
REMARK    2  A    between atoms: P1_3  and  C2_4 
REMARK    3  A    between atoms: C2_4  and  C3_6 
ROOT
HETATM    1  C3  UNL     1      23.477   2.694  50.007  1.00  0.00     0.037 A 
HETATM    2  C4  UNL     1      22.476   2.133  49.135  1.00  0.00     0.034 A 
HETATM    3  C5  UNL     1      21.780   1.474  50.133  1.00  0.00     0.149 A 
HETATM    4  C6  UNL     1      21.290   0.934  51.225  1.00  0.00    -0.006 A 
HETATM    5  C7  UNL     1      20.293   0.114  51.524  1.00  0.00     0.011 A 
HETATM    6  C8  UNL     1      20.190  -0.239  52.841  1.00  0.00     0.001 A 
HETATM    7  C9  UNL     1      21.101   0.268  53.726  1.00  0.00     0.001 A 
HETATM    8  C10 UNL     1      22.077   1.099  53.276  1.00  0.00     0.011 A 
HETATM    9  C11 UNL     1      22.244   1.487  52.019  1.00  0.00    -0.006 A 
HETATM   10  C12 UNL     1      22.929   2.134  51.067  1.00  0.00     0.158 A 
HETATM   11  O3  UNL     1      23.597   2.719  52.207  1.00  0.00    -0.366 OA
HETATM   12  C13 UNL     1      23.007   4.094  52.293  1.00  0.00     0.171 C 
HETATM   13  C14 UNL     1      21.535   4.168  52.119  1.00  0.00     0.056 C 
HETATM   14  C15 UNL     1      20.896   4.262  50.791  1.00  0.00     0.277 C 
HETATM   15  N1  UNL     1      20.838   3.390  49.721  1.00  0.00     0.107 NA
HETATM   16  C16 UNL     1      20.393   4.243  48.554  1.00  0.00     0.312 C 
HETATM   17  C17 UNL     1      19.764   2.347  49.677  1.00  0.00     0.441 C 
HETATM   18  O4  UNL     1      20.676   1.171  49.167  1.00  0.00    -0.338 OA
ENDROOT
BRANCH   1  19
HETATM   19  C2  UNL     1      24.608   3.440  49.607  1.00  0.00     0.207 C 
HETATM   20  O2  UNL     1      24.318   4.458  48.944  1.00  0.00    -0.285 OA
BRANCH  19  21
HETATM   21  P1  UNL     1      26.416   3.387  49.752  1.00  0.00     0.088 P 
HETATM   22  H4  UNL     1      26.993   4.716  49.459  1.00  0.00     0.096 HD
BRANCH  21  23
HETATM   23  O1  UNL     1      26.978   2.892  51.286  1.00  0.00    -0.363 OA
HETATM   24  C1  UNL     1      26.726   1.539  51.456  1.00  0.00     0.207 C 
ENDBRANCH  21  23
ENDBRANCH  19  21
ENDBRANCH   1  19
TORSDOF 3
ENDMDL
MODEL 3
REMARK VINA RESULT:      -6.8      2.173      3.045
REMARK  3 active torsions:
REMARK  status: ('A' for Active; 'I' for Inactive)
REMARK    1  A    between atoms: O1_2  and  P1_3 
REMARK    2  A    between atoms: P1_3  and  C2_4 
REMARK    3  A    between atoms: C2_4  and  C3_6 
ROOT
HETATM    1  C3  UNL     1      22.030   1.947  49.601  1.00  0.00     0.037 A 
HETATM    2  C4  UNL     1      20.921   1.172  50.098  1.00  0.00     0.034 A 
HETATM    3  C5  UNL     1      21.583   0.686  51.211  1.00  0.00     0.149 A 
HETATM    4  C6  UNL     1      22.398   0.346  52.183  1.00  0.00    -0.006 A 
HETATM    5  C7  UNL     1      22.350  -0.451  53.240  1.00  0.00     0.011 A 
HETATM    6  C8  UNL     1      23.504  -0.543  53.968  1.00  0.00     0.001 A 
HETATM    7  C9  UNL     1      24.592   0.176  53.559  1.00  0.00     0.001 A 
HETATM    8  C10 UNL     1      24.499   0.954  52.449  1.00  0.00     0.011 A 
HETATM    9  C11 UNL     1      23.420   1.095  51.692  1.00  0.00    -0.006 A 
HETATM   10  C12 UNL     1      22.795   1.578  50.610  1.00  0.00     0.158 A 
HETATM   11  O3  UNL     1      23.973   2.411  50.531  1.00  0.00    -0.366 OA
HETATM   12  C13 UNL     1      23.496   3.742  51.028  1.00  0.00     0.171 C 
HETATM   13  C14 UNL     1      22.639   3.701  52.239  1.00  0.00     0.056 C 
HETATM   14  C15 UNL     1      21.179   3.497  52.172  1.00  0.00     0.277 C 
HETATM   15  N1  UNL     1      20.404   2.430  51.759  1.00  0.00     0.107 NA
HETATM   16  C16 UNL     1      19.022   3.010  51.562  1.00  0.00     0.312 C 
HETATM   17  C17 UNL     1      20.069   1.342  52.733  1.00  0.00     0.441 C 
HETATM   18  O4  UNL     1      20.293   0.140  51.744  1.00  0.00    -0.338 OA
ENDROOT
BRANCH   1  19
HETATM   19  C2  UNL     1      22.070   2.660  48.383  1.00  0.00     0.207 C 
HETATM   20  O2  UNL     1      22.625   2.029  47.459  1.00  0.00    -0.285 OA
BRANCH  19  21
HETATM   21  P1  UNL     1      21.557   4.265  47.708  1.00  0.00     0.088 P 
HETATM   22  H4  UNL     1      21.104   4.111  46.309  1.00  0.00     0.096 HD
BRANCH  21  23
HETATM   23  O1  UNL     1      20.307   5.024  48.589  1.00  0.00    -0.363 OA
HETATM   24  C1  UNL     1      20.853   5.975  49.438  1.00  0.00     0.207 C 
ENDBRANCH  21  23
ENDBRANCH  19  21
ENDBRANCH   1  19
TORSDOF 3
ENDMDL
MODEL 4
REMARK VINA RESULT:      -6.8      3.134      4.886
REMARK  3 active torsions:
REMARK  status: ('A' for Active; 'I' for Inactive)
REMARK    1  A    between atoms: O1_2  and  P1_3 
REMARK    2  A    between atoms: P1_3  and  C2_4 
REMARK    3  A    between atoms: C2_4  and  C3_6 
ROOT
HETATM    1  C3  UNL     1      20.351   3.253  51.517  1.00  0.00     0.037 A 
HETATM    2  C4  UNL     1      21.593   3.939  51.765  1.00  0.00     0.034 A 
HETATM    3  C5  UNL     1      22.280   2.822  52.208  1.00  0.00     0.149 A 
HETATM    4  C6  UNL     1      22.723   1.649  52.594  1.00  0.00    -0.006 A 
HETATM    5  C7  UNL     1      23.850   1.169  53.101  1.00  0.00     0.011 A 
HETATM    6  C8  UNL     1      23.839  -0.161  53.420  1.00  0.00     0.001 A 
HETATM    7  C9  UNL     1      22.695  -0.875  53.198  1.00  0.00     0.001 A 
HETATM    8  C10 UNL     1      21.609  -0.250  52.674  1.00  0.00     0.011 A 
HETATM    9  C11 UNL     1      21.540   1.031  52.340  1.00  0.00    -0.006 A 
HETATM   10  C12 UNL     1      20.860   2.101  51.907  1.00  0.00     0.158 A 
HETATM   11  O3  UNL     1      19.883   1.099  51.543  1.00  0.00    -0.366 OA
HETATM   12  C13 UNL     1      20.043   0.975  50.059  1.00  0.00     0.171 C 
HETATM   13  C14 UNL     1      21.442   0.925  49.569  1.00  0.00     0.056 C 
HETATM   14  C15 UNL     1      22.231   2.141  49.289  1.00  0.00     0.277 C 
HETATM   15  N1  UNL     1      22.699   3.157  50.100  1.00  0.00     0.107 NA
HETATM   16  C16 UNL     1      23.065   4.273  49.148  1.00  0.00     0.312 C 
HETATM   17  C17 UNL     1      24.016   2.996  50.796  1.00  0.00     0.441 C 
HETATM   18  O4  UNL     1      23.563   3.595  52.178  1.00  0.00    -0.338 OA
ENDROOT
BRANCH   1  19
HETATM   19  C2  UNL     1      19.134   3.849  51.118  1.00  0.00     0.207 C 
HETATM   20  O2  UNL     1      19.291   4.880  50.433  1.00  0.00    -0.285 OA
BRANCH  19  21
HETATM   21  P1  UNL     1      17.347   3.585  51.296  1.00  0.00     0.088 P 
HETATM   22  H4  UNL     1      17.058   2.149  51.489  1.00  0.00     0.096 HD
BRANCH  21  23
HETATM   23  O1  UNL     1      16.641   4.447  52.590  1.00  0.00    -0.363 OA
HETATM   24  C1  UNL     1      15.350   3.985  52.803  1.00  0.00     0.207 C 
ENDBRANCH  21  23
ENDBRANCH  19  21
ENDBRANCH   1  19
TORSDOF 3
ENDMDL
MODEL 5
REMARK VINA RESULT:      -6.7      7.810     10.386
REMARK  3 active torsions:
REMARK  status: ('A' for Active; 'I' for Inactive)
REMARK    1  A    between atoms: O1_2  and  P1_3 
REMARK    2  A    between atoms: P1_3  and  C2_4 
REMARK    3  A    between atoms: C2_4  and  C3_6 
ROOT
HETATM    1  C3  UNL     1      32.673   5.893  47.103  1.00  0.00     0.037 A 
HETATM    2  C4  UNL     1      32.508   6.935  46.122  1.00  0.00     0.034 A 
HETATM    3  C5  UNL     1      31.172   7.169  46.394  1.00  0.00     0.149 A 
HETATM    4  C6  UNL     1      29.927   7.212  46.810  1.00  0.00    -0.006 A 
HETATM    5  C7  UNL     1      28.830   7.878  46.481  1.00  0.00     0.011 A 
HETATM    6  C8  UNL     1      27.701   7.541  47.176  1.00  0.00     0.001 A 
HETATM    7  C9  UNL     1      27.789   6.567  48.131  1.00  0.00     0.001 A 
HETATM    8  C10 UNL     1      28.984   5.964  48.361  1.00  0.00     0.011 A 
HETATM    9  C11 UNL     1      30.120   6.233  47.732  1.00  0.00    -0.006 A 
HETATM   10  C12 UNL     1      31.414   5.994  47.484  1.00  0.00     0.158 A 
HETATM   11  O3  UNL     1      31.304   5.197  48.684  1.00  0.00    -0.366 OA
HETATM   12  C13 UNL     1      31.971   6.040  49.729  1.00  0.00     0.171 C 
HETATM   13  C14 UNL     1      31.618   7.481  49.706  1.00  0.00     0.056 C 
HETATM   14  C15 UNL     1      32.319   8.456  48.846  1.00  0.00     0.277 C 
HETATM   15  N1  UNL     1      32.404   8.599  47.474  1.00  0.00     0.107 NA
HETATM   16  C16 UNL     1      33.581   9.522  47.255  1.00  0.00     0.312 C 
HETATM   17  C17 UNL     1      31.351   9.378  46.748  1.00  0.00     0.441 C 
HETATM   18  O4  UNL     1      31.206   8.392  45.530  1.00  0.00    -0.338 OA
ENDROOT
BRANCH   1  19
HETATM   19  C2  UNL     1      33.832   5.112  47.304  1.00  0.00     0.207 C 
HETATM   20  O2  UNL     1      34.865   5.795  47.468  1.00  0.00    -0.285 OA
BRANCH  19  21
HETATM   21  P1  UNL     1      34.319   3.366  47.399  1.00  0.00     0.088 P 
HETATM   22  H4  UNL     1      35.330   3.173  48.460  1.00  0.00     0.096 HD
BRANCH  21  23
HETATM   23  O1  UNL     1      33.023   2.296  47.701  1.00  0.00    -0.363 OA
HETATM   24  C1  UNL     1      32.152   2.310  46.622  1.00  0.00     0.207 C 
ENDBRANCH  21  23
ENDBRANCH  19  21
ENDBRANCH   1  19
TORSDOF 3
ENDMDL
MODEL 6
REMARK VINA RESULT:      -6.6      2.508      5.511
REMARK  3 active torsions:
REMARK  status: ('A' for Active; 'I' for Inactive)
REMARK    1  A    between atoms: O1_2  and  P1_3 
REMARK    2  A    between atoms: P1_3  and  C2_4 
REMARK    3  A    between atoms: C2_4  and  C3_6 
ROOT
HETATM    1  C3  UNL     1      23.628   4.313  51.543  1.00  0.00     0.037 A 
HETATM    2  C4  UNL     1      23.460   5.709  51.858  1.00  0.00     0.034 A 
HETATM    3  C5  UNL     1      24.453   6.161  51.007  1.00  0.00     0.149 A 
HETATM    4  C6  UNL     1      25.430   6.357  50.152  1.00  0.00    -0.006 A 
HETATM    5  C7  UNL     1      26.124   7.398  49.713  1.00  0.00     0.011 A 
HETATM    6  C8  UNL     1      27.129   7.110  48.831  1.00  0.00     0.001 A 
HETATM    7  C9  UNL     1      27.336   5.806  48.480  1.00  0.00     0.001 A 
HETATM    8  C10 UNL     1      26.546   4.837  49.013  1.00  0.00     0.011 A 
HETATM    9  C11 UNL     1      25.555   5.034  49.872  1.00  0.00    -0.006 A 
HETATM   10  C12 UNL     1      24.596   4.578  50.688  1.00  0.00     0.158 A 
HETATM   11  O3  UNL     1      24.845   3.341  49.984  1.00  0.00    -0.366 OA
HETATM   12  C13 UNL     1      23.681   3.229  49.047  1.00  0.00     0.171 C 
HETATM   13  C14 UNL     1      23.311   4.478  48.337  1.00  0.00     0.056 C 
HETATM   14  C15 UNL     1      22.406   5.486  48.923  1.00  0.00     0.277 C 
HETATM   15  N1  UNL     1      22.518   6.312  50.025  1.00  0.00     0.107 NA
HETATM   16  C16 UNL     1      21.108   6.786  50.296  1.00  0.00     0.312 C 
HETATM   17  C17 UNL     1      23.194   7.641  49.884  1.00  0.00     0.441 C 
HETATM   18  O4  UNL     1      24.006   7.573  51.230  1.00  0.00    -0.338 OA
ENDROOT
BRANCH   1  19
HETATM   19  C2  UNL     1      22.958   3.233  52.158  1.00  0.00     0.207 C 
HETATM   20  O2  UNL     1      21.748   3.458  52.369  1.00  0.00    -0.285 OA
BRANCH  19  21
HETATM   21  P1  UNL     1      23.309   1.559  52.768  1.00  0.00     0.088 P 
HETATM   22  H4  UNL     1      23.032   0.562  51.713  1.00  0.00     0.096 HD
BRANCH  21  23
HETATM   23  O1  UNL     1      24.916   1.335  53.300  1.00  0.00    -0.363 OA
HETATM   24  C1  UNL     1      25.621   0.614  52.349  1.00  0.00     0.207 C 
ENDBRANCH  21  23
ENDBRANCH  19  21
ENDBRANCH   1  19
TORSDOF 3
ENDMDL
MODEL 7
REMARK VINA RESULT:      -6.4      2.267      4.694
REMARK  3 active torsions:
REMARK  status: ('A' for Active; 'I' for Inactive)
REMARK    1  A    between atoms: O1_2  and  P1_3 
REMARK    2  A    between atoms: P1_3  and  C2_4 
REMARK    3  A    between atoms: C2_4  and  C3_6 
ROOT
HETATM    1  C3  UNL     1      24.347   2.714  52.083  1.00  0.00     0.037 A 
HETATM    2  C4  UNL     1      22.969   2.638  52.497  1.00  0.00     0.034 A 
HETATM    3  C5  UNL     1      22.608   3.878  52.001  1.00  0.00     0.149 A 
HETATM    4  C6  UNL     1      22.497   5.073  51.468  1.00  0.00    -0.006 A 
HETATM    5  C7  UNL     1      21.543   5.986  51.351  1.00  0.00     0.011 A 
HETATM    6  C8  UNL     1      21.911   7.155  50.745  1.00  0.00     0.001 A 
HETATM    7  C9  UNL     1      23.202   7.289  50.316  1.00  0.00     0.001 A 
HETATM    8  C10 UNL     1      24.078   6.268  50.504  1.00  0.00     0.011 A 
HETATM    9  C11 UNL     1      23.799   5.107  51.083  1.00  0.00    -0.006 A 
HETATM   10  C12 UNL     1      24.166   3.909  51.554  1.00  0.00     0.158 A 
HETATM   11  O3  UNL     1      25.371   4.191  50.808  1.00  0.00    -0.366 OA
HETATM   12  C13 UNL     1      25.237   3.334  49.586  1.00  0.00     0.171 C 
HETATM   13  C14 UNL     1      23.896   3.336  48.949  1.00  0.00     0.056 C 
HETATM   14  C15 UNL     1      22.810   2.434  49.382  1.00  0.00     0.277 C 
HETATM   15  N1  UNL     1      22.096   2.332  50.560  1.00  0.00     0.107 NA
HETATM   16  C16 UNL     1      21.437   0.973  50.494  1.00  0.00     0.312 C 
HETATM   17  C17 UNL     1      20.876   3.179  50.757  1.00  0.00     0.441 C 
HETATM   18  O4  UNL     1      21.166   3.565  52.254  1.00  0.00    -0.338 OA
ENDROOT
BRANCH   1  19
HETATM   19  C2  UNL     1      25.357   1.770  52.369  1.00  0.00     0.207 C 
HETATM   20  O2  UNL     1      24.993   0.589  52.191  1.00  0.00    -0.285 OA
BRANCH  19  21
HETATM   21  P1  UNL     1      27.079   1.724  52.940  1.00  0.00     0.088 P 
HETATM   22  H4  UNL     1      27.771   2.980  52.581  1.00  0.00     0.096 HD
BRANCH  21  23
HETATM   23  O1  UNL     1      27.250   1.489  54.623  1.00  0.00    -0.363 OA
HETATM   24  C1  UNL     1      26.850   0.202  54.952  1.00  0.00     0.207 C 
ENDBRANCH  21  23
ENDBRANCH  19  21
ENDBRANCH   1  19
TORSDOF 3
ENDMDL
MODEL 8
REMARK VINA RESULT:      -6.3      7.093      9.800
REMARK  3 active torsions:
REMARK  status: ('A' for Active; 'I' for Inactive)
REMARK    1  A    between atoms: O1_2  and  P1_3 
REMARK    2  A    between atoms: P1_3  and  C2_4 
REMARK    3  A    between atoms: C2_4  and  C3_6 
ROOT
HETATM    1  C3  UNL     1      31.203   8.154  46.285  1.00  0.00     0.037 A 
HETATM    2  C4  UNL     1      30.161   9.149  46.331  1.00  0.00     0.034 A 
HETATM    3  C5  UNL     1      29.240   8.351  46.988  1.00  0.00     0.149 A 
HETATM    4  C6  UNL     1      28.536   7.425  47.597  1.00  0.00    -0.006 A 
HETATM    5  C7  UNL     1      27.301   7.314  48.066  1.00  0.00     0.011 A 
HETATM    6  C8  UNL     1      26.974   6.093  48.589  1.00  0.00     0.001 A 
HETATM    7  C9  UNL     1      27.920   5.108  48.589  1.00  0.00     0.001 A 
HETATM    8  C10 UNL     1      29.150   5.363  48.071  1.00  0.00     0.011 A 
HETATM    9  C11 UNL     1      29.544   6.515  47.545  1.00  0.00    -0.006 A 
HETATM   10  C12 UNL     1      30.448   7.273  46.912  1.00  0.00     0.158 A 
HETATM   11  O3  UNL     1      31.327   6.177  47.249  1.00  0.00    -0.366 OA
HETATM   12  C13 UNL     1      32.130   6.709  48.397  1.00  0.00     0.171 C 
HETATM   13  C14 UNL     1      31.358   7.444  49.429  1.00  0.00     0.056 C 
HETATM   14  C15 UNL     1      31.053   8.884  49.315  1.00  0.00     0.277 C 
HETATM   15  N1  UNL     1      30.283   9.608  48.424  1.00  0.00     0.107 NA
HETATM   16  C16 UNL     1      30.716  11.043  48.618  1.00  0.00     0.312 C 
HETATM   17  C17 UNL     1      28.815   9.765  48.678  1.00  0.00     0.441 C 
HETATM   18  O4  UNL     1      28.351   9.539  47.192  1.00  0.00    -0.338 OA
ENDROOT
BRANCH   1  19
HETATM   19  C2  UNL     1      32.450   8.283  45.636  1.00  0.00     0.207 C 
HETATM   20  O2  UNL     1      33.022   9.367  45.877  1.00  0.00    -0.285 OA
BRANCH  19  21
HETATM   21  P1  UNL     1      33.525   7.342  44.517  1.00  0.00     0.088 P 
HETATM   22  H4  UNL     1      34.889   7.913  44.515  1.00  0.00     0.096 HD
BRANCH  21  23
HETATM   23  O1  UNL     1      33.647   5.682  44.899  1.00  0.00    -0.363 OA
HETATM   24  C1  UNL     1      33.237   4.927  43.811  1.00  0.00     0.207 C 
ENDBRANCH  21  23
ENDBRANCH  19  21
ENDBRANCH   1  19
TORSDOF 3
ENDMDL
MODEL 9
REMARK VINA RESULT:      -6.2      9.625     11.258
REMARK  3 active torsions:
REMARK  status: ('A' for Active; 'I' for Inactive)
REMARK    1  A    between atoms: O1_2  and  P1_3 
REMARK    2  A    between atoms: P1_3  and  C2_4 
REMARK    3  A    between atoms: C2_4  and  C3_6 
ROOT
HETATM    1  C3  UNL     1      31.566   7.457  46.089  1.00  0.00     0.037 A 
HETATM    2  C4  UNL     1      30.826   6.821  47.149  1.00  0.00     0.034 A 
HETATM    3  C5  UNL     1      31.654   5.717  47.251  1.00  0.00     0.149 A 
HETATM    4  C6  UNL     1      32.560   4.771  47.165  1.00  0.00    -0.006 A 
HETATM    5  C7  UNL     1      32.777   3.597  47.742  1.00  0.00     0.011 A 
HETATM    6  C8  UNL     1      33.857   2.898  47.278  1.00  0.00     0.001 A 
HETATM    7  C9  UNL     1      34.611   3.449  46.280  1.00  0.00     0.001 A 
HETATM    8  C10 UNL     1      34.268   4.665  45.778  1.00  0.00     0.011 A 
HETATM    9  C11 UNL     1      33.239   5.402  46.173  1.00  0.00    -0.006 A 
HETATM   10  C12 UNL     1      32.450   6.479  46.062  1.00  0.00     0.158 A 
HETATM   11  O3  UNL     1      33.522   6.945  45.212  1.00  0.00    -0.366 OA
HETATM   12  C13 UNL     1      34.245   7.937  46.070  1.00  0.00     0.171 C 
HETATM   13  C14 UNL     1      34.479   7.516  47.474  1.00  0.00     0.056 C 
HETATM   14  C15 UNL     1      33.478   7.716  48.541  1.00  0.00     0.277 C 
HETATM   15  N1  UNL     1      32.214   7.197  48.743  1.00  0.00     0.107 NA
HETATM   16  C16 UNL     1      31.586   8.104  49.777  1.00  0.00     0.312 C 
HETATM   17  C17 UNL     1      32.061   5.886  49.451  1.00  0.00     0.441 C 
HETATM   18  O4  UNL     1      30.950   5.299  48.505  1.00  0.00    -0.338 OA
ENDROOT
BRANCH   1  19
HETATM   19  C2  UNL     1      31.200   8.639  45.409  1.00  0.00     0.207 C 
HETATM   20  O2  UNL     1      30.914   8.450  44.208  1.00  0.00    -0.285 OA
BRANCH  19  21
HETATM   21  P1  UNL     1      31.011  10.415  45.735  1.00  0.00     0.088 P 
HETATM   22  H4  UNL     1      29.581  10.789  45.717  1.00  0.00     0.096 HD
BRANCH  21  23
HETATM   23  O1  UNL     1      31.672  10.924  47.224  1.00  0.00    -0.363 OA
HETATM   24  C1  UNL     1      32.990  11.312  47.035  1.00  0.00     0.207 C 
ENDBRANCH  21  23
ENDBRANCH  19  21
ENDBRANCH   1  19
TORSDOF 3
ENDMDL
