MODEL 1
REMARK VINA RESULT:      -7.4      0.000      0.000
REMARK  7 active torsions:
REMARK  status: ('A' for Active; 'I' for Inactive)
REMARK    1  A    between atoms: O1_2  and  C2_3 
REMARK    2  A    between atoms: C5_6  and  C6_7 
REMARK    3  A    between atoms: C6_7  and  C17_19 
REMARK    4  A    between atoms: C7_8  and  C8_9 
REMARK    5  A    between atoms: C8_9  and  N1_10 
REMARK    6  A    between atoms: N1_10  and  C10_12 
REMARK    7  A    between atoms: C17_19  and  N2_20 
ROOT
HETATM    1  C6  UNL     1      23.460   1.832  51.404  1.00  0.00    -0.023 C 
HETATM    2  C7  UNL     1      23.927   1.071  52.375  1.00  0.00     0.002 C 
ENDROOT
BRANCH   1   3
HETATM    3  C5  UNL     1      24.314   2.755  50.674  1.00  0.00    -0.028 A 
HETATM    4  C4  UNL     1      23.858   3.799  49.903  1.00  0.00     0.014 A 
HETATM    5  C3  UNL     1      24.678   4.666  49.214  1.00  0.00     0.037 A 
HETATM    6  C2  UNL     1      26.032   4.518  49.270  1.00  0.00     0.068 A 
HETATM    7  C19 UNL     1      26.523   3.476  50.038  1.00  0.00     0.037 A 
HETATM    8  C18 UNL     1      25.684   2.622  50.718  1.00  0.00     0.014 A 
BRANCH   6   9
HETATM    9  O1  UNL     1      26.945   5.327  48.621  1.00  0.00    -0.356 OA
HETATM   10  C1  UNL     1      28.324   5.077  48.518  1.00  0.00     0.210 C 
ENDBRANCH   6   9
ENDBRANCH   1   3
BRANCH   1  11
HETATM   11  C17 UNL     1      22.017   1.764  51.027  1.00  0.00     0.305 C 
BRANCH  11  12
HETATM   12  N2  UNL     1      21.777   0.842  49.958  1.00  0.00     0.082 N 
HETATM   13  H21 UNL     1      22.552   0.211  49.736  1.00  0.00     0.313 HD
HETATM   14  H22 UNL     1      20.845   0.433  50.054  1.00  0.00     0.313 HD
ENDBRANCH  11  12
ENDBRANCH   1  11
BRANCH   2  15
HETATM   15  C8  UNL     1      23.295   0.079  53.249  1.00  0.00     0.150 C 
BRANCH  15  16
HETATM   16  N1  UNL     1      24.299  -0.535  54.133  1.00  0.00    -0.382 N 
HETATM   17  C9  UNL     1      23.813  -1.234  55.304  1.00  0.00     0.150 C 
BRANCH  16  18
HETATM   18  C10 UNL     1      25.715  -0.522  53.975  1.00  0.00     0.030 A 
HETATM   19  C11 UNL     1      26.367  -1.207  52.971  1.00  0.00     0.030 A 
HETATM   20  C12 UNL     1      27.737  -1.175  52.849  1.00  0.00     0.009 A 
HETATM   21  C13 UNL     1      28.545  -0.467  53.710  1.00  0.00    -0.062 A 
HETATM   22  C14 UNL     1      30.007  -0.501  53.487  1.00  0.00     0.048 C 
HETATM   23  C15 UNL     1      27.917   0.226  54.720  1.00  0.00     0.009 A 
HETATM   24  C16 UNL     1      26.544   0.181  54.825  1.00  0.00     0.030 A 
ENDBRANCH  16  18
ENDBRANCH  15  16
ENDBRANCH   2  15
TORSDOF 7
ENDMDL
MODEL 2
REMARK VINA RESULT:      -7.3      2.292      3.399
REMARK  7 active torsions:
REMARK  status: ('A' for Active; 'I' for Inactive)
REMARK    1  A    between atoms: O1_2  and  C2_3 
REMARK    2  A    between atoms: C5_6  and  C6_7 
REMARK    3  A    between atoms: C6_7  and  C17_19 
REMARK    4  A    between atoms: C7_8  and  C8_9 
REMARK    5  A    between atoms: C8_9  and  N1_10 
REMARK    6  A    between atoms: N1_10  and  C10_12 
REMARK    7  A    between atoms: C17_19  and  N2_20 
ROOT
HETATM    1  C6  UNL     1      25.429   4.655  49.870  1.00  0.00    -0.023 C 
HETATM    2  C7  UNL     1      25.575   3.383  50.192  1.00  0.00     0.002 C 
ENDROOT
BRANCH   1   3
HETATM    3  C5  UNL     1      26.443   5.378  49.120  1.00  0.00    -0.028 A 
HETATM    4  C4  UNL     1      26.294   6.657  48.636  1.00  0.00     0.014 A 
HETATM    5  C3  UNL     1      27.262   7.330  47.924  1.00  0.00     0.037 A 
HETATM    6  C2  UNL     1      28.458   6.732  47.658  1.00  0.00     0.068 A 
HETATM    7  C19 UNL     1      28.639   5.443  48.131  1.00  0.00     0.037 A 
HETATM    8  C18 UNL     1      27.657   4.790  48.841  1.00  0.00     0.014 A 
BRANCH   6   9
HETATM    9  O1  UNL     1      29.497   7.312  46.955  1.00  0.00    -0.356 OA
HETATM   10  C1  UNL     1      30.863   7.050  47.158  1.00  0.00     0.210 C 
ENDBRANCH   6   9
ENDBRANCH   1   3
BRANCH   1  11
HETATM   11  C17 UNL     1      24.199   5.395  50.279  1.00  0.00     0.305 C 
BRANCH  11  12
HETATM   12  N2  UNL     1      24.328   5.993  51.573  1.00  0.00     0.082 N 
HETATM   13  H21 UNL     1      24.055   6.978  51.635  1.00  0.00     0.313 HD
HETATM   14  H22 UNL     1      23.971   5.356  52.288  1.00  0.00     0.313 HD
ENDBRANCH  11  12
ENDBRANCH   1  11
BRANCH   2  15
HETATM   15  C8  UNL     1      24.724   2.443  50.925  1.00  0.00     0.150 C 
BRANCH  15  16
HETATM   16  N1  UNL     1      25.268   2.209  52.273  1.00  0.00    -0.382 N 
HETATM   17  C9  UNL     1      24.587   2.842  53.383  1.00  0.00     0.150 C 
BRANCH  16  18
HETATM   18  C10 UNL     1      26.404   1.424  52.624  1.00  0.00     0.030 A 
HETATM   19  C11 UNL     1      26.440   0.051  52.496  1.00  0.00     0.030 A 
HETATM   20  C12 UNL     1      27.553  -0.677  52.846  1.00  0.00     0.009 A 
HETATM   21  C13 UNL     1      28.697  -0.095  53.345  1.00  0.00    -0.062 A 
HETATM   22  C14 UNL     1      29.837  -0.972  53.690  1.00  0.00     0.048 C 
HETATM   23  C15 UNL     1      28.686   1.275  53.482  1.00  0.00     0.009 A 
HETATM   24  C16 UNL     1      27.561   1.986  53.125  1.00  0.00     0.030 A 
ENDBRANCH  16  18
ENDBRANCH  15  16
ENDBRANCH   2  15
TORSDOF 7
ENDMDL
MODEL 3
REMARK VINA RESULT:      -7.3      1.865      2.713
REMARK  7 active torsions:
REMARK  status: ('A' for Active; 'I' for Inactive)
REMARK    1  A    between atoms: O1_2  and  C2_3 
REMARK    2  A    between atoms: C5_6  and  C6_7 
REMARK    3  A    between atoms: C6_7  and  C17_19 
REMARK    4  A    between atoms: C7_8  and  C8_9 
REMARK    5  A    between atoms: C8_9  and  N1_10 
REMARK    6  A    between atoms: N1_10  and  C10_12 
REMARK    7  A    between atoms: C17_19  and  N2_20 
ROOT
HETATM    1  C6  UNL     1      24.264   3.941  50.832  1.00  0.00    -0.023 C 
HETATM    2  C7  UNL     1      24.060   2.637  50.857  1.00  0.00     0.002 C 
ENDROOT
BRANCH   1   3
HETATM    3  C5  UNL     1      25.337   4.535  50.051  1.00  0.00    -0.028 A 
HETATM    4  C4  UNL     1      26.449   3.856  49.608  1.00  0.00     0.014 A 
HETATM    5  C3  UNL     1      27.460   4.431  48.870  1.00  0.00     0.037 A 
HETATM    6  C2  UNL     1      27.400   5.752  48.535  1.00  0.00     0.068 A 
HETATM    7  C19 UNL     1      26.293   6.463  48.968  1.00  0.00     0.037 A 
HETATM    8  C18 UNL     1      25.294   5.867  49.704  1.00  0.00     0.014 A 
BRANCH   6   9
HETATM    9  O1  UNL     1      28.354   6.429  47.801  1.00  0.00    -0.356 OA
HETATM   10  C1  UNL     1      29.736   6.179  47.836  1.00  0.00     0.210 C 
ENDBRANCH   6   9
ENDBRANCH   1   3
BRANCH   1  11
HETATM   11  C17 UNL     1      23.384   4.851  51.622  1.00  0.00     0.305 C 
BRANCH  11  12
HETATM   12  N2  UNL     1      23.914   5.127  52.923  1.00  0.00     0.082 N 
HETATM   13  H21 UNL     1      24.627   4.473  53.259  1.00  0.00     0.313 HD
HETATM   14  H22 UNL     1      24.108   6.127  53.015  1.00  0.00     0.313 HD
ENDBRANCH  11  12
ENDBRANCH   1  11
BRANCH   2  15
HETATM   15  C8  UNL     1      23.074   1.801  51.545  1.00  0.00     0.150 C 
BRANCH  15  16
HETATM   16  N1  UNL     1      23.732   0.978  52.573  1.00  0.00    -0.382 N 
HETATM   17  C9  UNL     1      22.882   0.160  53.413  1.00  0.00     0.150 C 
BRANCH  16  18
HETATM   18  C10 UNL     1      25.127   0.888  52.848  1.00  0.00     0.030 A 
HETATM   19  C11 UNL     1      25.809   1.827  53.593  1.00  0.00     0.030 A 
HETATM   20  C12 UNL     1      27.158   1.712  53.838  1.00  0.00     0.009 A 
HETATM   21  C13 UNL     1      27.914   0.665  53.363  1.00  0.00    -0.062 A 
HETATM   22  C14 UNL     1      29.358   0.639  53.685  1.00  0.00     0.048 C 
HETATM   23  C15 UNL     1      27.256  -0.286  52.616  1.00  0.00     0.009 A 
HETATM   24  C16 UNL     1      25.904  -0.152  52.382  1.00  0.00     0.030 A 
ENDBRANCH  16  18
ENDBRANCH  15  16
ENDBRANCH   2  15
TORSDOF 7
ENDMDL
MODEL 4
REMARK VINA RESULT:      -7.2      3.317      6.630
REMARK  7 active torsions:
REMARK  status: ('A' for Active; 'I' for Inactive)
REMARK    1  A    between atoms: O1_2  and  C2_3 
REMARK    2  A    between atoms: C5_6  and  C6_7 
REMARK    3  A    between atoms: C6_7  and  C17_19 
REMARK    4  A    between atoms: C7_8  and  C8_9 
REMARK    5  A    between atoms: C8_9  and  N1_10 
REMARK    6  A    between atoms: N1_10  and  C10_12 
REMARK    7  A    between atoms: C17_19  and  N2_20 
ROOT
HETATM    1  C6  UNL     1      23.949   2.047  51.615  1.00  0.00    -0.023 C 
HETATM    2  C7  UNL     1      22.875   1.574  51.011  1.00  0.00     0.002 C 
ENDROOT
BRANCH   1   3
HETATM    3  C5  UNL     1      25.010   1.173  52.089  1.00  0.00    -0.028 A 
HETATM    4  C4  UNL     1      26.334   1.289  51.734  1.00  0.00     0.014 A 
HETATM    5  C3  UNL     1      27.330   0.453  52.188  1.00  0.00     0.037 A 
HETATM    6  C2  UNL     1      27.033  -0.567  53.043  1.00  0.00     0.068 A 
HETATM    7  C19 UNL     1      25.707  -0.711  53.419  1.00  0.00     0.037 A 
HETATM    8  C18 UNL     1      24.729   0.138  52.952  1.00  0.00     0.014 A 
BRANCH   6   9
HETATM    9  O1  UNL     1      27.949  -1.462  53.560  1.00  0.00    -0.356 OA
HETATM   10  C1  UNL     1      29.345  -1.303  53.536  1.00  0.00     0.210 C 
ENDBRANCH   6   9
ENDBRANCH   1   3
BRANCH   1  11
HETATM   11  C17 UNL     1      24.100   3.516  51.832  1.00  0.00     0.305 C 
BRANCH  11  12
HETATM   12  N2  UNL     1      24.229   3.851  53.218  1.00  0.00     0.082 N 
HETATM   13  H21 UNL     1      25.150   3.680  53.630  1.00  0.00     0.313 HD
HETATM   14  H22 UNL     1      23.789   4.756  53.400  1.00  0.00     0.313 HD
ENDBRANCH  11  12
ENDBRANCH   1  11
BRANCH   2  15
HETATM   15  C8  UNL     1      21.687   2.221  50.450  1.00  0.00     0.150 C 
BRANCH  15  16
HETATM   16  N1  UNL     1      20.594   2.224  51.438  1.00  0.00    -0.382 N 
HETATM   17  C9  UNL     1      20.164   3.510  51.948  1.00  0.00     0.150 C 
BRANCH  16  18
HETATM   18  C10 UNL     1      19.899   1.097  51.963  1.00  0.00     0.030 A 
HETATM   19  C11 UNL     1      18.741   0.599  51.404  1.00  0.00     0.030 A 
HETATM   20  C12 UNL     1      18.093  -0.490  51.939  1.00  0.00     0.009 A 
HETATM   21  C13 UNL     1      18.548  -1.153  53.056  1.00  0.00    -0.062 A 
HETATM   22  C14 UNL     1      17.774  -2.314  53.548  1.00  0.00     0.048 C 
HETATM   23  C15 UNL     1      19.704  -0.674  53.633  1.00  0.00     0.009 A 
HETATM   24  C16 UNL     1      20.337   0.418  53.082  1.00  0.00     0.030 A 
ENDBRANCH  16  18
ENDBRANCH  15  16
ENDBRANCH   2  15
TORSDOF 7
ENDMDL
MODEL 5
REMARK VINA RESULT:      -7.2      2.811      4.841
REMARK  7 active torsions:
REMARK  status: ('A' for Active; 'I' for Inactive)
REMARK    1  A    between atoms: O1_2  and  C2_3 
REMARK    2  A    between atoms: C5_6  and  C6_7 
REMARK    3  A    between atoms: C6_7  and  C17_19 
REMARK    4  A    between atoms: C7_8  and  C8_9 
REMARK    5  A    between atoms: C8_9  and  N1_10 
REMARK    6  A    between atoms: N1_10  and  C10_12 
REMARK    7  A    between atoms: C17_19  and  N2_20 
ROOT
HETATM    1  C6  UNL     1      25.772   3.845  49.549  1.00  0.00    -0.023 C 
HETATM    2  C7  UNL     1      24.465   3.816  49.368  1.00  0.00     0.002 C 
ENDROOT
BRANCH   1   3
HETATM    3  C5  UNL     1      26.585   4.962  49.096  1.00  0.00    -0.028 A 
HETATM    4  C4  UNL     1      27.862   4.847  48.598  1.00  0.00     0.014 A 
HETATM    5  C3  UNL     1      28.623   5.914  48.173  1.00  0.00     0.037 A 
HETATM    6  C2  UNL     1      28.122   7.181  48.232  1.00  0.00     0.068 A 
HETATM    7  C19 UNL     1      26.838   7.330  48.729  1.00  0.00     0.037 A 
HETATM    8  C18 UNL     1      26.096   6.248  49.148  1.00  0.00     0.014 A 
BRANCH   6   9
HETATM    9  O1  UNL     1      28.795   8.320  47.834  1.00  0.00    -0.356 OA
HETATM   10  C1  UNL     1      30.098   8.673  48.225  1.00  0.00     0.210 C 
ENDBRANCH   6   9
ENDBRANCH   1   3
BRANCH   1  11
HETATM   11  C17 UNL     1      26.458   2.711  50.235  1.00  0.00     0.305 C 
BRANCH  11  12
HETATM   12  N2  UNL     1      26.815   3.027  51.584  1.00  0.00     0.082 N 
HETATM   13  H21 UNL     1      26.097   2.836  52.289  1.00  0.00     0.313 HD
HETATM   14  H22 UNL     1      27.766   2.704  51.778  1.00  0.00     0.313 HD
ENDBRANCH  11  12
ENDBRANCH   1  11
BRANCH   2  15
HETATM   15  C8  UNL     1      23.437   2.834  49.719  1.00  0.00     0.150 C 
BRANCH  15  16
HETATM   16  N1  UNL     1      23.100   2.939  51.149  1.00  0.00    -0.382 N 
HETATM   17  C9  UNL     1      22.961   4.271  51.702  1.00  0.00     0.150 C 
BRANCH  16  18
HETATM   18  C10 UNL     1      22.893   1.872  52.070  1.00  0.00     0.030 A 
HETATM   19  C11 UNL     1      23.899   1.022  52.476  1.00  0.00     0.030 A 
HETATM   20  C12 UNL     1      23.664  -0.001  53.366  1.00  0.00     0.009 A 
HETATM   21  C13 UNL     1      22.423  -0.245  53.908  1.00  0.00    -0.062 A 
HETATM   22  C14 UNL     1      22.281  -1.372  54.856  1.00  0.00     0.048 C 
HETATM   23  C15 UNL     1      21.401   0.591  53.519  1.00  0.00     0.009 A 
HETATM   24  C16 UNL     1      21.657   1.609  52.626  1.00  0.00     0.030 A 
ENDBRANCH  16  18
ENDBRANCH  15  16
ENDBRANCH   2  15
TORSDOF 7
ENDMDL
MODEL 6
REMARK VINA RESULT:      -7.1      2.652      6.307
REMARK  7 active torsions:
REMARK  status: ('A' for Active; 'I' for Inactive)
REMARK    1  A    between atoms: O1_2  and  C2_3 
REMARK    2  A    between atoms: C5_6  and  C6_7 
REMARK    3  A    between atoms: C6_7  and  C17_19 
REMARK    4  A    between atoms: C7_8  and  C8_9 
REMARK    5  A    between atoms: C8_9  and  N1_10 
REMARK    6  A    between atoms: N1_10  and  C10_12 
REMARK    7  A    between atoms: C17_19  and  N2_20 
ROOT
HETATM    1  C6  UNL     1      23.839   2.163  52.425  1.00  0.00    -0.023 C 
HETATM    2  C7  UNL     1      24.086   3.425  52.725  1.00  0.00     0.002 C 
ENDROOT
BRANCH   1   3
HETATM    3  C5  UNL     1      24.833   1.120  52.619  1.00  0.00    -0.028 A 
HETATM    4  C4  UNL     1      26.016   1.028  51.922  1.00  0.00     0.014 A 
HETATM    5  C3  UNL     1      26.949   0.033  52.114  1.00  0.00     0.037 A 
HETATM    6  C2  UNL     1      26.729  -0.944  53.039  1.00  0.00     0.068 A 
HETATM    7  C19 UNL     1      25.546  -0.880  53.757  1.00  0.00     0.037 A 
HETATM    8  C18 UNL     1      24.629   0.125  53.549  1.00  0.00     0.014 A 
BRANCH   6   9
HETATM    9  O1  UNL     1      27.593  -1.986  53.313  1.00  0.00    -0.356 OA
HETATM   10  C1  UNL     1      28.995  -1.925  53.230  1.00  0.00     0.210 C 
ENDBRANCH   6   9
ENDBRANCH   1   3
BRANCH   1  11
HETATM   11  C17 UNL     1      22.511   1.773  51.867  1.00  0.00     0.305 C 
BRANCH  11  12
HETATM   12  N2  UNL     1      22.532   1.663  50.440  1.00  0.00     0.082 N 
HETATM   13  H21 UNL     1      23.460   1.598  50.014  1.00  0.00     0.313 HD
HETATM   14  H22 UNL     1      21.821   0.996  50.132  1.00  0.00     0.313 HD
ENDBRANCH  11  12
ENDBRANCH   1  11
BRANCH   2  15
HETATM   15  C8  UNL     1      23.279   4.643  52.629  1.00  0.00     0.150 C 
BRANCH  15  16
HETATM   16  N1  UNL     1      23.336   5.186  51.261  1.00  0.00    -0.382 N 
HETATM   17  C9  UNL     1      22.076   5.468  50.606  1.00  0.00     0.150 C 
BRANCH  16  18
HETATM   18  C10 UNL     1      24.500   5.468  50.490  1.00  0.00     0.030 A 
HETATM   19  C11 UNL     1      25.177   4.508  49.769  1.00  0.00     0.030 A 
HETATM   20  C12 UNL     1      26.300   4.815  49.037  1.00  0.00     0.009 A 
HETATM   21  C13 UNL     1      26.824   6.086  48.973  1.00  0.00    -0.062 A 
HETATM   22  C14 UNL     1      28.037   6.306  48.155  1.00  0.00     0.048 C 
HETATM   23  C15 UNL     1      26.165   7.063  49.685  1.00  0.00     0.009 A 
HETATM   24  C16 UNL     1      25.042   6.735  50.412  1.00  0.00     0.030 A 
ENDBRANCH  16  18
ENDBRANCH  15  16
ENDBRANCH   2  15
TORSDOF 7
ENDMDL
MODEL 7
REMARK VINA RESULT:      -7.0      2.916      6.822
REMARK  7 active torsions:
REMARK  status: ('A' for Active; 'I' for Inactive)
REMARK    1  A    between atoms: O1_2  and  C2_3 
REMARK    2  A    between atoms: C5_6  and  C6_7 
REMARK    3  A    between atoms: C6_7  and  C17_19 
REMARK    4  A    between atoms: C7_8  and  C8_9 
REMARK    5  A    between atoms: C8_9  and  N1_10 
REMARK    6  A    between atoms: N1_10  and  C10_12 
REMARK    7  A    between atoms: C17_19  and  N2_20 
ROOT
HETATM    1  C6  UNL     1      23.994   3.214  51.339  1.00  0.00    -0.023 C 
HETATM    2  C7  UNL     1      24.208   3.586  50.091  1.00  0.00     0.002 C 
ENDROOT
BRANCH   1   3
HETATM    3  C5  UNL     1      24.600   2.016  51.897  1.00  0.00    -0.028 A 
HETATM    4  C4  UNL     1      23.971   1.153  52.764  1.00  0.00     0.014 A 
HETATM    5  C3  UNL     1      24.557   0.022  53.287  1.00  0.00     0.037 A 
HETATM    6  C2  UNL     1      25.840  -0.301  52.956  1.00  0.00     0.068 A 
HETATM    7  C19 UNL     1      26.502   0.549  52.086  1.00  0.00     0.037 A 
HETATM    8  C18 UNL     1      25.895   1.674  51.575  1.00  0.00     0.014 A 
BRANCH   6   9
HETATM    9  O1  UNL     1      26.525  -1.407  53.421  1.00  0.00    -0.356 OA
HETATM   10  C1  UNL     1      27.271  -2.296  52.627  1.00  0.00     0.210 C 
ENDBRANCH   6   9
ENDBRANCH   1   3
BRANCH   1  11
HETATM   11  C17 UNL     1      23.106   4.027  52.221  1.00  0.00     0.305 C 
BRANCH  11  12
HETATM   12  N2  UNL     1      23.844   4.927  53.055  1.00  0.00     0.082 N 
HETATM   13  H21 UNL     1      24.062   4.582  53.994  1.00  0.00     0.313 HD
HETATM   14  H22 UNL     1      24.603   5.355  52.520  1.00  0.00     0.313 HD
ENDBRANCH  11  12
ENDBRANCH   1  11
BRANCH   2  15
HETATM   15  C8  UNL     1      23.730   4.722  49.299  1.00  0.00     0.150 C 
BRANCH  15  16
HETATM   16  N1  UNL     1      24.634   5.873  49.463  1.00  0.00    -0.382 N 
HETATM   17  C9  UNL     1      24.123   7.022  50.181  1.00  0.00     0.150 C 
BRANCH  16  18
HETATM   18  C10 UNL     1      25.972   5.997  48.989  1.00  0.00     0.030 A 
HETATM   19  C11 UNL     1      26.499   7.182  48.521  1.00  0.00     0.030 A 
HETATM   20  C12 UNL     1      27.795   7.266  48.069  1.00  0.00     0.009 A 
HETATM   21  C13 UNL     1      28.649   6.187  48.050  1.00  0.00    -0.062 A 
HETATM   22  C14 UNL     1      30.023   6.388  47.542  1.00  0.00     0.048 C 
HETATM   23  C15 UNL     1      28.146   4.992  48.513  1.00  0.00     0.009 A 
HETATM   24  C16 UNL     1      26.845   4.929  48.962  1.00  0.00     0.030 A 
ENDBRANCH  16  18
ENDBRANCH  15  16
ENDBRANCH   2  15
TORSDOF 7
ENDMDL
MODEL 8
REMARK VINA RESULT:      -7.0      1.330      2.047
REMARK  7 active torsions:
REMARK  status: ('A' for Active; 'I' for Inactive)
REMARK    1  A    between atoms: O1_2  and  C2_3 
REMARK    2  A    between atoms: C5_6  and  C6_7 
REMARK    3  A    between atoms: C6_7  and  C17_19 
REMARK    4  A    between atoms: C7_8  and  C8_9 
REMARK    5  A    between atoms: C8_9  and  N1_10 
REMARK    6  A    between atoms: N1_10  and  C10_12 
REMARK    7  A    between atoms: C17_19  and  N2_20 
ROOT
HETATM    1  C6  UNL     1      23.061   1.645  51.547  1.00  0.00    -0.023 C 
HETATM    2  C7  UNL     1      23.478   1.014  52.629  1.00  0.00     0.002 C 
ENDROOT
BRANCH   1   3
HETATM    3  C5  UNL     1      23.586   2.948  51.169  1.00  0.00    -0.028 A 
HETATM    4  C4  UNL     1      24.411   3.174  50.092  1.00  0.00     0.014 A 
HETATM    5  C3  UNL     1      24.903   4.413  49.745  1.00  0.00     0.037 A 
HETATM    6  C2  UNL     1      24.581   5.512  50.486  1.00  0.00     0.068 A 
HETATM    7  C19 UNL     1      23.752   5.316  51.578  1.00  0.00     0.037 A 
HETATM    8  C18 UNL     1      23.272   4.068  51.906  1.00  0.00     0.014 A 
BRANCH   6   9
HETATM    9  O1  UNL     1      25.017   6.797  50.230  1.00  0.00    -0.356 OA
HETATM   10  C1  UNL     1      24.300   7.971  50.517  1.00  0.00     0.210 C 
ENDBRANCH   6   9
ENDBRANCH   1   3
BRANCH   1  11
HETATM   11  C17 UNL     1      22.021   1.027  50.674  1.00  0.00     0.305 C 
BRANCH  11  12
HETATM   12  N2  UNL     1      20.738   1.640  50.838  1.00  0.00     0.082 N 
HETATM   13  H21 UNL     1      20.030   1.068  51.307  1.00  0.00     0.313 HD
HETATM   14  H22 UNL     1      20.851   2.606  51.153  1.00  0.00     0.313 HD
ENDBRANCH  11  12
ENDBRANCH   1  11
BRANCH   2  15
HETATM   15  C8  UNL     1      23.121  -0.277  53.223  1.00  0.00     0.150 C 
BRANCH  15  16
HETATM   16  N1  UNL     1      24.153  -0.697  54.186  1.00  0.00    -0.382 N 
HETATM   17  C9  UNL     1      23.700  -1.276  55.434  1.00  0.00     0.150 C 
BRANCH  16  18
HETATM   18  C10 UNL     1      25.566  -0.598  54.039  1.00  0.00     0.030 A 
HETATM   19  C11 UNL     1      26.363   0.134  54.893  1.00  0.00     0.030 A 
HETATM   20  C12 UNL     1      27.726   0.210  54.720  1.00  0.00     0.009 A 
HETATM   21  C13 UNL     1      28.383  -0.430  53.694  1.00  0.00    -0.062 A 
HETATM   22  C14 UNL     1      29.852  -0.280  53.601  1.00  0.00     0.048 C 
HETATM   23  C15 UNL     1      27.609  -1.168  52.827  1.00  0.00     0.009 A 
HETATM   24  C16 UNL     1      26.246  -1.231  53.018  1.00  0.00     0.030 A 
ENDBRANCH  16  18
ENDBRANCH  15  16
ENDBRANCH   2  15
TORSDOF 7
ENDMDL
MODEL 9
REMARK VINA RESULT:      -6.9      4.427      6.564
REMARK  7 active torsions:
REMARK  status: ('A' for Active; 'I' for Inactive)
REMARK    1  A    between atoms: O1_2  and  C2_3 
REMARK    2  A    between atoms: C5_6  and  C6_7 
REMARK    3  A    between atoms: C6_7  and  C17_19 
REMARK    4  A    between atoms: C7_8  and  C8_9 
REMARK    5  A    between atoms: C8_9  and  N1_10 
REMARK    6  A    between atoms: N1_10  and  C10_12 
REMARK    7  A    between atoms: C17_19  and  N2_20 
ROOT
HETATM    1  C6  UNL     1      20.720   0.656  52.536  1.00  0.00    -0.023 C 
HETATM    2  C7  UNL     1      21.885   0.035  52.520  1.00  0.00     0.002 C 
ENDROOT
BRANCH   1   3
HETATM    3  C5  UNL     1      19.462  -0.073  52.514  1.00  0.00    -0.028 A 
HETATM    4  C4  UNL     1      18.460   0.126  51.593  1.00  0.00     0.014 A 
HETATM    5  C3  UNL     1      17.271  -0.570  51.584  1.00  0.00     0.037 A 
HETATM    6  C2  UNL     1      17.027  -1.524  52.528  1.00  0.00     0.068 A 
HETATM    7  C19 UNL     1      18.017  -1.747  53.471  1.00  0.00     0.037 A 
HETATM    8  C18 UNL     1      19.198  -1.039  53.460  1.00  0.00     0.014 A 
BRANCH   6   9
HETATM    9  O1  UNL     1      15.874  -2.279  52.614  1.00  0.00    -0.356 OA
HETATM   10  C1  UNL     1      15.824  -3.664  52.846  1.00  0.00     0.210 C 
ENDBRANCH   6   9
ENDBRANCH   1   3
BRANCH   1  11
HETATM   11  C17 UNL     1      20.667   2.147  52.575  1.00  0.00     0.305 C 
BRANCH  11  12
HETATM   12  N2  UNL     1      20.764   2.728  51.270  1.00  0.00     0.082 N 
HETATM   13  H21 UNL     1      21.167   3.669  51.233  1.00  0.00     0.313 HD
HETATM   14  H22 UNL     1      21.115   2.036  50.605  1.00  0.00     0.313 HD
ENDBRANCH  11  12
ENDBRANCH   1  11
BRANCH   2  15
HETATM   15  C8  UNL     1      23.267   0.520  52.535  1.00  0.00     0.150 C 
BRANCH  15  16
HETATM   16  N1  UNL     1      24.057  -0.223  53.531  1.00  0.00    -0.382 N 
HETATM   17  C9  UNL     1      23.328  -0.924  54.568  1.00  0.00     0.150 C 
BRANCH  16  18
HETATM   18  C10 UNL     1      25.475  -0.336  53.601  1.00  0.00     0.030 A 
HETATM   19  C11 UNL     1      26.222  -1.033  52.675  1.00  0.00     0.030 A 
HETATM   20  C12 UNL     1      27.591  -1.124  52.774  1.00  0.00     0.009 A 
HETATM   21  C13 UNL     1      28.305  -0.534  53.792  1.00  0.00    -0.062 A 
HETATM   22  C14 UNL     1      29.775  -0.696  53.803  1.00  0.00     0.048 C 
HETATM   23  C15 UNL     1      27.582   0.168  54.730  1.00  0.00     0.009 A 
HETATM   24  C16 UNL     1      26.211   0.247  54.612  1.00  0.00     0.030 A 
ENDBRANCH  16  18
ENDBRANCH  15  16
ENDBRANCH   2  15
TORSDOF 7
ENDMDL
