MODEL 1
REMARK VINA RESULT:      -7.8      0.000      0.000
REMARK  5 active torsions:
REMARK  status: ('A' for Active; 'I' for Inactive)
REMARK    1  A    between atoms: O1_2  and  C2_3 
REMARK    2  A    between atoms: C5_6  and  S1_7 
REMARK    3  A    between atoms: S1_7  and  C6_8 
REMARK    4  A    between atoms: C10_14  and  O2_15 
REMARK    5  A    between atoms: C12_17  and  O3_18 
ROOT
HETATM    1  C6  UNL     1      22.844  -0.063  53.361  1.00  0.00     0.112 A 
HETATM    2  N1  UNL     1      23.241  -0.765  54.437  1.00  0.00    -0.234 NA
HETATM    3  C7  UNL     1      22.420  -1.534  55.180  1.00  0.00     0.234 A 
HETATM    4  N2  UNL     1      21.119  -1.579  54.789  1.00  0.00    -0.241 NA
HETATM    5  C8  UNL     1      20.683  -0.901  53.732  1.00  0.00     0.074 A 
HETATM    6  C9  UNL     1      19.336  -0.975  53.363  1.00  0.00     0.072 A 
HETATM    7  C10 UNL     1      18.932  -0.259  52.266  1.00  0.00     0.103 A 
HETATM    8  C12 UNL     1      19.748   0.537  51.485  1.00  0.00     0.102 A 
HETATM    9  C14 UNL     1      21.062   0.586  51.875  1.00  0.00     0.056 A 
HETATM   10  C15 UNL     1      21.522  -0.113  52.969  1.00  0.00     0.031 A 
ENDROOT
BRANCH   1  11
HETATM   11  S1  UNL     1      23.952   0.946  52.394  1.00  0.00    -0.070 SA
BRANCH  11  12
HETATM   12  C5  UNL     1      25.652   0.483  52.680  1.00  0.00     0.007 A 
HETATM   13  C4  UNL     1      26.204  -0.786  52.602  1.00  0.00     0.021 A 
HETATM   14  C3  UNL     1      27.549  -0.954  52.860  1.00  0.00     0.038 A 
HETATM   15  C2  UNL     1      28.364   0.126  53.197  1.00  0.00     0.074 A 
HETATM   16  C17 UNL     1      27.829   1.396  53.279  1.00  0.00    -0.027 A 
HETATM   17  C16 UNL     1      26.471   1.551  53.017  1.00  0.00     0.028 A 
HETATM   18  C18 UNL     1      28.709   2.540  53.640  1.00  0.00     0.051 C 
BRANCH  15  19
HETATM   19  O1  UNL     1      29.697  -0.064  53.449  1.00  0.00    -0.355 OA
HETATM   20  C1  UNL     1      30.178  -1.322  53.884  1.00  0.00     0.210 C 
ENDBRANCH  15  19
ENDBRANCH  11  12
ENDBRANCH   1  11
BRANCH   8  21
HETATM   21  O3  UNL     1      19.194   1.202  50.403  1.00  0.00    -0.353 OA
HETATM   22  C13 UNL     1      19.646   2.516  50.141  1.00  0.00     0.210 C 
ENDBRANCH   8  21
BRANCH   7  23
HETATM   23  O2  UNL     1      17.591  -0.356  51.932  1.00  0.00    -0.353 OA
HETATM   24  C11 UNL     1      16.625  -0.996  52.706  1.00  0.00     0.210 C 
ENDBRANCH   7  23
TORSDOF 5
ENDMDL
MODEL 2
REMARK VINA RESULT:      -7.5      1.569      8.111
REMARK  5 active torsions:
REMARK  status: ('A' for Active; 'I' for Inactive)
REMARK    1  A    between atoms: O1_2  and  C2_3 
REMARK    2  A    between atoms: C5_6  and  S1_7 
REMARK    3  A    between atoms: S1_7  and  C6_8 
REMARK    4  A    between atoms: C10_14  and  O2_15 
REMARK    5  A    between atoms: C12_17  and  O3_18 
ROOT
HETATM    1  C6  UNL     1      23.391   0.086  53.477  1.00  0.00     0.112 A 
HETATM    2  N1  UNL     1      22.931  -0.768  54.409  1.00  0.00    -0.234 NA
HETATM    3  C7  UNL     1      23.716  -1.397  55.307  1.00  0.00     0.234 A 
HETATM    4  N2  UNL     1      25.046  -1.129  55.237  1.00  0.00    -0.241 NA
HETATM    5  C8  UNL     1      25.544  -0.292  54.332  1.00  0.00     0.074 A 
HETATM    6  C9  UNL     1      26.920  -0.043  54.296  1.00  0.00     0.072 A 
HETATM    7  C10 UNL     1      27.388   0.827  53.345  1.00  0.00     0.103 A 
HETATM    8  C12 UNL     1      26.611   1.487  52.412  1.00  0.00     0.102 A 
HETATM    9  C14 UNL     1      25.267   1.220  52.478  1.00  0.00     0.056 A 
HETATM   10  C15 UNL     1      24.743   0.354  53.412  1.00  0.00     0.031 A 
ENDROOT
BRANCH   1  11
HETATM   11  S1  UNL     1      22.332   0.907  52.301  1.00  0.00    -0.070 SA
BRANCH  11  12
HETATM   12  C5  UNL     1      20.670   0.258  52.377  1.00  0.00     0.007 A 
HETATM   13  C4  UNL     1      20.099  -0.480  53.401  1.00  0.00     0.021 A 
HETATM   14  C3  UNL     1      18.790  -0.901  53.283  1.00  0.00     0.038 A 
HETATM   15  C2  UNL     1      18.031  -0.598  52.154  1.00  0.00     0.074 A 
HETATM   16  C17 UNL     1      18.584   0.136  51.125  1.00  0.00    -0.027 A 
HETATM   17  C16 UNL     1      19.905   0.553  51.257  1.00  0.00     0.028 A 
HETATM   18  C18 UNL     1      17.762   0.452  49.925  1.00  0.00     0.051 C 
BRANCH  15  19
HETATM   19  O1  UNL     1      16.733  -1.026  52.058  1.00  0.00    -0.355 OA
HETATM   20  C1  UNL     1      15.709  -0.403  52.812  1.00  0.00     0.210 C 
ENDBRANCH  15  19
ENDBRANCH  11  12
ENDBRANCH   1  11
BRANCH   8  21
HETATM   21  O3  UNL     1      27.230   2.340  51.512  1.00  0.00    -0.353 OA
HETATM   22  C13 UNL     1      26.402   3.066  50.624  1.00  0.00     0.210 C 
ENDBRANCH   8  21
BRANCH   7  23
HETATM   23  O2  UNL     1      28.755   1.048  53.339  1.00  0.00    -0.353 OA
HETATM   24  C11 UNL     1      29.716   0.082  53.634  1.00  0.00     0.210 C 
ENDBRANCH   7  23
TORSDOF 5
ENDMDL
MODEL 3
REMARK VINA RESULT:      -7.5      2.428      3.365
REMARK  5 active torsions:
REMARK  status: ('A' for Active; 'I' for Inactive)
REMARK    1  A    between atoms: O1_2  and  C2_3 
REMARK    2  A    between atoms: C5_6  and  S1_7 
REMARK    3  A    between atoms: S1_7  and  C6_8 
REMARK    4  A    between atoms: C10_14  and  O2_15 
REMARK    5  A    between atoms: C12_17  and  O3_18 
ROOT
HETATM    1  C6  UNL     1      23.673   2.453  51.194  1.00  0.00     0.112 A 
HETATM    2  N1  UNL     1      23.877   2.849  49.926  1.00  0.00    -0.234 NA
HETATM    3  C7  UNL     1      23.041   2.569  48.905  1.00  0.00     0.234 A 
HETATM    4  N2  UNL     1      21.936   1.841  49.214  1.00  0.00    -0.241 NA
HETATM    5  C8  UNL     1      21.696   1.429  50.455  1.00  0.00     0.074 A 
HETATM    6  C9  UNL     1      20.545   0.681  50.730  1.00  0.00     0.072 A 
HETATM    7  C10 UNL     1      20.338   0.278  52.024  1.00  0.00     0.103 A 
HETATM    8  C12 UNL     1      21.175   0.549  53.090  1.00  0.00     0.102 A 
HETATM    9  C14 UNL     1      22.292   1.284  52.784  1.00  0.00     0.056 A 
HETATM   10  C15 UNL     1      22.549   1.715  51.501  1.00  0.00     0.031 A 
ENDROOT
BRANCH   1  11
HETATM   11  S1  UNL     1      24.795   2.838  52.526  1.00  0.00    -0.070 SA
BRANCH  11  12
HETATM   12  C5  UNL     1      25.912   1.480  52.833  1.00  0.00     0.007 A 
HETATM   13  C4  UNL     1      25.735   0.149  52.491  1.00  0.00     0.021 A 
HETATM   14  C3  UNL     1      26.715  -0.768  52.812  1.00  0.00     0.038 A 
HETATM   15  C2  UNL     1      27.879  -0.382  53.476  1.00  0.00     0.074 A 
HETATM   16  C17 UNL     1      28.070   0.940  53.824  1.00  0.00    -0.027 A 
HETATM   17  C16 UNL     1      27.074   1.853  53.494  1.00  0.00     0.028 A 
HETATM   18  C18 UNL     1      29.317   1.338  54.533  1.00  0.00     0.051 C 
BRANCH  15  19
HETATM   19  O1  UNL     1      28.839  -1.309  53.787  1.00  0.00    -0.355 OA
HETATM   20  C1  UNL     1      28.918  -2.532  53.078  1.00  0.00     0.210 C 
ENDBRANCH  15  19
ENDBRANCH  11  12
ENDBRANCH   1  11
BRANCH   8  21
HETATM   21  O3  UNL     1      20.831   0.073  54.345  1.00  0.00    -0.353 OA
HETATM   22  C13 UNL     1      21.567  -1.023  54.854  1.00  0.00     0.210 C 
ENDBRANCH   8  21
BRANCH   7  23
HETATM   23  O2  UNL     1      19.190  -0.460  52.258  1.00  0.00    -0.353 OA
HETATM   24  C11 UNL     1      17.906  -0.071  51.880  1.00  0.00     0.210 C 
ENDBRANCH   7  23
TORSDOF 5
ENDMDL
MODEL 4
REMARK VINA RESULT:      -7.4      4.242      6.931
REMARK  5 active torsions:
REMARK  status: ('A' for Active; 'I' for Inactive)
REMARK    1  A    between atoms: O1_2  and  C2_3 
REMARK    2  A    between atoms: C5_6  and  S1_7 
REMARK    3  A    between atoms: S1_7  and  C6_8 
REMARK    4  A    between atoms: C10_14  and  O2_15 
REMARK    5  A    between atoms: C12_17  and  O3_18 
ROOT
HETATM    1  C6  UNL     1      23.151   2.607  52.494  1.00  0.00     0.112 A 
HETATM    2  N1  UNL     1      22.035   2.016  52.035  1.00  0.00    -0.234 NA
HETATM    3  C7  UNL     1      21.856   0.680  51.985  1.00  0.00     0.234 A 
HETATM    4  N2  UNL     1      22.888  -0.083  52.432  1.00  0.00    -0.241 NA
HETATM    5  C8  UNL     1      24.010   0.460  52.893  1.00  0.00     0.074 A 
HETATM    6  C9  UNL     1      25.048  -0.363  53.344  1.00  0.00     0.072 A 
HETATM    7  C10 UNL     1      26.187   0.242  53.812  1.00  0.00     0.103 A 
HETATM    8  C12 UNL     1      26.399   1.605  53.876  1.00  0.00     0.102 A 
HETATM    9  C14 UNL     1      25.361   2.381  53.426  1.00  0.00     0.056 A 
HETATM   10  C15 UNL     1      24.195   1.826  52.946  1.00  0.00     0.031 A 
ENDROOT
BRANCH   1  11
HETATM   11  S1  UNL     1      23.362   4.377  52.551  1.00  0.00    -0.070 SA
BRANCH  11  12
HETATM   12  C5  UNL     1      24.341   4.949  51.172  1.00  0.00     0.007 A 
HETATM   13  C4  UNL     1      25.002   4.177  50.230  1.00  0.00     0.021 A 
HETATM   14  C3  UNL     1      25.716   4.799  49.227  1.00  0.00     0.038 A 
HETATM   15  C2  UNL     1      25.786   6.189  49.141  1.00  0.00     0.074 A 
HETATM   16  C17 UNL     1      25.133   6.972  50.072  1.00  0.00    -0.027 A 
HETATM   17  C16 UNL     1      24.417   6.332  51.078  1.00  0.00     0.028 A 
HETATM   18  C18 UNL     1      25.216   8.455  49.969  1.00  0.00     0.051 C 
BRANCH  15  19
HETATM   19  O1  UNL     1      26.501   6.787  48.137  1.00  0.00    -0.355 OA
HETATM   20  C1  UNL     1      27.913   6.694  48.102  1.00  0.00     0.210 C 
ENDBRANCH  15  19
ENDBRANCH  11  12
ENDBRANCH   1  11
BRANCH   8  21
HETATM   21  O3  UNL     1      27.606   2.069  54.375  1.00  0.00    -0.353 OA
HETATM   22  C13 UNL     1      28.592   2.465  53.441  1.00  0.00     0.210 C 
ENDBRANCH   8  21
BRANCH   7  23
HETATM   23  O2  UNL     1      27.192  -0.604  54.249  1.00  0.00    -0.353 OA
HETATM   24  C11 UNL     1      28.180  -1.151  53.432  1.00  0.00     0.210 C 
ENDBRANCH   7  23
TORSDOF 5
ENDMDL
MODEL 5
REMARK VINA RESULT:      -7.4      3.371      6.408
REMARK  5 active torsions:
REMARK  status: ('A' for Active; 'I' for Inactive)
REMARK    1  A    between atoms: O1_2  and  C2_3 
REMARK    2  A    between atoms: C5_6  and  S1_7 
REMARK    3  A    between atoms: S1_7  and  C6_8 
REMARK    4  A    between atoms: C10_14  and  O2_15 
REMARK    5  A    between atoms: C12_17  and  O3_18 
ROOT
HETATM    1  C6  UNL     1      22.061   0.294  52.701  1.00  0.00     0.112 A 
HETATM    2  N1  UNL     1      21.079  -0.183  53.485  1.00  0.00    -0.234 NA
HETATM    3  C7  UNL     1      21.292  -0.882  54.619  1.00  0.00     0.234 A 
HETATM    4  N2  UNL     1      22.590  -1.099  54.957  1.00  0.00    -0.241 NA
HETATM    5  C8  UNL     1      23.592  -0.646  54.211  1.00  0.00     0.074 A 
HETATM    6  C9  UNL     1      24.915  -0.891  54.596  1.00  0.00     0.072 A 
HETATM    7  C10 UNL     1      25.915  -0.403  53.796  1.00  0.00     0.103 A 
HETATM    8  C12 UNL     1      25.729   0.316  52.631  1.00  0.00     0.102 A 
HETATM    9  C14 UNL     1      24.421   0.538  52.283  1.00  0.00     0.056 A 
HETATM   10  C15 UNL     1      23.377   0.071  53.051  1.00  0.00     0.031 A 
ENDROOT
BRANCH   1  11
HETATM   11  S1  UNL     1      21.752   1.218  51.207  1.00  0.00    -0.070 SA
BRANCH  11  12
HETATM   12  C5  UNL     1      22.419   2.870  51.328  1.00  0.00     0.007 A 
HETATM   13  C4  UNL     1      22.092   3.845  52.256  1.00  0.00     0.021 A 
HETATM   14  C3  UNL     1      22.717   5.074  52.193  1.00  0.00     0.038 A 
HETATM   15  C2  UNL     1      23.669   5.354  51.215  1.00  0.00     0.074 A 
HETATM   16  C17 UNL     1      24.006   4.393  50.283  1.00  0.00    -0.027 A 
HETATM   17  C16 UNL     1      23.369   3.159  50.358  1.00  0.00     0.028 A 
HETATM   18  C18 UNL     1      25.025   4.705  49.243  1.00  0.00     0.051 C 
BRANCH  15  19
HETATM   19  O1  UNL     1      24.277   6.581  51.170  1.00  0.00    -0.355 OA
HETATM   20  C1  UNL     1      23.559   7.729  50.756  1.00  0.00     0.210 C 
ENDBRANCH  15  19
ENDBRANCH  11  12
ENDBRANCH   1  11
BRANCH   8  21
HETATM   21  O3  UNL     1      26.843   0.744  51.926  1.00  0.00    -0.353 OA
HETATM   22  C13 UNL     1      26.878   2.097  51.517  1.00  0.00     0.210 C 
ENDBRANCH   8  21
BRANCH   7  23
HETATM   23  O2  UNL     1      27.211  -0.666  54.209  1.00  0.00    -0.353 OA
HETATM   24  C11 UNL     1      28.017   0.229  54.910  1.00  0.00     0.210 C 
ENDBRANCH   7  23
TORSDOF 5
ENDMDL
MODEL 6
REMARK VINA RESULT:      -7.4      2.450      7.984
REMARK  5 active torsions:
REMARK  status: ('A' for Active; 'I' for Inactive)
REMARK    1  A    between atoms: O1_2  and  C2_3 
REMARK    2  A    between atoms: C5_6  and  S1_7 
REMARK    3  A    between atoms: S1_7  and  C6_8 
REMARK    4  A    between atoms: C10_14  and  O2_15 
REMARK    5  A    between atoms: C12_17  and  O3_18 
ROOT
HETATM    1  C6  UNL     1      23.125   2.188  51.846  1.00  0.00     0.112 A 
HETATM    2  N1  UNL     1      22.797   3.492  51.859  1.00  0.00    -0.234 NA
HETATM    3  C7  UNL     1      23.440   4.424  52.591  1.00  0.00     0.234 A 
HETATM    4  N2  UNL     1      24.477   3.983  53.350  1.00  0.00    -0.241 NA
HETATM    5  C8  UNL     1      24.836   2.703  53.368  1.00  0.00     0.074 A 
HETATM    6  C9  UNL     1      25.911   2.291  54.163  1.00  0.00     0.072 A 
HETATM    7  C10 UNL     1      26.244   0.961  54.149  1.00  0.00     0.103 A 
HETATM    8  C12 UNL     1      25.605  -0.016  53.411  1.00  0.00     0.102 A 
HETATM    9  C14 UNL     1      24.557   0.422  52.643  1.00  0.00     0.056 A 
HETATM   10  C15 UNL     1      24.179   1.747  52.619  1.00  0.00     0.031 A 
ENDROOT
BRANCH   1  11
HETATM   11  S1  UNL     1      22.258   0.975  50.867  1.00  0.00    -0.070 SA
BRANCH  11  12
HETATM   12  C5  UNL     1      20.947   0.213  51.810  1.00  0.00     0.007 A 
HETATM   13  C4  UNL     1      21.045  -0.396  53.050  1.00  0.00     0.021 A 
HETATM   14  C3  UNL     1      19.915  -0.936  53.630  1.00  0.00     0.038 A 
HETATM   15  C2  UNL     1      18.677  -0.882  52.992  1.00  0.00     0.074 A 
HETATM   16  C17 UNL     1      18.562  -0.279  51.756  1.00  0.00    -0.027 A 
HETATM   17  C16 UNL     1      19.710   0.261  51.183  1.00  0.00     0.028 A 
HETATM   18  C18 UNL     1      17.234  -0.228  51.085  1.00  0.00     0.051 C 
BRANCH  15  19
HETATM   19  O1  UNL     1      17.567  -1.424  53.585  1.00  0.00    -0.355 OA
HETATM   20  C1  UNL     1      17.394  -2.828  53.644  1.00  0.00     0.210 C 
ENDBRANCH  15  19
ENDBRANCH  11  12
ENDBRANCH   1  11
BRANCH   8  21
HETATM   21  O3  UNL     1      26.059  -1.323  53.500  1.00  0.00    -0.353 OA
HETATM   22  C13 UNL     1      26.774  -1.844  52.397  1.00  0.00     0.210 C 
ENDBRANCH   8  21
BRANCH   7  23
HETATM   23  O2  UNL     1      27.313   0.590  54.949  1.00  0.00    -0.353 OA
HETATM   24  C11 UNL     1      28.653   0.686  54.578  1.00  0.00     0.210 C 
ENDBRANCH   7  23
TORSDOF 5
ENDMDL
MODEL 7
REMARK VINA RESULT:      -7.4      3.083      4.450
REMARK  5 active torsions:
REMARK  status: ('A' for Active; 'I' for Inactive)
REMARK    1  A    between atoms: O1_2  and  C2_3 
REMARK    2  A    between atoms: C5_6  and  S1_7 
REMARK    3  A    between atoms: S1_7  and  C6_8 
REMARK    4  A    between atoms: C10_14  and  O2_15 
REMARK    5  A    between atoms: C12_17  and  O3_18 
ROOT
HETATM    1  C6  UNL     1      24.290  -0.228  53.609  1.00  0.00     0.112 A 
HETATM    2  N1  UNL     1      24.927  -0.729  54.681  1.00  0.00    -0.234 NA
HETATM    3  C7  UNL     1      24.308  -1.365  55.697  1.00  0.00     0.234 A 
HETATM    4  N2  UNL     1      22.958  -1.486  55.597  1.00  0.00    -0.241 NA
HETATM    5  C8  UNL     1      22.288  -1.006  54.555  1.00  0.00     0.074 A 
HETATM    6  C9  UNL     1      20.898  -1.153  54.491  1.00  0.00     0.072 A 
HETATM    7  C10 UNL     1      20.250  -0.642  53.397  1.00  0.00     0.103 A 
HETATM    8  C12 UNL     1      20.855   0.013  52.342  1.00  0.00     0.102 A 
HETATM    9  C14 UNL     1      22.218   0.139  52.436  1.00  0.00     0.056 A 
HETATM   10  C15 UNL     1      22.920  -0.356  53.514  1.00  0.00     0.031 A 
ENDROOT
BRANCH   1  11
HETATM   11  S1  UNL     1      25.134   0.606  52.277  1.00  0.00    -0.070 SA
BRANCH  11  12
HETATM   12  C5  UNL     1      24.515   2.269  52.072  1.00  0.00     0.007 A 
HETATM   13  C4  UNL     1      24.153   3.162  53.068  1.00  0.00     0.021 A 
HETATM   14  C3  UNL     1      23.691   4.414  52.717  1.00  0.00     0.038 A 
HETATM   15  C2  UNL     1      23.582   4.799  51.381  1.00  0.00     0.074 A 
HETATM   16  C17 UNL     1      23.939   3.920  50.378  1.00  0.00    -0.027 A 
HETATM   17  C16 UNL     1      24.402   2.661  50.746  1.00  0.00     0.028 A 
HETATM   18  C18 UNL     1      23.817   4.343  48.956  1.00  0.00     0.051 C 
BRANCH  15  19
HETATM   19  O1  UNL     1      23.121   6.047  51.055  1.00  0.00    -0.355 OA
HETATM   20  C1  UNL     1      21.742   6.354  51.147  1.00  0.00     0.210 C 
ENDBRANCH  15  19
ENDBRANCH  11  12
ENDBRANCH   1  11
BRANCH   8  21
HETATM   21  O3  UNL     1      20.064   0.475  51.302  1.00  0.00    -0.353 OA
HETATM   22  C13 UNL     1      20.719   0.906  50.124  1.00  0.00     0.210 C 
ENDBRANCH   8  21
BRANCH   7  23
HETATM   23  O2  UNL     1      18.875  -0.806  53.369  1.00  0.00    -0.353 OA
HETATM   24  C11 UNL     1      18.218  -2.024  53.539  1.00  0.00     0.210 C 
ENDBRANCH   7  23
TORSDOF 5
ENDMDL
MODEL 8
REMARK VINA RESULT:      -7.3      4.782      6.050
REMARK  5 active torsions:
REMARK  status: ('A' for Active; 'I' for Inactive)
REMARK    1  A    between atoms: O1_2  and  C2_3 
REMARK    2  A    between atoms: C5_6  and  S1_7 
REMARK    3  A    between atoms: S1_7  and  C6_8 
REMARK    4  A    between atoms: C10_14  and  O2_15 
REMARK    5  A    between atoms: C12_17  and  O3_18 
ROOT
HETATM    1  C6  UNL     1      25.563   2.662  51.180  1.00  0.00     0.112 A 
HETATM    2  N1  UNL     1      26.865   2.634  51.513  1.00  0.00    -0.234 NA
HETATM    3  C7  UNL     1      27.399   1.764  52.395  1.00  0.00     0.234 A 
HETATM    4  N2  UNL     1      26.539   0.878  52.962  1.00  0.00    -0.241 NA
HETATM    5  C8  UNL     1      25.244   0.870  52.662  1.00  0.00     0.074 A 
HETATM    6  C9  UNL     1      24.393  -0.061  53.269  1.00  0.00     0.072 A 
HETATM    7  C10 UNL     1      23.065  -0.031  52.928  1.00  0.00     0.103 A 
HETATM    8  C12 UNL     1      22.489   0.846  52.029  1.00  0.00     0.102 A 
HETATM    9  C14 UNL     1      23.352   1.744  51.453  1.00  0.00     0.056 A 
HETATM   10  C15 UNL     1      24.695   1.758  51.759  1.00  0.00     0.031 A 
ENDROOT
BRANCH   1  11
HETATM   11  S1  UNL     1      24.882   3.822  50.009  1.00  0.00    -0.070 SA
BRANCH  11  12
HETATM   12  C5  UNL     1      26.147   4.917  49.386  1.00  0.00     0.007 A 
HETATM   13  C4  UNL     1      27.348   4.565  48.790  1.00  0.00     0.021 A 
HETATM   14  C3  UNL     1      28.209   5.556  48.367  1.00  0.00     0.038 A 
HETATM   15  C2  UNL     1      27.896   6.905  48.528  1.00  0.00     0.074 A 
HETATM   16  C17 UNL     1      26.704   7.272  49.119  1.00  0.00    -0.027 A 
HETATM   17  C16 UNL     1      25.845   6.262  49.541  1.00  0.00     0.028 A 
HETATM   18  C18 UNL     1      26.382   8.716  49.285  1.00  0.00     0.051 C 
BRANCH  15  19
HETATM   19  O1  UNL     1      28.766   7.874  48.101  1.00  0.00    -0.355 OA
HETATM   20  C1  UNL     1      30.164   7.657  48.141  1.00  0.00     0.210 C 
ENDBRANCH  15  19
ENDBRANCH  11  12
ENDBRANCH   1  11
BRANCH   8  21
HETATM   21  O3  UNL     1      21.128   0.753  51.786  1.00  0.00    -0.353 OA
HETATM   22  C13 UNL     1      20.293   1.746  52.350  1.00  0.00     0.210 C 
ENDBRANCH   8  21
BRANCH   7  23
HETATM   23  O2  UNL     1      22.254  -0.966  53.549  1.00  0.00    -0.353 OA
HETATM   24  C11 UNL     1      21.755  -0.848  54.845  1.00  0.00     0.210 C 
ENDBRANCH   7  23
TORSDOF 5
ENDMDL
MODEL 9
REMARK VINA RESULT:      -7.1      4.964      7.222
REMARK  5 active torsions:
REMARK  status: ('A' for Active; 'I' for Inactive)
REMARK    1  A    between atoms: O1_2  and  C2_3 
REMARK    2  A    between atoms: C5_6  and  S1_7 
REMARK    3  A    between atoms: S1_7  and  C6_8 
REMARK    4  A    between atoms: C10_14  and  O2_15 
REMARK    5  A    between atoms: C12_17  and  O3_18 
ROOT
HETATM    1  C6  UNL     1      25.017   2.393  50.930  1.00  0.00     0.112 A 
HETATM    2  N1  UNL     1      23.820   2.865  50.543  1.00  0.00    -0.234 NA
HETATM    3  C7  UNL     1      22.647   2.485  51.089  1.00  0.00     0.234 A 
HETATM    4  N2  UNL     1      22.718   1.566  52.088  1.00  0.00    -0.241 NA
HETATM    5  C8  UNL     1      23.880   1.072  52.502  1.00  0.00     0.074 A 
HETATM    6  C9  UNL     1      23.908   0.128  53.534  1.00  0.00     0.072 A 
HETATM    7  C10 UNL     1      25.130  -0.353  53.928  1.00  0.00     0.103 A 
HETATM    8  C12 UNL     1      26.347   0.017  53.389  1.00  0.00     0.102 A 
HETATM    9  C14 UNL     1      26.283   0.944  52.380  1.00  0.00     0.056 A 
HETATM   10  C15 UNL     1      25.082   1.460  51.945  1.00  0.00     0.031 A 
ENDROOT
BRANCH   1  11
HETATM   11  S1  UNL     1      26.555   2.914  50.192  1.00  0.00    -0.070 SA
BRANCH  11  12
HETATM   12  C5  UNL     1      26.377   4.506  49.403  1.00  0.00     0.007 A 
HETATM   13  C4  UNL     1      25.224   5.265  49.286  1.00  0.00     0.021 A 
HETATM   14  C3  UNL     1      25.278   6.481  48.637  1.00  0.00     0.038 A 
HETATM   15  C2  UNL     1      26.469   6.961  48.094  1.00  0.00     0.074 A 
HETATM   16  C17 UNL     1      27.626   6.217  48.202  1.00  0.00    -0.027 A 
HETATM   17  C16 UNL     1      27.558   4.992  48.859  1.00  0.00     0.028 A 
HETATM   18  C18 UNL     1      28.891   6.741  47.618  1.00  0.00     0.051 C 
BRANCH  15  19
HETATM   19  O1  UNL     1      26.500   8.171  47.453  1.00  0.00    -0.355 OA
HETATM   20  C1  UNL     1      25.802   8.362  46.236  1.00  0.00     0.210 C 
ENDBRANCH  15  19
ENDBRANCH  11  12
ENDBRANCH   1  11
BRANCH   8  21
HETATM   21  O3  UNL     1      27.503  -0.559  53.894  1.00  0.00    -0.353 OA
HETATM   22  C13 UNL     1      28.293   0.221  54.771  1.00  0.00     0.210 C 
ENDBRANCH   8  21
BRANCH   7  23
HETATM   23  O2  UNL     1      25.119  -1.286  54.952  1.00  0.00    -0.353 OA
HETATM   24  C11 UNL     1      24.096  -1.423  55.889  1.00  0.00     0.210 C 
ENDBRANCH   7  23
TORSDOF 5
ENDMDL
