MODEL 1
REMARK VINA RESULT:      -7.9      0.000      0.000
REMARK  6 active torsions:
REMARK  status: ('A' for Active; 'I' for Inactive)
REMARK    1  A    between atoms: C3_3  and  N1_4 
REMARK    2  A    between atoms: N1_4  and  C4_5 
REMARK    3  A    between atoms: C5_6  and  O1_7 
REMARK    4  A    between atoms: C11_16  and  N4_17 
REMARK    5  A    between atoms: N4_17  and  C12_18 
REMARK    6  A    between atoms: C12_18  and  C13_19 
ROOT
HETATM    1  C1  UNL     1      24.107   3.757  53.027  1.00  0.00     0.047 C 
HETATM    2  C2  UNL     1      24.153   2.443  52.935  1.00  0.00    -0.012 C 
HETATM    3  C3  UNL     1      25.303   1.712  53.514  1.00  0.00     0.045 C 
HETATM    4  C7  UNL     1      25.267   0.405  53.792  1.00  0.00     0.030 C 
HETATM    5  C8  UNL     1      24.326  -0.728  53.705  1.00  0.00     0.207 C 
HETATM    6  O2  UNL     1      23.005  -0.383  53.362  1.00  0.00    -0.330 OA
HETATM    7  C9  UNL     1      22.512   0.586  52.493  1.00  0.00     0.180 A 
HETATM    8  N2  UNL     1      21.426   0.247  51.798  1.00  0.00    -0.217 NA
HETATM    9  C10 UNL     1      20.874   1.105  50.933  1.00  0.00     0.238 A 
HETATM   10  N3  UNL     1      21.381   2.323  50.734  1.00  0.00    -0.224 NA
HETATM   11  C11 UNL     1      22.467   2.769  51.374  1.00  0.00     0.140 A 
HETATM   12  C19 UNL     1      22.999   1.854  52.253  1.00  0.00     0.071 A 
ENDROOT
BRANCH  11  13
HETATM   13  N4  UNL     1      22.976   4.051  51.057  1.00  0.00    -0.370 N 
HETATM   14  H11 UNL     1      23.312   4.950  51.425  1.00  0.00     0.161 HD
BRANCH  13  15
HETATM   15  C12 UNL     1      23.177   4.378  49.663  1.00  0.00     0.160 C 
BRANCH  15  16
HETATM   16  C13 UNL     1      24.577   4.714  49.311  1.00  0.00    -0.041 A 
HETATM   17  C14 UNL     1      25.241   5.810  48.844  1.00  0.00     0.009 A 
HETATM   18  C15 UNL     1      26.592   5.815  48.634  1.00  0.00     0.001 A 
HETATM   19  C16 UNL     1      27.379   4.711  48.879  1.00  0.00     0.000 A 
HETATM   20  C17 UNL     1      26.757   3.592  49.345  1.00  0.00     0.001 A 
HETATM   21  C18 UNL     1      25.375   3.585  49.562  1.00  0.00     0.009 A 
ENDBRANCH  15  16
ENDBRANCH  13  15
ENDBRANCH  11  13
BRANCH   3  22
HETATM   22  N1  UNL     1      26.437   2.494  53.753  1.00  0.00    -0.313 N 
HETATM   23  H3  UNL     1      26.503   3.512  53.965  1.00  0.00     0.176 HD
BRANCH  22  24
HETATM   24  C4  UNL     1      27.680   1.807  53.706  1.00  0.00     0.041 C 
HETATM   25  C5  UNL     1      28.733   1.205  53.658  1.00  0.00     0.077 C 
BRANCH  25  26
HETATM   26  O1  UNL     1      29.917   0.524  53.614  1.00  0.00    -0.307 OA
HETATM   27  C6  UNL     1      29.939  -0.910  53.621  1.00  0.00     0.223 C 
ENDBRANCH  25  26
ENDBRANCH  22  24
ENDBRANCH   3  22
TORSDOF 6
ENDMDL
MODEL 2
REMARK VINA RESULT:      -7.5      2.965      6.120
REMARK  6 active torsions:
REMARK  status: ('A' for Active; 'I' for Inactive)
REMARK    1  A    between atoms: C3_3  and  N1_4 
REMARK    2  A    between atoms: N1_4  and  C4_5 
REMARK    3  A    between atoms: C5_6  and  O1_7 
REMARK    4  A    between atoms: C11_16  and  N4_17 
REMARK    5  A    between atoms: N4_17  and  C12_18 
REMARK    6  A    between atoms: C12_18  and  C13_19 
ROOT
HETATM    1  C1  UNL     1      24.857   2.068  51.724  1.00  0.00     0.047 C 
HETATM    2  C2  UNL     1      23.652   2.372  52.162  1.00  0.00    -0.012 C 
HETATM    3  C3  UNL     1      23.201   3.782  52.138  1.00  0.00     0.045 C 
HETATM    4  C7  UNL     1      21.913   4.134  52.208  1.00  0.00     0.030 C 
HETATM    5  C8  UNL     1      20.588   3.496  52.317  1.00  0.00     0.207 C 
HETATM    6  O2  UNL     1      20.583   2.096  52.175  1.00  0.00    -0.330 OA
HETATM    7  C9  UNL     1      21.501   1.135  52.589  1.00  0.00     0.180 A 
HETATM    8  N2  UNL     1      20.985  -0.018  53.016  1.00  0.00    -0.217 NA
HETATM    9  C10 UNL     1      21.779  -1.007  53.438  1.00  0.00     0.238 A 
HETATM   10  N3  UNL     1      23.108  -0.882  53.450  1.00  0.00    -0.224 NA
HETATM   11  C11 UNL     1      23.735   0.228  53.048  1.00  0.00     0.140 A 
HETATM   12  C19 UNL     1      22.878   1.216  52.621  1.00  0.00     0.071 A 
ENDROOT
BRANCH  11  13
HETATM   13  N4  UNL     1      25.145   0.300  53.152  1.00  0.00    -0.370 N 
HETATM   14  H11 UNL     1      25.971   0.912  53.130  1.00  0.00     0.161 HD
BRANCH  13  15
HETATM   15  C12 UNL     1      25.870  -0.921  53.418  1.00  0.00     0.160 C 
BRANCH  15  16
HETATM   16  C13 UNL     1      27.344  -0.766  53.427  1.00  0.00    -0.041 A 
HETATM   17  C14 UNL     1      28.423  -1.571  53.209  1.00  0.00     0.009 A 
HETATM   18  C15 UNL     1      29.708  -1.110  53.269  1.00  0.00     0.001 A 
HETATM   19  C16 UNL     1      30.005   0.205  53.556  1.00  0.00     0.000 A 
HETATM   20  C17 UNL     1      28.958   1.046  53.783  1.00  0.00     0.001 A 
HETATM   21  C18 UNL     1      27.642   0.576  53.721  1.00  0.00     0.009 A 
ENDBRANCH  15  16
ENDBRANCH  13  15
ENDBRANCH  11  13
BRANCH   3  22
HETATM   22  N1  UNL     1      24.227   4.726  52.032  1.00  0.00    -0.313 N 
HETATM   23  H3  UNL     1      25.215   4.664  52.358  1.00  0.00     0.176 HD
BRANCH  22  24
HETATM   24  C4  UNL     1      23.879   5.944  51.389  1.00  0.00     0.041 C 
HETATM   25  C5  UNL     1      23.594   6.981  50.827  1.00  0.00     0.077 C 
BRANCH  25  26
HETATM   26  O1  UNL     1      23.280   8.154  50.198  1.00  0.00    -0.307 OA
HETATM   27  C6  UNL     1      21.982   8.351  49.621  1.00  0.00     0.223 C 
ENDBRANCH  25  26
ENDBRANCH  22  24
ENDBRANCH   3  22
TORSDOF 6
ENDMDL
MODEL 3
REMARK VINA RESULT:      -7.5      2.606      6.390
REMARK  6 active torsions:
REMARK  status: ('A' for Active; 'I' for Inactive)
REMARK    1  A    between atoms: C3_3  and  N1_4 
REMARK    2  A    between atoms: N1_4  and  C4_5 
REMARK    3  A    between atoms: C5_6  and  O1_7 
REMARK    4  A    between atoms: C11_16  and  N4_17 
REMARK    5  A    between atoms: N4_17  and  C12_18 
REMARK    6  A    between atoms: C12_18  and  C13_19 
ROOT
HETATM    1  C1  UNL     1      23.650   2.050  53.100  1.00  0.00     0.047 C 
HETATM    2  C2  UNL     1      23.277   1.823  51.857  1.00  0.00    -0.012 C 
HETATM    3  C3  UNL     1      22.231   0.811  51.582  1.00  0.00     0.045 C 
HETATM    4  C7  UNL     1      21.542   0.770  50.437  1.00  0.00     0.030 C 
HETATM    5  C8  UNL     1      21.458   1.503  49.160  1.00  0.00     0.207 C 
HETATM    6  O2  UNL     1      22.198   2.701  49.107  1.00  0.00    -0.330 OA
HETATM    7  C9  UNL     1      23.434   3.033  49.655  1.00  0.00     0.180 A 
HETATM    8  N2  UNL     1      24.207   3.823  48.909  1.00  0.00    -0.217 NA
HETATM    9  C10 UNL     1      25.415   4.200  49.341  1.00  0.00     0.238 A 
HETATM   10  N3  UNL     1      25.891   3.806  50.523  1.00  0.00    -0.224 NA
HETATM   11  C11 UNL     1      25.205   3.013  51.352  1.00  0.00     0.140 A 
HETATM   12  C19 UNL     1      23.969   2.652  50.867  1.00  0.00     0.071 A 
ENDROOT
BRANCH  11  13
HETATM   13  N4  UNL     1      25.810   2.591  52.561  1.00  0.00    -0.370 N 
HETATM   14  H11 UNL     1      25.692   2.466  53.575  1.00  0.00     0.161 HD
BRANCH  13  15
HETATM   15  C12 UNL     1      27.159   2.077  52.502  1.00  0.00     0.160 C 
BRANCH  15  16
HETATM   16  C13 UNL     1      27.256   0.601  52.606  1.00  0.00    -0.041 A 
HETATM   17  C14 UNL     1      26.475  -0.465  52.274  1.00  0.00     0.009 A 
HETATM   18  C15 UNL     1      26.868  -1.757  52.483  1.00  0.00     0.001 A 
HETATM   19  C16 UNL     1      28.085  -2.074  53.046  1.00  0.00     0.000 A 
HETATM   20  C17 UNL     1      28.899  -1.039  53.395  1.00  0.00     0.001 A 
HETATM   21  C18 UNL     1      28.499   0.284  53.181  1.00  0.00     0.009 A 
ENDBRANCH  15  16
ENDBRANCH  13  15
ENDBRANCH  11  13
BRANCH   3  22
HETATM   22  N1  UNL     1      22.012  -0.104  52.617  1.00  0.00    -0.313 N 
HETATM   23  H3  UNL     1      22.707  -0.635  53.184  1.00  0.00     0.176 HD
BRANCH  22  24
HETATM   24  C4  UNL     1      20.652  -0.347  52.947  1.00  0.00     0.041 C 
HETATM   25  C5  UNL     1      19.496  -0.568  53.240  1.00  0.00     0.077 C 
BRANCH  25  26
HETATM   26  O1  UNL     1      18.192  -0.823  53.562  1.00  0.00    -0.307 OA
HETATM   27  C6  UNL     1      17.664  -2.155  53.481  1.00  0.00     0.223 C 
ENDBRANCH  25  26
ENDBRANCH  22  24
ENDBRANCH   3  22
TORSDOF 6
ENDMDL
MODEL 4
REMARK VINA RESULT:      -7.5      2.462      6.125
REMARK  6 active torsions:
REMARK  status: ('A' for Active; 'I' for Inactive)
REMARK    1  A    between atoms: C3_3  and  N1_4 
REMARK    2  A    between atoms: N1_4  and  C4_5 
REMARK    3  A    between atoms: C5_6  and  O1_7 
REMARK    4  A    between atoms: C11_16  and  N4_17 
REMARK    5  A    between atoms: N4_17  and  C12_18 
REMARK    6  A    between atoms: C12_18  and  C13_19 
ROOT
HETATM    1  C1  UNL     1      23.461   2.153  52.407  1.00  0.00     0.047 C 
HETATM    2  C2  UNL     1      24.711   1.759  52.540  1.00  0.00    -0.012 C 
HETATM    3  C3  UNL     1      25.763   2.373  51.699  1.00  0.00     0.045 C 
HETATM    4  C7  UNL     1      27.064   2.313  52.004  1.00  0.00     0.030 C 
HETATM    5  C8  UNL     1      27.938   1.758  53.054  1.00  0.00     0.207 C 
HETATM    6  O2  UNL     1      27.268   1.237  54.177  1.00  0.00    -0.330 OA
HETATM    7  C9  UNL     1      26.065   0.545  54.280  1.00  0.00     0.180 A 
HETATM    8  N2  UNL     1      26.028  -0.425  55.195  1.00  0.00    -0.217 NA
HETATM    9  C10 UNL     1      24.921  -1.153  55.373  1.00  0.00     0.238 A 
HETATM   10  N3  UNL     1      23.819  -0.941  54.652  1.00  0.00    -0.224 NA
HETATM   11  C11 UNL     1      23.742   0.003  53.708  1.00  0.00     0.140 A 
HETATM   12  C19 UNL     1      24.902   0.726  53.561  1.00  0.00     0.071 A 
ENDROOT
BRANCH  11  13
HETATM   13  N4  UNL     1      22.555   0.120  52.945  1.00  0.00    -0.370 N 
HETATM   14  H11 UNL     1      22.129   0.475  52.079  1.00  0.00     0.161 HD
BRANCH  13  15
HETATM   15  C12 UNL     1      21.348  -0.479  53.470  1.00  0.00     0.160 C 
BRANCH  15  16
HETATM   16  C13 UNL     1      20.145  -0.265  52.630  1.00  0.00    -0.041 A 
HETATM   17  C14 UNL     1      18.810  -0.518  52.736  1.00  0.00     0.009 A 
HETATM   18  C15 UNL     1      17.916  -0.165  51.764  1.00  0.00     0.001 A 
HETATM   19  C16 UNL     1      18.303   0.473  50.605  1.00  0.00     0.000 A 
HETATM   20  C17 UNL     1      19.629   0.746  50.456  1.00  0.00     0.001 A 
HETATM   21  C18 UNL     1      20.545   0.386  51.450  1.00  0.00     0.009 A 
ENDBRANCH  15  16
ENDBRANCH  13  15
ENDBRANCH  11  13
BRANCH   3  22
HETATM   22  N1  UNL     1      25.295   3.029  50.556  1.00  0.00    -0.313 N 
HETATM   23  H3  UNL     1      24.322   3.098  50.188  1.00  0.00     0.176 HD
BRANCH  22  24
HETATM   24  C4  UNL     1      26.281   3.700  49.783  1.00  0.00     0.041 C 
HETATM   25  C5  UNL     1      27.111   4.288  49.123  1.00  0.00     0.077 C 
BRANCH  25  26
HETATM   26  O1  UNL     1      28.044   4.945  48.370  1.00  0.00    -0.307 OA
HETATM   27  C6  UNL     1      28.055   6.379  48.305  1.00  0.00     0.223 C 
ENDBRANCH  25  26
ENDBRANCH  22  24
ENDBRANCH   3  22
TORSDOF 6
ENDMDL
MODEL 5
REMARK VINA RESULT:      -7.4      1.585      2.042
REMARK  6 active torsions:
REMARK  status: ('A' for Active; 'I' for Inactive)
REMARK    1  A    between atoms: C3_3  and  N1_4 
REMARK    2  A    between atoms: N1_4  and  C4_5 
REMARK    3  A    between atoms: C5_6  and  O1_7 
REMARK    4  A    between atoms: C11_16  and  N4_17 
REMARK    5  A    between atoms: N4_17  and  C12_18 
REMARK    6  A    between atoms: C12_18  and  C13_19 
ROOT
HETATM    1  C1  UNL     1      24.815   1.546  52.188  1.00  0.00     0.047 C 
HETATM    2  C2  UNL     1      23.873   0.790  52.713  1.00  0.00    -0.012 C 
HETATM    3  C3  UNL     1      24.248  -0.440  53.447  1.00  0.00     0.045 C 
HETATM    4  C7  UNL     1      23.426  -1.055  54.303  1.00  0.00     0.030 C 
HETATM    5  C8  UNL     1      22.064  -0.899  54.847  1.00  0.00     0.207 C 
HETATM    6  O2  UNL     1      21.422   0.310  54.518  1.00  0.00    -0.330 OA
HETATM    7  C9  UNL     1      21.454   1.070  53.353  1.00  0.00     0.180 A 
HETATM    8  N2  UNL     1      20.306   1.655  53.008  1.00  0.00    -0.217 NA
HETATM    9  C10 UNL     1      20.227   2.406  51.905  1.00  0.00     0.238 A 
HETATM   10  N3  UNL     1      21.283   2.599  51.112  1.00  0.00    -0.224 NA
HETATM   11  C11 UNL     1      22.482   2.062  51.358  1.00  0.00     0.140 A 
HETATM   12  C19 UNL     1      22.516   1.300  52.503  1.00  0.00     0.071 A 
ENDROOT
BRANCH  11  13
HETATM   13  N4  UNL     1      23.533   2.267  50.432  1.00  0.00    -0.370 N 
HETATM   14  H11 UNL     1      24.396   1.884  50.023  1.00  0.00     0.161 HD
BRANCH  13  15
HETATM   15  C12 UNL     1      23.514   3.474  49.638  1.00  0.00     0.160 C 
BRANCH  15  16
HETATM   16  C13 UNL     1      24.853   4.050  49.369  1.00  0.00    -0.041 A 
HETATM   17  C14 UNL     1      26.143   3.608  49.407  1.00  0.00     0.009 A 
HETATM   18  C15 UNL     1      27.201   4.404  49.066  1.00  0.00     0.001 A 
HETATM   19  C16 UNL     1      27.039   5.711  48.661  1.00  0.00     0.000 A 
HETATM   20  C17 UNL     1      25.766   6.195  48.610  1.00  0.00     0.001 A 
HETATM   21  C18 UNL     1      24.682   5.383  48.957  1.00  0.00     0.009 A 
ENDBRANCH  15  16
ENDBRANCH  13  15
ENDBRANCH  11  13
BRANCH   3  22
HETATM   22  N1  UNL     1      25.536  -0.914  53.180  1.00  0.00    -0.313 N 
HETATM   23  H3  UNL     1      25.838  -1.671  52.530  1.00  0.00     0.176 HD
BRANCH  22  24
HETATM   24  C4  UNL     1      26.588  -0.275  53.891  1.00  0.00     0.041 C 
HETATM   25  C5  UNL     1      27.498   0.260  54.488  1.00  0.00     0.077 C 
BRANCH  25  26
HETATM   26  O1  UNL     1      28.523   0.857  55.168  1.00  0.00    -0.307 OA
HETATM   27  C6  UNL     1      29.381   1.805  54.517  1.00  0.00     0.223 C 
ENDBRANCH  25  26
ENDBRANCH  22  24
ENDBRANCH   3  22
TORSDOF 6
ENDMDL
MODEL 6
REMARK VINA RESULT:      -7.2      3.292      6.611
REMARK  6 active torsions:
REMARK  status: ('A' for Active; 'I' for Inactive)
REMARK    1  A    between atoms: C3_3  and  N1_4 
REMARK    2  A    between atoms: N1_4  and  C4_5 
REMARK    3  A    between atoms: C5_6  and  O1_7 
REMARK    4  A    between atoms: C11_16  and  N4_17 
REMARK    5  A    between atoms: N4_17  and  C12_18 
REMARK    6  A    between atoms: C12_18  and  C13_19 
ROOT
HETATM    1  C1  UNL     1      26.556   3.149  49.572  1.00  0.00     0.047 C 
HETATM    2  C2  UNL     1      26.148   4.401  49.629  1.00  0.00    -0.012 C 
HETATM    3  C3  UNL     1      26.828   5.427  48.807  1.00  0.00     0.045 C 
HETATM    4  C7  UNL     1      26.276   6.611  48.520  1.00  0.00     0.030 C 
HETATM    5  C8  UNL     1      25.029   7.353  48.784  1.00  0.00     0.207 C 
HETATM    6  O2  UNL     1      24.009   6.607  49.405  1.00  0.00    -0.330 OA
HETATM    7  C9  UNL     1      24.070   5.610  50.375  1.00  0.00     0.180 A 
HETATM    8  N2  UNL     1      23.089   5.616  51.278  1.00  0.00    -0.217 NA
HETATM    9  C10 UNL     1      23.055   4.703  52.254  1.00  0.00     0.238 A 
HETATM   10  N3  UNL     1      23.991   3.759  52.363  1.00  0.00    -0.224 NA
HETATM   11  C11 UNL     1      25.020   3.657  51.516  1.00  0.00     0.140 A 
HETATM   12  C19 UNL     1      25.013   4.615  50.529  1.00  0.00     0.071 A 
ENDROOT
BRANCH  11  13
HETATM   13  N4  UNL     1      26.003   2.664  51.741  1.00  0.00    -0.370 N 
HETATM   14  H11 UNL     1      26.794   2.141  51.342  1.00  0.00     0.161 HD
BRANCH  13  15
HETATM   15  C12 UNL     1      26.051   2.037  53.043  1.00  0.00     0.160 C 
BRANCH  15  16
HETATM   16  C13 UNL     1      26.977   0.882  53.131  1.00  0.00    -0.041 A 
HETATM   17  C14 UNL     1      26.923  -0.450  52.848  1.00  0.00     0.009 A 
HETATM   18  C15 UNL     1      27.994  -1.282  53.022  1.00  0.00     0.001 A 
HETATM   19  C16 UNL     1      29.207  -0.831  53.496  1.00  0.00     0.000 A 
HETATM   20  C17 UNL     1      29.306   0.495  53.793  1.00  0.00     0.001 A 
HETATM   21  C18 UNL     1      28.212   1.348  53.615  1.00  0.00     0.009 A 
ENDBRANCH  15  16
ENDBRANCH  13  15
ENDBRANCH  11  13
BRANCH   3  22
HETATM   22  N1  UNL     1      28.098   5.067  48.347  1.00  0.00    -0.313 N 
HETATM   23  H3  UNL     1      28.452   4.130  48.057  1.00  0.00     0.176 HD
BRANCH  22  24
HETATM   24  C4  UNL     1      29.044   6.123  48.258  1.00  0.00     0.041 C 
HETATM   25  C5  UNL     1      29.864   7.014  48.191  1.00  0.00     0.077 C 
BRANCH  25  26
HETATM   26  O1  UNL     1      30.784   8.024  48.125  1.00  0.00    -0.307 OA
HETATM   27  C6  UNL     1      31.096   8.808  49.285  1.00  0.00     0.223 C 
ENDBRANCH  25  26
ENDBRANCH  22  24
ENDBRANCH   3  22
TORSDOF 6
ENDMDL
MODEL 7
REMARK VINA RESULT:      -7.2      3.184      6.550
REMARK  6 active torsions:
REMARK  status: ('A' for Active; 'I' for Inactive)
REMARK    1  A    between atoms: C3_3  and  N1_4 
REMARK    2  A    between atoms: N1_4  and  C4_5 
REMARK    3  A    between atoms: C5_6  and  O1_7 
REMARK    4  A    between atoms: C11_16  and  N4_17 
REMARK    5  A    between atoms: N4_17  and  C12_18 
REMARK    6  A    between atoms: C12_18  and  C13_19 
ROOT
HETATM    1  C1  UNL     1      26.849   3.432  50.354  1.00  0.00     0.047 C 
HETATM    2  C2  UNL     1      25.662   3.915  50.047  1.00  0.00    -0.012 C 
HETATM    3  C3  UNL     1      25.563   5.212  49.341  1.00  0.00     0.045 C 
HETATM    4  C7  UNL     1      24.467   5.597  48.678  1.00  0.00     0.030 C 
HETATM    5  C8  UNL     1      23.118   5.089  48.364  1.00  0.00     0.207 C 
HETATM    6  O2  UNL     1      22.887   3.746  48.718  1.00  0.00    -0.330 OA
HETATM    7  C9  UNL     1      23.328   3.002  49.809  1.00  0.00     0.180 A 
HETATM    8  N2  UNL     1      22.455   2.124  50.305  1.00  0.00    -0.217 NA
HETATM    9  C10 UNL     1      22.777   1.361  51.355  1.00  0.00     0.238 A 
HETATM   10  N3  UNL     1      23.972   1.447  51.943  1.00  0.00    -0.224 NA
HETATM   11  C11 UNL     1      24.923   2.292  51.532  1.00  0.00     0.140 A 
HETATM   12  C19 UNL     1      24.548   3.054  50.450  1.00  0.00     0.071 A 
ENDROOT
BRANCH  11  13
HETATM   13  N4  UNL     1      26.140   2.363  52.252  1.00  0.00    -0.370 N 
HETATM   14  H11 UNL     1      27.071   2.796  52.313  1.00  0.00     0.161 HD
BRANCH  13  15
HETATM   15  C12 UNL     1      26.277   1.549  53.438  1.00  0.00     0.160 C 
BRANCH  15  16
HETATM   16  C13 UNL     1      27.467   0.665  53.438  1.00  0.00    -0.041 A 
HETATM   17  C14 UNL     1      28.790   0.791  53.740  1.00  0.00     0.009 A 
HETATM   18  C15 UNL     1      29.665  -0.256  53.660  1.00  0.00     0.001 A 
HETATM   19  C16 UNL     1      29.270  -1.517  53.267  1.00  0.00     0.000 A 
HETATM   20  C17 UNL     1      27.956  -1.689  52.954  1.00  0.00     0.001 A 
HETATM   21  C18 UNL     1      27.059  -0.619  53.036  1.00  0.00     0.009 A 
ENDBRANCH  15  16
ENDBRANCH  13  15
ENDBRANCH  11  13
BRANCH   3  22
HETATM   22  N1  UNL     1      26.707   6.012  49.415  1.00  0.00    -0.313 N 
HETATM   23  H3  UNL     1      27.710   5.728  49.410  1.00  0.00     0.176 HD
BRANCH  22  24
HETATM   24  C4  UNL     1      26.476   7.411  49.510  1.00  0.00     0.041 C 
HETATM   25  C5  UNL     1      26.292   8.608  49.578  1.00  0.00     0.077 C 
BRANCH  25  26
HETATM   26  O1  UNL     1      26.092   9.958  49.663  1.00  0.00    -0.307 OA
HETATM   27  C6  UNL     1      26.339  10.808  48.534  1.00  0.00     0.223 C 
ENDBRANCH  25  26
ENDBRANCH  22  24
ENDBRANCH   3  22
TORSDOF 6
ENDMDL
MODEL 8
REMARK VINA RESULT:      -7.2      3.822      6.946
REMARK  6 active torsions:
REMARK  status: ('A' for Active; 'I' for Inactive)
REMARK    1  A    between atoms: C3_3  and  N1_4 
REMARK    2  A    between atoms: N1_4  and  C4_5 
REMARK    3  A    between atoms: C5_6  and  O1_7 
REMARK    4  A    between atoms: C11_16  and  N4_17 
REMARK    5  A    between atoms: N4_17  and  C12_18 
REMARK    6  A    between atoms: C12_18  and  C13_19 
ROOT
HETATM    1  C1  UNL     1      26.900   3.998  49.335  1.00  0.00     0.047 C 
HETATM    2  C2  UNL     1      26.596   5.236  49.003  1.00  0.00    -0.012 C 
HETATM    3  C3  UNL     1      27.656   6.137  48.497  1.00  0.00     0.045 C 
HETATM    4  C7  UNL     1      27.394   7.253  47.808  1.00  0.00     0.030 C 
HETATM    5  C8  UNL     1      26.229   8.003  47.304  1.00  0.00     0.207 C 
HETATM    6  O2  UNL     1      24.992   7.343  47.429  1.00  0.00    -0.330 OA
HETATM    7  C9  UNL     1      24.501   6.508  48.429  1.00  0.00     0.180 A 
HETATM    8  N2  UNL     1      23.203   6.635  48.709  1.00  0.00    -0.217 NA
HETATM    9  C10 UNL     1      22.632   5.882  49.654  1.00  0.00     0.238 A 
HETATM   10  N3  UNL     1      23.331   4.982  50.350  1.00  0.00    -0.224 NA
HETATM   11  C11 UNL     1      24.636   4.771  50.156  1.00  0.00     0.140 A 
HETATM   12  C19 UNL     1      25.179   5.566  49.173  1.00  0.00     0.071 A 
ENDROOT
BRANCH  11  13
HETATM   13  N4  UNL     1      25.314   3.841  50.980  1.00  0.00    -0.370 N 
HETATM   14  H11 UNL     1      26.224   3.526  51.341  1.00  0.00     0.161 HD
BRANCH  13  15
HETATM   15  C12 UNL     1      24.524   2.866  51.698  1.00  0.00     0.160 C 
BRANCH  15  16
HETATM   16  C13 UNL     1      25.240   1.604  52.003  1.00  0.00    -0.041 A 
HETATM   17  C14 UNL     1      26.454   1.061  51.703  1.00  0.00     0.009 A 
HETATM   18  C15 UNL     1      26.848  -0.160  52.172  1.00  0.00     0.001 A 
HETATM   19  C16 UNL     1      26.044  -0.932  52.984  1.00  0.00     0.000 A 
HETATM   20  C17 UNL     1      24.820  -0.428  53.308  1.00  0.00     0.001 A 
HETATM   21  C18 UNL     1      24.415   0.822  52.829  1.00  0.00     0.009 A 
ENDBRANCH  15  16
ENDBRANCH  13  15
ENDBRANCH  11  13
BRANCH   3  22
HETATM   22  N1  UNL     1      28.962   5.732  48.791  1.00  0.00    -0.313 N 
HETATM   23  H3  UNL     1      29.304   5.121  49.563  1.00  0.00     0.176 HD
BRANCH  22  24
HETATM   24  C4  UNL     1      29.970   6.218  47.914  1.00  0.00     0.041 C 
HETATM   25  C5  UNL     1      30.825   6.619  47.154  1.00  0.00     0.077 C 
BRANCH  25  26
HETATM   26  O1  UNL     1      31.797   7.065  46.302  1.00  0.00    -0.307 OA
HETATM   27  C6  UNL     1      32.758   6.156  45.746  1.00  0.00     0.223 C 
ENDBRANCH  25  26
ENDBRANCH  22  24
ENDBRANCH   3  22
TORSDOF 6
ENDMDL
MODEL 9
REMARK VINA RESULT:      -7.1      2.087      5.442
REMARK  6 active torsions:
REMARK  status: ('A' for Active; 'I' for Inactive)
REMARK    1  A    between atoms: C3_3  and  N1_4 
REMARK    2  A    between atoms: N1_4  and  C4_5 
REMARK    3  A    between atoms: C5_6  and  O1_7 
REMARK    4  A    between atoms: C11_16  and  N4_17 
REMARK    5  A    between atoms: N4_17  and  C12_18 
REMARK    6  A    between atoms: C12_18  and  C13_19 
ROOT
HETATM    1  C1  UNL     1      23.340   2.109  50.674  1.00  0.00     0.047 C 
HETATM    2  C2  UNL     1      23.332   1.509  51.847  1.00  0.00    -0.012 C 
HETATM    3  C3  UNL     1      22.065   1.408  52.606  1.00  0.00     0.045 C 
HETATM    4  C7  UNL     1      21.879   0.528  53.596  1.00  0.00     0.030 C 
HETATM    5  C8  UNL     1      22.622  -0.539  54.293  1.00  0.00     0.207 C 
HETATM    6  O2  UNL     1      23.856  -0.887  53.711  1.00  0.00    -0.330 OA
HETATM    7  C9  UNL     1      24.819  -0.105  53.080  1.00  0.00     0.180 A 
HETATM    8  N2  UNL     1      26.087  -0.452  53.302  1.00  0.00    -0.217 NA
HETATM    9  C10 UNL     1      27.090   0.235  52.745  1.00  0.00     0.238 A 
HETATM   10  N3  UNL     1      26.865   1.285  51.953  1.00  0.00    -0.224 NA
HETATM   11  C11 UNL     1      25.636   1.723  51.662  1.00  0.00     0.140 A 
HETATM   12  C19 UNL     1      24.638   0.985  52.255  1.00  0.00     0.071 A 
ENDROOT
BRANCH  11  13
HETATM   13  N4  UNL     1      25.488   2.882  50.863  1.00  0.00    -0.370 N 
HETATM   14  H11 UNL     1      24.926   3.723  50.676  1.00  0.00     0.161 HD
BRANCH  13  15
HETATM   15  C12 UNL     1      26.480   3.137  49.844  1.00  0.00     0.160 C 
BRANCH  15  16
HETATM   16  C13 UNL     1      26.411   4.493  49.249  1.00  0.00    -0.041 A 
HETATM   17  C14 UNL     1      25.452   5.445  49.071  1.00  0.00     0.009 A 
HETATM   18  C15 UNL     1      25.714   6.651  48.486  1.00  0.00     0.001 A 
HETATM   19  C16 UNL     1      26.971   6.992  48.032  1.00  0.00     0.000 A 
HETATM   20  C17 UNL     1      27.961   6.070  48.189  1.00  0.00     0.001 A 
HETATM   21  C18 UNL     1      27.695   4.834  48.788  1.00  0.00     0.009 A 
ENDBRANCH  15  16
ENDBRANCH  13  15
ENDBRANCH  11  13
BRANCH   3  22
HETATM   22  N1  UNL     1      21.068   2.304  52.210  1.00  0.00    -0.313 N 
HETATM   23  H3  UNL     1      21.122   3.338  52.088  1.00  0.00     0.176 HD
BRANCH  22  24
HETATM   24  C4  UNL     1      19.799   1.730  51.929  1.00  0.00     0.041 C 
HETATM   25  C5  UNL     1      18.722   1.233  51.674  1.00  0.00     0.077 C 
BRANCH  25  26
HETATM   26  O1  UNL     1      17.506   0.682  51.382  1.00  0.00    -0.307 OA
HETATM   27  C6  UNL     1      17.280   0.026  50.126  1.00  0.00     0.223 C 
ENDBRANCH  25  26
ENDBRANCH  22  24
ENDBRANCH   3  22
TORSDOF 6
ENDMDL
