MODEL 1
REMARK VINA RESULT:      -7.3      0.000      0.000
REMARK  6 active torsions:
REMARK  status: ('A' for Active; 'I' for Inactive)
REMARK    1  A    between atoms: C2_2  and  C3_3 
REMARK    2  A    between atoms: C9_10  and  C10_11 
REMARK    3  A    between atoms: C10_11  and  C11_12 
REMARK    4  A    between atoms: C10_11  and  O2_14 
REMARK    5  A    between atoms: C11_12  and  O1_13 
REMARK    6  A    between atoms: O2_14  and  C12_15 
ROOT
HETATM    1  C3  UNL     1      20.533   2.956  51.505  1.00  0.00     0.013 C 
HETATM    2  C4  UNL     1      21.143   2.503  52.596  1.00  0.00     0.006 C 
HETATM    3  C5  UNL     1      21.557   1.318  52.580  1.00  0.00     0.059 A 
HETATM    4  C6  UNL     1      21.388   0.328  51.592  1.00  0.00     0.012 A 
HETATM    5  C7  UNL     1      22.226  -0.313  52.347  1.00  0.00     0.058 A 
HETATM    6  S1  UNL     1      22.955   0.260  53.855  1.00  0.00    -0.163 SA
HETATM    7  C8  UNL     1      24.472  -0.715  54.174  1.00  0.00     0.085 C 
HETATM    8  C9  UNL     1      25.465  -0.530  53.056  1.00  0.00     0.056 C 
HETATM    9  C14 UNL     1      25.410   0.676  52.245  1.00  0.00     0.016 C 
HETATM   10  C15 UNL     1      26.291   1.597  51.742  1.00  0.00    -0.003 C 
HETATM   11  C16 UNL     1      25.593   2.653  50.903  1.00  0.00     0.034 C 
HETATM   12  C17 UNL     1      24.438   3.018  50.559  1.00  0.00     0.226 A 
HETATM   13  C18 UNL     1      24.449   4.089  49.685  1.00  0.00     0.032 C 
HETATM   14  N1  UNL     1      24.459   5.032  48.894  1.00  0.00    -0.098 N 
HETATM   15  C19 UNL     1      22.997   3.060  50.735  1.00  0.00     0.174 A 
HETATM   16  O3  UNL     1      23.686   2.536  51.603  1.00  0.00    -0.297 OA
HETATM   17  N2  UNL     1      21.632   3.195  50.701  1.00  0.00    -0.340 N 
HETATM   18  H20 UNL     1      22.056   3.450  49.818  1.00  0.00     0.167 HD
ENDROOT
BRANCH   1  19
HETATM   19  C2  UNL     1      19.447   3.195  50.576  1.00  0.00    -0.001 C 
HETATM   20  C1  UNL     1      18.899   4.321  49.944  1.00  0.00     0.033 C 
ENDBRANCH   1  19
BRANCH   8  21
HETATM   21  C10 UNL     1      26.816  -1.008  53.495  1.00  0.00     0.072 C 
BRANCH  21  22
HETATM   22  C11 UNL     1      27.352  -2.001  52.912  1.00  0.00     0.163 C 
BRANCH  22  23
HETATM   23  O1  UNL     1      28.027  -3.182  52.627  1.00  0.00    -0.370 OA
HETATM   24  H11 UNL     1      29.026  -3.103  52.256  1.00  0.00     0.216 HD
ENDBRANCH  22  23
ENDBRANCH  21  22
BRANCH  21  25
HETATM   25  O2  UNL     1      27.283  -0.240  54.534  1.00  0.00    -0.354 OA
BRANCH  25  26
HETATM   26  C12 UNL     1      28.698  -0.045  54.673  1.00  0.00     0.171 C 
HETATM   27  C13 UNL     1      29.073   1.279  54.172  1.00  0.00     0.034 C 
ENDBRANCH  25  26
ENDBRANCH  21  25
ENDBRANCH   8  21
TORSDOF 6
ENDMDL
MODEL 2
REMARK VINA RESULT:      -7.3      2.125      4.001
REMARK  6 active torsions:
REMARK  status: ('A' for Active; 'I' for Inactive)
REMARK    1  A    between atoms: C2_2  and  C3_3 
REMARK    2  A    between atoms: C9_10  and  C10_11 
REMARK    3  A    between atoms: C10_11  and  C11_12 
REMARK    4  A    between atoms: C10_11  and  O2_14 
REMARK    5  A    between atoms: C11_12  and  O1_13 
REMARK    6  A    between atoms: O2_14  and  C12_15 
ROOT
HETATM    1  C3  UNL     1      20.894   2.267  51.016  1.00  0.00     0.013 C 
HETATM    2  C4  UNL     1      22.125   2.138  50.531  1.00  0.00     0.006 C 
HETATM    3  C5  UNL     1      23.046   2.767  51.107  1.00  0.00     0.059 A 
HETATM    4  C6  UNL     1      22.965   3.693  52.165  1.00  0.00     0.012 A 
HETATM    5  C7  UNL     1      24.257   3.583  52.122  1.00  0.00     0.058 A 
HETATM    6  S1  UNL     1      25.202   2.571  51.019  1.00  0.00    -0.163 SA
HETATM    7  C8  UNL     1      26.858   2.300  51.754  1.00  0.00     0.085 C 
HETATM    8  C9  UNL     1      26.741   1.591  53.078  1.00  0.00     0.056 C 
HETATM    9  C14 UNL     1      25.571   0.770  53.346  1.00  0.00     0.016 C 
HETATM   10  C15 UNL     1      25.302  -0.465  53.875  1.00  0.00    -0.003 C 
HETATM   11  C16 UNL     1      23.811  -0.753  53.921  1.00  0.00     0.034 C 
HETATM   12  C17 UNL     1      22.711  -0.254  53.565  1.00  0.00     0.226 A 
HETATM   13  C18 UNL     1      21.623  -1.012  53.958  1.00  0.00     0.032 C 
HETATM   14  N1  UNL     1      20.655  -1.677  54.322  1.00  0.00    -0.098 N 
HETATM   15  C19 UNL     1      21.909   0.639  52.748  1.00  0.00     0.174 A 
HETATM   16  O3  UNL     1      23.105   0.528  52.506  1.00  0.00    -0.297 OA
HETATM   17  N2  UNL     1      20.983   1.426  52.111  1.00  0.00    -0.340 N 
HETATM   18  H20 UNL     1      20.608   1.019  52.958  1.00  0.00     0.167 HD
ENDROOT
BRANCH   1  19
HETATM   19  C2  UNL     1      19.586   2.856  51.219  1.00  0.00    -0.001 C 
HETATM   20  C1  UNL     1      18.396   2.932  50.479  1.00  0.00     0.033 C 
ENDBRANCH   1  19
BRANCH   8  21
HETATM   21  C10 UNL     1      28.076   1.045  53.480  1.00  0.00     0.072 C 
BRANCH  21  22
HETATM   22  C11 UNL     1      28.826   1.719  54.253  1.00  0.00     0.163 C 
BRANCH  22  23
HETATM   23  O1  UNL     1      29.862   2.471  54.793  1.00  0.00    -0.370 OA
HETATM   24  H11 UNL     1      29.601   3.340  55.357  1.00  0.00     0.216 HD
ENDBRANCH  22  23
ENDBRANCH  21  22
BRANCH  21  25
HETATM   25  O2  UNL     1      28.288  -0.183  52.899  1.00  0.00    -0.354 OA
BRANCH  25  26
HETATM   26  C12 UNL     1      29.285  -1.052  53.456  1.00  0.00     0.171 C 
HETATM   27  C13 UNL     1      28.961  -2.447  53.148  1.00  0.00     0.034 C 
ENDBRANCH  25  26
ENDBRANCH  21  25
ENDBRANCH   8  21
TORSDOF 6
ENDMDL
MODEL 3
REMARK VINA RESULT:      -7.1      2.815      5.781
REMARK  6 active torsions:
REMARK  status: ('A' for Active; 'I' for Inactive)
REMARK    1  A    between atoms: C2_2  and  C3_3 
REMARK    2  A    between atoms: C9_10  and  C10_11 
REMARK    3  A    between atoms: C10_11  and  C11_12 
REMARK    4  A    between atoms: C10_11  and  O2_14 
REMARK    5  A    between atoms: C11_12  and  O1_13 
REMARK    6  A    between atoms: O2_14  and  C12_15 
ROOT
HETATM    1  C3  UNL     1      25.477   4.719  50.050  1.00  0.00     0.013 C 
HETATM    2  C4  UNL     1      24.324   4.671  50.709  1.00  0.00     0.006 C 
HETATM    3  C5  UNL     1      23.506   3.775  50.385  1.00  0.00     0.059 A 
HETATM    4  C6  UNL     1      23.581   2.839  49.335  1.00  0.00     0.012 A 
HETATM    5  C7  UNL     1      22.530   2.361  49.927  1.00  0.00     0.058 A 
HETATM    6  S1  UNL     1      21.751   2.992  51.386  1.00  0.00    -0.163 SA
HETATM    7  C8  UNL     1      20.745   1.655  52.132  1.00  0.00     0.085 C 
HETATM    8  C9  UNL     1      21.616   0.488  52.516  1.00  0.00     0.056 C 
HETATM    9  C14 UNL     1      23.028   0.710  52.783  1.00  0.00     0.016 C 
HETATM   10  C15 UNL     1      23.951   0.331  53.722  1.00  0.00    -0.003 C 
HETATM   11  C16 UNL     1      25.333   0.886  53.419  1.00  0.00     0.034 C 
HETATM   12  C17 UNL     1      25.919   1.653  52.611  1.00  0.00     0.226 A 
HETATM   13  C18 UNL     1      27.282   1.727  52.830  1.00  0.00     0.032 C 
HETATM   14  N1  UNL     1      28.498   1.780  53.014  1.00  0.00    -0.098 N 
HETATM   15  C19 UNL     1      25.927   2.724  51.630  1.00  0.00     0.174 A 
HETATM   16  O3  UNL     1      24.883   2.467  52.219  1.00  0.00    -0.297 OA
HETATM   17  N2  UNL     1      26.147   3.679  50.670  1.00  0.00    -0.340 N 
HETATM   18  H20 UNL     1      26.935   3.052  50.762  1.00  0.00     0.167 HD
ENDROOT
BRANCH   1  19
HETATM   19  C2  UNL     1      26.404   5.058  48.990  1.00  0.00    -0.001 C 
HETATM   20  C1  UNL     1      27.752   4.784  48.711  1.00  0.00     0.033 C 
ENDBRANCH   1  19
BRANCH   8  21
HETATM   21  C10 UNL     1      20.869  -0.415  53.449  1.00  0.00     0.072 C 
BRANCH  21  22
HETATM   22  C11 UNL     1      21.493  -1.326  54.079  1.00  0.00     0.163 C 
BRANCH  22  23
HETATM   23  O1  UNL     1      22.086  -2.107  55.062  1.00  0.00    -0.370 OA
HETATM   24  H11 UNL     1      21.696  -3.090  55.215  1.00  0.00     0.216 HD
ENDBRANCH  22  23
ENDBRANCH  21  22
BRANCH  21  25
HETATM   25  O2  UNL     1      19.534  -0.089  53.468  1.00  0.00    -0.354 OA
BRANCH  25  26
HETATM   26  C12 UNL     1      18.563  -1.119  53.237  1.00  0.00     0.171 C 
HETATM   27  C13 UNL     1      17.639  -0.708  52.178  1.00  0.00     0.034 C 
ENDBRANCH  25  26
ENDBRANCH  21  25
ENDBRANCH   8  21
TORSDOF 6
ENDMDL
MODEL 4
REMARK VINA RESULT:      -7.0      1.729      2.166
REMARK  6 active torsions:
REMARK  status: ('A' for Active; 'I' for Inactive)
REMARK    1  A    between atoms: C2_2  and  C3_3 
REMARK    2  A    between atoms: C9_10  and  C10_11 
REMARK    3  A    between atoms: C10_11  and  C11_12 
REMARK    4  A    between atoms: C10_11  and  O2_14 
REMARK    5  A    between atoms: C11_12  and  O1_13 
REMARK    6  A    between atoms: O2_14  and  C12_15 
ROOT
HETATM    1  C3  UNL     1      19.310   3.566  51.164  1.00  0.00     0.013 C 
HETATM    2  C4  UNL     1      19.575   2.726  52.160  1.00  0.00     0.006 C 
HETATM    3  C5  UNL     1      20.164   1.655  51.875  1.00  0.00     0.059 A 
HETATM    4  C6  UNL     1      20.517   1.141  50.612  1.00  0.00     0.012 A 
HETATM    5  C7  UNL     1      21.139   0.266  51.341  1.00  0.00     0.058 A 
HETATM    6  S1  UNL     1      21.195   0.202  53.110  1.00  0.00    -0.163 SA
HETATM    7  C8  UNL     1      22.652  -0.790  53.609  1.00  0.00     0.085 C 
HETATM    8  C9  UNL     1      23.922  -0.154  53.109  1.00  0.00     0.056 C 
HETATM    9  C14 UNL     1      23.946   1.275  52.837  1.00  0.00     0.016 C 
HETATM   10  C15 UNL     1      24.776   2.337  53.083  1.00  0.00    -0.003 C 
HETATM   11  C16 UNL     1      24.241   3.627  52.486  1.00  0.00     0.034 C 
HETATM   12  C17 UNL     1      23.232   4.077  51.883  1.00  0.00     0.226 A 
HETATM   13  C18 UNL     1      23.360   5.409  51.534  1.00  0.00     0.032 C 
HETATM   14  N1  UNL     1      23.482   6.589  51.209  1.00  0.00    -0.098 N 
HETATM   15  C19 UNL     1      21.833   4.017  51.495  1.00  0.00     0.174 A 
HETATM   16  O3  UNL     1      22.259   3.203  52.305  1.00  0.00    -0.297 OA
HETATM   17  N2  UNL     1      20.562   4.128  50.990  1.00  0.00    -0.340 N 
HETATM   18  H20 UNL     1      21.214   4.723  50.496  1.00  0.00     0.167 HD
ENDROOT
BRANCH   1  19
HETATM   19  C2  UNL     1      18.588   4.136  50.045  1.00  0.00    -0.001 C 
HETATM   20  C1  UNL     1      18.834   5.148  49.105  1.00  0.00     0.033 C 
ENDBRANCH   1  19
BRANCH   8  21
HETATM   21  C10 UNL     1      25.099  -0.741  53.827  1.00  0.00     0.072 C 
BRANCH  21  22
HETATM   22  C11 UNL     1      25.060  -0.884  55.089  1.00  0.00     0.163 C 
BRANCH  22  23
HETATM   23  O1  UNL     1      25.127  -1.388  56.382  1.00  0.00    -0.370 OA
HETATM   24  H11 UNL     1      24.686  -2.343  56.563  1.00  0.00     0.216 HD
ENDBRANCH  22  23
ENDBRANCH  21  22
BRANCH  21  25
HETATM   25  O2  UNL     1      26.101  -1.048  52.937  1.00  0.00    -0.354 OA
BRANCH  25  26
HETATM   26  C12 UNL     1      27.466  -0.889  53.347  1.00  0.00     0.171 C 
HETATM   27  C13 UNL     1      27.913   0.480  53.081  1.00  0.00     0.034 C 
ENDBRANCH  25  26
ENDBRANCH  21  25
ENDBRANCH   8  21
TORSDOF 6
ENDMDL
MODEL 5
REMARK VINA RESULT:      -6.9      3.255      5.900
REMARK  6 active torsions:
REMARK  status: ('A' for Active; 'I' for Inactive)
REMARK    1  A    between atoms: C2_2  and  C3_3 
REMARK    2  A    between atoms: C9_10  and  C10_11 
REMARK    3  A    between atoms: C10_11  and  C11_12 
REMARK    4  A    between atoms: C10_11  and  O2_14 
REMARK    5  A    between atoms: C11_12  and  O1_13 
REMARK    6  A    between atoms: O2_14  and  C12_15 
ROOT
HETATM    1  C3  UNL     1      20.110  -0.269  52.448  1.00  0.00     0.013 C 
HETATM    2  C4  UNL     1      20.392   0.427  51.352  1.00  0.00     0.006 C 
HETATM    3  C5  UNL     1      20.368   1.680  51.437  1.00  0.00     0.059 A 
HETATM    4  C6  UNL     1      19.982   2.491  52.522  1.00  0.00     0.012 A 
HETATM    5  C7  UNL     1      20.450   3.428  51.755  1.00  0.00     0.058 A 
HETATM    6  S1  UNL     1      21.151   3.230  50.141  1.00  0.00    -0.163 SA
HETATM    7  C8  UNL     1      22.187   4.696  49.775  1.00  0.00     0.085 C 
HETATM    8  C9  UNL     1      23.306   4.818  50.776  1.00  0.00     0.056 C 
HETATM    9  C14 UNL     1      23.769   3.630  51.476  1.00  0.00     0.016 C 
HETATM   10  C15 UNL     1      24.967   3.057  51.811  1.00  0.00    -0.003 C 
HETATM   11  C16 UNL     1      24.783   1.778  52.612  1.00  0.00     0.034 C 
HETATM   12  C17 UNL     1      23.876   1.010  53.025  1.00  0.00     0.226 A 
HETATM   13  C18 UNL     1      24.360  -0.032  53.794  1.00  0.00     0.032 C 
HETATM   14  N1  UNL     1      24.790  -0.950  54.492  1.00  0.00    -0.098 N 
HETATM   15  C19 UNL     1      22.529   0.468  52.977  1.00  0.00     0.174 A 
HETATM   16  O3  UNL     1      22.886   1.248  52.102  1.00  0.00    -0.297 OA
HETATM   17  N2  UNL     1      21.310  -0.144  53.124  1.00  0.00    -0.340 N 
HETATM   18  H20 UNL     1      21.896  -0.278  53.937  1.00  0.00     0.167 HD
ENDROOT
BRANCH   1  19
HETATM   19  C2  UNL     1      19.291  -0.927  53.447  1.00  0.00    -0.001 C 
HETATM   20  C1  UNL     1      18.114  -1.690  53.433  1.00  0.00     0.033 C 
ENDBRANCH   1  19
BRANCH   8  21
HETATM   21  C10 UNL     1      24.345   5.766  50.261  1.00  0.00     0.072 C 
BRANCH  21  22
HETATM   22  C11 UNL     1      24.496   6.898  50.818  1.00  0.00     0.163 C 
BRANCH  22  23
HETATM   23  O1  UNL     1      24.295   8.092  51.500  1.00  0.00    -0.370 OA
HETATM   24  H11 UNL     1      23.573   8.096  52.288  1.00  0.00     0.216 HD
ENDBRANCH  22  23
ENDBRANCH  21  22
BRANCH  21  25
HETATM   25  O2  UNL     1      25.009   5.217  49.190  1.00  0.00    -0.354 OA
BRANCH  25  26
HETATM   26  C12 UNL     1      26.389   5.550  48.984  1.00  0.00     0.171 C 
HETATM   27  C13 UNL     1      27.203   4.333  48.977  1.00  0.00     0.034 C 
ENDBRANCH  25  26
ENDBRANCH  21  25
ENDBRANCH   8  21
TORSDOF 6
ENDMDL
MODEL 6
REMARK VINA RESULT:      -6.9      2.402      6.703
REMARK  6 active torsions:
REMARK  status: ('A' for Active; 'I' for Inactive)
REMARK    1  A    between atoms: C2_2  and  C3_3 
REMARK    2  A    between atoms: C9_10  and  C10_11 
REMARK    3  A    between atoms: C10_11  and  C11_12 
REMARK    4  A    between atoms: C10_11  and  O2_14 
REMARK    5  A    between atoms: C11_12  and  O1_13 
REMARK    6  A    between atoms: O2_14  and  C12_15 
ROOT
HETATM    1  C3  UNL     1      27.560  -0.191  52.731  1.00  0.00     0.013 C 
HETATM    2  C4  UNL     1      26.435  -0.859  52.497  1.00  0.00     0.006 C 
HETATM    3  C5  UNL     1      25.461  -0.639  53.258  1.00  0.00     0.059 A 
HETATM    4  C6  UNL     1      25.398   0.159  54.418  1.00  0.00     0.012 A 
HETATM    5  C7  UNL     1      24.132  -0.104  54.312  1.00  0.00     0.058 A 
HETATM    6  S1  UNL     1      23.350  -1.091  53.068  1.00  0.00    -0.163 SA
HETATM    7  C8  UNL     1      21.574  -0.646  53.005  1.00  0.00     0.085 C 
HETATM    8  C9  UNL     1      21.405   0.807  52.645  1.00  0.00     0.056 C 
HETATM    9  C14 UNL     1      22.457   1.485  51.904  1.00  0.00     0.016 C 
HETATM   10  C15 UNL     1      22.552   2.338  50.836  1.00  0.00    -0.003 C 
HETATM   11  C16 UNL     1      23.990   2.739  50.554  1.00  0.00     0.034 C 
HETATM   12  C17 UNL     1      25.164   2.492  50.937  1.00  0.00     0.226 A 
HETATM   13  C18 UNL     1      26.116   3.258  50.290  1.00  0.00     0.032 C 
HETATM   14  N1  UNL     1      26.961   3.952  49.726  1.00  0.00    -0.098 N 
HETATM   15  C19 UNL     1      26.153   1.654  51.592  1.00  0.00     0.174 A 
HETATM   16  O3  UNL     1      25.018   1.220  51.437  1.00  0.00    -0.297 OA
HETATM   17  N2  UNL     1      27.224   1.037  52.188  1.00  0.00    -0.340 N 
HETATM   18  H20 UNL     1      27.412   2.013  52.000  1.00  0.00     0.167 HD
ENDROOT
BRANCH   1  19
HETATM   19  C2  UNL     1      28.841   0.112  53.338  1.00  0.00    -0.001 C 
HETATM   20  C1  UNL     1      29.975  -0.627  53.705  1.00  0.00     0.033 C 
ENDBRANCH   1  19
BRANCH   8  21
HETATM   21  C10 UNL     1      19.989   1.064  52.228  1.00  0.00     0.072 C 
BRANCH  21  22
HETATM   22  C11 UNL     1      19.525   2.246  52.270  1.00  0.00     0.163 C 
BRANCH  22  23
HETATM   23  O1  UNL     1      19.369   3.625  52.220  1.00  0.00    -0.370 OA
HETATM   24  H11 UNL     1      20.210   4.207  51.913  1.00  0.00     0.216 HD
ENDBRANCH  22  23
ENDBRANCH  21  22
BRANCH  21  25
HETATM   25  O2  UNL     1      19.381  -0.108  51.845  1.00  0.00    -0.354 OA
BRANCH  25  26
HETATM   26  C12 UNL     1      17.985  -0.290  52.124  1.00  0.00     0.171 C 
HETATM   27  C13 UNL     1      17.807  -1.347  53.122  1.00  0.00     0.034 C 
ENDBRANCH  25  26
ENDBRANCH  21  25
ENDBRANCH   8  21
TORSDOF 6
ENDMDL
MODEL 7
REMARK VINA RESULT:      -6.8      4.174      7.517
REMARK  6 active torsions:
REMARK  status: ('A' for Active; 'I' for Inactive)
REMARK    1  A    between atoms: C2_2  and  C3_3 
REMARK    2  A    between atoms: C9_10  and  C10_11 
REMARK    3  A    between atoms: C10_11  and  C11_12 
REMARK    4  A    between atoms: C10_11  and  O2_14 
REMARK    5  A    between atoms: C11_12  and  O1_13 
REMARK    6  A    between atoms: O2_14  and  C12_15 
ROOT
HETATM    1  C3  UNL     1      23.980   2.493  51.711  1.00  0.00     0.013 C 
HETATM    2  C4  UNL     1      22.696   2.768  51.919  1.00  0.00     0.006 C 
HETATM    3  C5  UNL     1      21.850   2.128  51.248  1.00  0.00     0.059 A 
HETATM    4  C6  UNL     1      22.054   1.202  50.206  1.00  0.00     0.012 A 
HETATM    5  C7  UNL     1      20.775   1.034  50.347  1.00  0.00     0.058 A 
HETATM    6  S1  UNL     1      19.713   1.863  51.496  1.00  0.00    -0.163 SA
HETATM    7  C8  UNL     1      18.197   0.858  51.715  1.00  0.00     0.085 C 
HETATM    8  C9  UNL     1      18.539  -0.502  52.268  1.00  0.00     0.056 C 
HETATM    9  C14 UNL     1      19.765  -0.674  53.029  1.00  0.00     0.016 C 
HETATM   10  C15 UNL     1      20.156  -1.287  54.191  1.00  0.00    -0.003 C 
HETATM   11  C16 UNL     1      21.647  -1.134  54.442  1.00  0.00     0.034 C 
HETATM   12  C17 UNL     1      22.662  -0.562  53.965  1.00  0.00     0.226 A 
HETATM   13  C18 UNL     1      23.824  -0.863  54.651  1.00  0.00     0.032 C 
HETATM   14  N1  UNL     1      24.860  -1.145  55.252  1.00  0.00    -0.098 N 
HETATM   15  C19 UNL     1      23.298   0.461  53.154  1.00  0.00     0.174 A 
HETATM   16  O3  UNL     1      22.085   0.503  53.315  1.00  0.00    -0.297 OA
HETATM   17  N2  UNL     1      24.088   1.313  52.424  1.00  0.00    -0.340 N 
HETATM   18  H20 UNL     1      24.601   0.495  52.726  1.00  0.00     0.167 HD
ENDROOT
BRANCH   1  19
HETATM   19  C2  UNL     1      25.281   2.559  51.077  1.00  0.00    -0.001 C 
HETATM   20  C1  UNL     1      26.599   2.270  51.462  1.00  0.00     0.033 C 
ENDBRANCH   1  19
BRANCH   8  21
HETATM   21  C10 UNL     1      17.300  -1.160  52.792  1.00  0.00     0.072 C 
BRANCH  21  22
HETATM   22  C11 UNL     1      16.240  -0.476  52.946  1.00  0.00     0.163 C 
BRANCH  22  23
HETATM   23  O1  UNL     1      15.029   0.032  53.398  1.00  0.00    -0.370 OA
HETATM   24  H11 UNL     1      14.513   0.720  52.763  1.00  0.00     0.216 HD
ENDBRANCH  22  23
ENDBRANCH  21  22
BRANCH  21  25
HETATM   25  O2  UNL     1      17.532  -2.492  53.042  1.00  0.00    -0.354 OA
BRANCH  25  26
HETATM   26  C12 UNL     1      16.416  -3.390  53.115  1.00  0.00     0.171 C 
HETATM   27  C13 UNL     1      16.862  -4.707  53.575  1.00  0.00     0.034 C 
ENDBRANCH  25  26
ENDBRANCH  21  25
ENDBRANCH   8  21
TORSDOF 6
ENDMDL
MODEL 8
REMARK VINA RESULT:      -6.8      2.877      6.951
REMARK  6 active torsions:
REMARK  status: ('A' for Active; 'I' for Inactive)
REMARK    1  A    between atoms: C2_2  and  C3_3 
REMARK    2  A    between atoms: C9_10  and  C10_11 
REMARK    3  A    between atoms: C10_11  and  C11_12 
REMARK    4  A    between atoms: C10_11  and  O2_14 
REMARK    5  A    between atoms: C11_12  and  O1_13 
REMARK    6  A    between atoms: O2_14  and  C12_15 
ROOT
HETATM    1  C3  UNL     1      27.129   1.719  52.283  1.00  0.00     0.013 C 
HETATM    2  C4  UNL     1      25.993   1.150  51.891  1.00  0.00     0.006 C 
HETATM    3  C5  UNL     1      24.921   1.624  52.341  1.00  0.00     0.059 A 
HETATM    4  C6  UNL     1      24.728   2.635  53.302  1.00  0.00     0.012 A 
HETATM    5  C7  UNL     1      23.492   2.502  52.931  1.00  0.00     0.058 A 
HETATM    6  S1  UNL     1      22.861   1.385  51.710  1.00  0.00    -0.163 SA
HETATM    7  C8  UNL     1      21.236   2.008  51.138  1.00  0.00     0.085 C 
HETATM    8  C9  UNL     1      21.382   3.372  50.515  1.00  0.00     0.056 C 
HETATM    9  C14 UNL     1      22.665   3.769  49.958  1.00  0.00     0.016 C 
HETATM   10  C15 UNL     1      23.128   4.380  48.822  1.00  0.00    -0.003 C 
HETATM   11  C16 UNL     1      24.637   4.551  48.843  1.00  0.00     0.034 C 
HETATM   12  C17 UNL     1      25.643   4.253  49.540  1.00  0.00     0.226 A 
HETATM   13  C18 UNL     1      26.823   4.765  49.033  1.00  0.00     0.032 C 
HETATM   14  N1  UNL     1      27.870   5.234  48.590  1.00  0.00    -0.098 N 
HETATM   15  C19 UNL     1      26.317   3.452  50.547  1.00  0.00     0.174 A 
HETATM   16  O3  UNL     1      25.191   3.128  50.189  1.00  0.00    -0.297 OA
HETATM   17  N2  UNL     1      27.118   2.847  51.482  1.00  0.00    -0.340 N 
HETATM   18  H20 UNL     1      27.494   3.739  51.189  1.00  0.00     0.167 HD
ENDROOT
BRANCH   1  19
HETATM   19  C2  UNL     1      28.273   1.987  53.131  1.00  0.00    -0.001 C 
HETATM   20  C1  UNL     1      28.959   1.292  54.138  1.00  0.00     0.033 C 
ENDBRANCH   1  19
BRANCH   8  21
HETATM   21  C10 UNL     1      20.152   3.701  49.725  1.00  0.00     0.072 C 
BRANCH  21  22
HETATM   22  C11 UNL     1      19.768   2.917  48.802  1.00  0.00     0.163 C 
BRANCH  22  23
HETATM   23  O1  UNL     1      19.391   2.369  47.582  1.00  0.00    -0.370 OA
HETATM   24  H11 UNL     1      18.442   1.881  47.532  1.00  0.00     0.216 HD
ENDBRANCH  22  23
ENDBRANCH  21  22
BRANCH  21  25
HETATM   25  O2  UNL     1      19.604   4.885  50.159  1.00  0.00    -0.354 OA
BRANCH  25  26
HETATM   26  C12 UNL     1      19.693   6.042  49.315  1.00  0.00     0.171 C 
HETATM   27  C13 UNL     1      20.611   7.021  49.902  1.00  0.00     0.034 C 
ENDBRANCH  25  26
ENDBRANCH  21  25
ENDBRANCH   8  21
TORSDOF 6
ENDMDL
MODEL 9
REMARK VINA RESULT:      -6.8      2.943      7.244
REMARK  6 active torsions:
REMARK  status: ('A' for Active; 'I' for Inactive)
REMARK    1  A    between atoms: C2_2  and  C3_3 
REMARK    2  A    between atoms: C9_10  and  C10_11 
REMARK    3  A    between atoms: C10_11  and  C11_12 
REMARK    4  A    between atoms: C10_11  and  O2_14 
REMARK    5  A    between atoms: C11_12  and  O1_13 
REMARK    6  A    between atoms: O2_14  and  C12_15 
ROOT
HETATM    1  C3  UNL     1      27.282   0.886  54.150  1.00  0.00     0.013 C 
HETATM    2  C4  UNL     1      26.828   2.025  53.637  1.00  0.00     0.006 C 
HETATM    3  C5  UNL     1      26.657   2.076  52.395  1.00  0.00     0.059 A 
HETATM    4  C6  UNL     1      26.971   1.116  51.412  1.00  0.00     0.012 A 
HETATM    5  C7  UNL     1      26.316   1.940  50.654  1.00  0.00     0.058 A 
HETATM    6  S1  UNL     1      25.562   3.466  51.143  1.00  0.00    -0.163 SA
HETATM    7  C8  UNL     1      24.286   3.906  49.905  1.00  0.00     0.085 C 
HETATM    8  C9  UNL     1      23.223   2.841  49.838  1.00  0.00     0.056 C 
HETATM    9  C14 UNL     1      22.997   1.986  50.993  1.00  0.00     0.016 C 
HETATM   10  C15 UNL     1      21.927   1.501  51.698  1.00  0.00    -0.003 C 
HETATM   11  C16 UNL     1      22.359   0.586  52.831  1.00  0.00     0.034 C 
HETATM   12  C17 UNL     1      23.400   0.163  53.399  1.00  0.00     0.226 A 
HETATM   13  C18 UNL     1      23.134  -0.747  54.406  1.00  0.00     0.032 C 
HETATM   14  N1  UNL     1      22.898  -1.569  55.290  1.00  0.00    -0.098 N 
HETATM   15  C19 UNL     1      24.811   0.255  53.731  1.00  0.00     0.174 A 
HETATM   16  O3  UNL     1      24.284   1.179  53.123  1.00  0.00    -0.297 OA
HETATM   17  N2  UNL     1      26.118   0.138  54.131  1.00  0.00    -0.340 N 
HETATM   18  H20 UNL     1      25.610  -0.728  54.256  1.00  0.00     0.167 HD
ENDROOT
BRANCH   1  19
HETATM   19  C2  UNL     1      28.251  -0.112  54.554  1.00  0.00    -0.001 C 
HETATM   20  C1  UNL     1      29.401  -0.681  53.986  1.00  0.00     0.033 C 
ENDBRANCH   1  19
BRANCH   8  21
HETATM   21  C10 UNL     1      22.017   3.373  49.125  1.00  0.00     0.072 C 
BRANCH  21  22
HETATM   22  C11 UNL     1      21.242   2.573  48.515  1.00  0.00     0.163 C 
BRANCH  22  23
HETATM   23  O1  UNL     1      20.133   1.880  48.046  1.00  0.00    -0.370 OA
HETATM   24  H11 UNL     1      19.532   2.355  47.301  1.00  0.00     0.216 HD
ENDBRANCH  22  23
ENDBRANCH  21  22
BRANCH  21  25
HETATM   25  O2  UNL     1      21.947   4.740  49.255  1.00  0.00    -0.354 OA
BRANCH  25  26
HETATM   26  C12 UNL     1      20.941   5.306  50.108  1.00  0.00     0.171 C 
HETATM   27  C13 UNL     1      21.570   6.117  51.153  1.00  0.00     0.034 C 
ENDBRANCH  25  26
ENDBRANCH  21  25
ENDBRANCH   8  21
TORSDOF 6
ENDMDL
