MODEL 1
REMARK VINA RESULT:      -8.7      0.000      0.000
REMARK  3 active torsions:
REMARK  status: ('A' for Active; 'I' for Inactive)
REMARK    1  A    between atoms: C7_8  and  N1_9 
REMARK    2  A    between atoms: N1_9  and  C8_10 
REMARK    3  A    between atoms: C11_14  and  C12_15 
ROOT
HETATM    1  N1  UNL     1      22.877   1.250  51.505  1.00  0.00    -0.173 N 
HETATM    2  H8  UNL     1      22.955   1.795  50.598  1.00  0.00     0.186 HD
ENDROOT
BRANCH   1   3
HETATM    3  C7  UNL     1      21.582   0.667  51.603  1.00  0.00     0.122 C 
HETATM    4  C6  UNL     1      21.538   0.007  52.746  1.00  0.00     0.099 C 
HETATM    5  C5  UNL     1      20.519  -0.786  53.415  1.00  0.00     0.156 C 
HETATM    6  C4  UNL     1      19.050  -0.706  53.434  1.00  0.00     0.110 C 
HETATM    7  O1  UNL     1      21.031  -1.729  54.113  1.00  0.00    -0.293 OA
HETATM    8  C3  UNL     1      18.393  -0.476  52.148  1.00  0.00    -0.015 C 
HETATM    9  C2  UNL     1      18.408   0.136  50.966  1.00  0.00    -0.069 C 
HETATM   10  C1  UNL     1      17.215  -0.192  50.096  1.00  0.00     0.044 C 
HETATM   11  C18 UNL     1      19.313   1.073  50.302  1.00  0.00     0.157 C 
HETATM   12  N5  UNL     1      20.706   0.922  50.517  1.00  0.00    -0.367 N 
HETATM   13  C17 UNL     1      21.503   1.069  49.287  1.00  0.00     0.151 C 
ENDBRANCH   1   3
BRANCH   1  14
HETATM   14  C8  UNL     1      24.088   1.314  52.254  1.00  0.00     0.728 A 
HETATM   15  N2  UNL     1      24.234   2.469  52.930  1.00  0.00    -0.075 NA
HETATM   16  C9  UNL     1      25.317   2.700  53.664  1.00  0.00     0.139 A 
HETATM   17  C10 UNL     1      26.272   1.685  53.690  1.00  0.00     0.053 A 
HETATM   18  C11 UNL     1      26.144   0.475  52.997  1.00  0.00     0.089 A 
HETATM   19  N4  UNL     1      25.007   0.327  52.273  1.00  0.00    -0.062 NA
BRANCH  18  20
HETATM   20  C12 UNL     1      27.160  -0.568  53.044  1.00  0.00     0.011 A 
HETATM   21  C13 UNL     1      28.414  -0.187  53.451  1.00  0.00     0.017 A 
HETATM   22  C14 UNL     1      29.422  -1.120  53.525  1.00  0.00     0.020 A 
HETATM   23  C15 UNL     1      29.121  -2.433  53.175  1.00  0.00     0.116 A 
HETATM   24  N3  UNL     1      27.881  -2.794  52.774  1.00  0.00    -0.272 NA
HETATM   25  C16 UNL     1      26.894  -1.854  52.708  1.00  0.00     0.130 A 
ENDBRANCH  18  20
ENDBRANCH   1  14
TORSDOF 3
ENDMDL
MODEL 2
REMARK VINA RESULT:      -8.4      1.877      2.599
REMARK  3 active torsions:
REMARK  status: ('A' for Active; 'I' for Inactive)
REMARK    1  A    between atoms: C7_8  and  N1_9 
REMARK    2  A    between atoms: N1_9  and  C8_10 
REMARK    3  A    between atoms: C11_14  and  C12_15 
ROOT
HETATM    1  N1  UNL     1      22.654   1.407  53.455  1.00  0.00    -0.173 N 
HETATM    2  H8  UNL     1      22.699   1.915  54.385  1.00  0.00     0.186 HD
ENDROOT
BRANCH   1   3
HETATM    3  C7  UNL     1      21.319   0.981  53.205  1.00  0.00     0.122 C 
HETATM    4  C6  UNL     1      20.732   1.933  52.502  1.00  0.00     0.099 C 
HETATM    5  C5  UNL     1      19.399   2.100  51.946  1.00  0.00     0.156 C 
HETATM    6  C4  UNL     1      18.411   1.142  51.427  1.00  0.00     0.110 C 
HETATM    7  O1  UNL     1      19.045   3.330  51.919  1.00  0.00    -0.293 OA
HETATM    8  C3  UNL     1      18.211  -0.077  52.209  1.00  0.00    -0.015 C 
HETATM    9  C2  UNL     1      18.747  -1.040  52.955  1.00  0.00    -0.069 C 
HETATM   10  C1  UNL     1      17.743  -2.057  53.451  1.00  0.00     0.044 C 
HETATM   11  C18 UNL     1      20.100  -1.359  53.409  1.00  0.00     0.157 C 
HETATM   12  N5  UNL     1      20.965  -0.286  53.737  1.00  0.00    -0.367 N 
HETATM   13  C17 UNL     1      21.735  -0.515  54.972  1.00  0.00     0.151 C 
ENDBRANCH   1   3
BRANCH   1  14
HETATM   14  C8  UNL     1      23.934   1.357  52.830  1.00  0.00     0.728 A 
HETATM   15  N2  UNL     1      24.126   2.339  51.930  1.00  0.00    -0.075 NA
HETATM   16  C9  UNL     1      25.259   2.427  51.242  1.00  0.00     0.139 A 
HETATM   17  C10 UNL     1      26.220   1.453  51.511  1.00  0.00     0.053 A 
HETATM   18  C11 UNL     1      26.046   0.421  52.442  1.00  0.00     0.089 A 
HETATM   19  N4  UNL     1      24.858   0.410  53.095  1.00  0.00    -0.062 NA
BRANCH  18  20
HETATM   20  C12 UNL     1      27.070  -0.583  52.701  1.00  0.00     0.011 A 
HETATM   21  C13 UNL     1      28.265  -0.128  53.198  1.00  0.00     0.017 A 
HETATM   22  C14 UNL     1      29.275  -1.020  53.473  1.00  0.00     0.020 A 
HETATM   23  C15 UNL     1      29.037  -2.370  53.229  1.00  0.00     0.116 A 
HETATM   24  N3  UNL     1      27.854  -2.803  52.739  1.00  0.00    -0.272 NA
HETATM   25  C16 UNL     1      26.864  -1.903  52.473  1.00  0.00     0.130 A 
ENDBRANCH  18  20
ENDBRANCH   1  14
TORSDOF 3
ENDMDL
MODEL 3
REMARK VINA RESULT:      -8.3      5.889      8.304
REMARK  3 active torsions:
REMARK  status: ('A' for Active; 'I' for Inactive)
REMARK    1  A    between atoms: C7_8  and  N1_9 
REMARK    2  A    between atoms: N1_9  and  C8_10 
REMARK    3  A    between atoms: C11_14  and  C12_15 
ROOT
HETATM    1  N1  UNL     1      26.150   4.528  49.051  1.00  0.00    -0.173 N 
HETATM    2  H8  UNL     1      25.537   4.408  48.194  1.00  0.00     0.186 HD
ENDROOT
BRANCH   1   3
HETATM    3  C7  UNL     1      27.012   5.647  48.870  1.00  0.00     0.122 C 
HETATM    4  C6  UNL     1      28.172   5.179  48.444  1.00  0.00     0.099 C 
HETATM    5  C5  UNL     1      29.438   5.797  48.085  1.00  0.00     0.156 C 
HETATM    6  C4  UNL     1      29.775   7.101  47.494  1.00  0.00     0.110 C 
HETATM    7  O1  UNL     1      30.432   5.034  48.348  1.00  0.00    -0.293 OA
HETATM    8  C3  UNL     1      29.067   8.263  48.029  1.00  0.00    -0.015 C 
HETATM    9  C2  UNL     1      27.931   8.774  48.501  1.00  0.00    -0.069 C 
HETATM   10  C1  UNL     1      28.035  10.233  48.887  1.00  0.00     0.044 C 
HETATM   11  C18 UNL     1      26.584   8.255  48.728  1.00  0.00     0.157 C 
HETATM   12  N5  UNL     1      26.450   6.914  49.169  1.00  0.00    -0.367 N 
HETATM   13  C17 UNL     1      25.450   6.751  50.238  1.00  0.00     0.151 C 
ENDBRANCH   1   3
BRANCH   1  14
HETATM   14  C8  UNL     1      25.867   3.536  50.034  1.00  0.00     0.728 A 
HETATM   15  N2  UNL     1      24.576   3.156  50.050  1.00  0.00    -0.075 NA
HETATM   16  C9  UNL     1      24.139   2.251  50.920  1.00  0.00     0.139 A 
HETATM   17  C10 UNL     1      25.090   1.730  51.797  1.00  0.00     0.053 A 
HETATM   18  C11 UNL     1      26.438   2.108  51.801  1.00  0.00     0.089 A 
HETATM   19  N4  UNL     1      26.793   3.038  50.880  1.00  0.00    -0.062 NA
BRANCH  18  20
HETATM   20  C12 UNL     1      27.409   1.545  52.730  1.00  0.00     0.011 A 
HETATM   21  C13 UNL     1      27.471   0.176  52.799  1.00  0.00     0.017 A 
HETATM   22  C14 UNL     1      28.368  -0.425  53.651  1.00  0.00     0.020 A 
HETATM   23  C15 UNL     1      29.188   0.397  54.420  1.00  0.00     0.116 A 
HETATM   24  N3  UNL     1      29.115   1.744  54.342  1.00  0.00    -0.272 NA
HETATM   25  C16 UNL     1      28.219   2.322  53.491  1.00  0.00     0.130 A 
ENDBRANCH  18  20
ENDBRANCH   1  14
TORSDOF 3
ENDMDL
MODEL 4
REMARK VINA RESULT:      -8.2      3.791      5.674
REMARK  3 active torsions:
REMARK  status: ('A' for Active; 'I' for Inactive)
REMARK    1  A    between atoms: C7_8  and  N1_9 
REMARK    2  A    between atoms: N1_9  and  C8_10 
REMARK    3  A    between atoms: C11_14  and  C12_15 
ROOT
HETATM    1  N1  UNL     1      23.792   2.434  51.043  1.00  0.00    -0.173 N 
HETATM    2  H8  UNL     1      22.908   2.223  50.495  1.00  0.00     0.186 HD
ENDROOT
BRANCH   1   3
HETATM    3  C7  UNL     1      24.295   3.712  50.666  1.00  0.00     0.122 C 
HETATM    4  C6  UNL     1      25.400   3.505  49.972  1.00  0.00     0.099 C 
HETATM    5  C5  UNL     1      26.362   4.381  49.322  1.00  0.00     0.156 C 
HETATM    6  C4  UNL     1      26.230   5.695  48.674  1.00  0.00     0.110 C 
HETATM    7  O1  UNL     1      27.542   3.886  49.336  1.00  0.00    -0.293 OA
HETATM    8  C3  UNL     1      25.410   6.687  49.369  1.00  0.00    -0.015 C 
HETATM    9  C2  UNL     1      24.328   6.943  50.101  1.00  0.00    -0.069 C 
HETATM   10  C1  UNL     1      24.168   8.404  50.459  1.00  0.00     0.044 C 
HETATM   11  C18 UNL     1      23.235   6.137  50.642  1.00  0.00     0.157 C 
HETATM   12  N5  UNL     1      23.532   4.827  51.097  1.00  0.00    -0.367 N 
HETATM   13  C17 UNL     1      22.879   4.492  52.374  1.00  0.00     0.151 C 
ENDBRANCH   1   3
BRANCH   1  14
HETATM   14  C8  UNL     1      24.119   1.369  51.932  1.00  0.00     0.728 A 
HETATM   15  N2  UNL     1      23.067   0.936  52.651  1.00  0.00    -0.075 NA
HETATM   16  C9  UNL     1      23.202  -0.040  53.542  1.00  0.00     0.139 A 
HETATM   17  C10 UNL     1      24.482  -0.578  53.678  1.00  0.00     0.053 A 
HETATM   18  C11 UNL     1      25.592  -0.146  52.942  1.00  0.00     0.089 A 
HETATM   19  N4  UNL     1      25.360   0.855  52.057  1.00  0.00    -0.062 NA
BRANCH  18  20
HETATM   20  C12 UNL     1      26.917  -0.728  53.106  1.00  0.00     0.011 A 
HETATM   21  C13 UNL     1      27.899   0.105  53.581  1.00  0.00     0.017 A 
HETATM   22  C14 UNL     1      29.174  -0.378  53.766  1.00  0.00     0.020 A 
HETATM   23  C15 UNL     1      29.416  -1.713  53.458  1.00  0.00     0.116 A 
HETATM   24  N3  UNL     1      28.439  -2.522  52.990  1.00  0.00    -0.272 NA
HETATM   25  C16 UNL     1      27.181  -2.025  52.813  1.00  0.00     0.130 A 
ENDBRANCH  18  20
ENDBRANCH   1  14
TORSDOF 3
ENDMDL
MODEL 5
REMARK VINA RESULT:      -8.1      4.338      6.058
REMARK  3 active torsions:
REMARK  status: ('A' for Active; 'I' for Inactive)
REMARK    1  A    between atoms: C7_8  and  N1_9 
REMARK    2  A    between atoms: N1_9  and  C8_10 
REMARK    3  A    between atoms: C11_14  and  C12_15 
ROOT
HETATM    1  N1  UNL     1      23.647   2.423  50.564  1.00  0.00    -0.173 N 
HETATM    2  H8  UNL     1      23.278   2.054  49.640  1.00  0.00     0.186 HD
ENDROOT
BRANCH   1   3
HETATM    3  C7  UNL     1      23.586   1.396  51.548  1.00  0.00     0.122 C 
HETATM    4  C6  UNL     1      24.827   1.144  51.925  1.00  0.00     0.099 C 
HETATM    5  C5  UNL     1      25.424   0.222  52.878  1.00  0.00     0.156 C 
HETATM    6  C4  UNL     1      24.950  -0.335  54.154  1.00  0.00     0.110 C 
HETATM    7  O1  UNL     1      26.587  -0.161  52.504  1.00  0.00    -0.293 OA
HETATM    8  C3  UNL     1      23.562  -0.795  54.189  1.00  0.00    -0.015 C 
HETATM    9  C2  UNL     1      22.301  -0.608  53.805  1.00  0.00    -0.069 C 
HETATM   10  C1  UNL     1      21.343  -1.653  54.332  1.00  0.00     0.044 C 
HETATM   11  C18 UNL     1      21.608   0.390  52.991  1.00  0.00     0.157 C 
HETATM   12  N5  UNL     1      22.287   0.922  51.866  1.00  0.00    -0.367 N 
HETATM   13  C17 UNL     1      21.434   1.033  50.671  1.00  0.00     0.151 C 
ENDBRANCH   1   3
BRANCH   1  14
HETATM   14  C8  UNL     1      24.057   3.784  50.453  1.00  0.00     0.728 A 
HETATM   15  N2  UNL     1      23.190   4.647  51.014  1.00  0.00    -0.075 NA
HETATM   16  C9  UNL     1      23.411   5.957  50.982  1.00  0.00     0.139 A 
HETATM   17  C10 UNL     1      24.580   6.369  50.342  1.00  0.00     0.053 A 
HETATM   18  C11 UNL     1      25.497   5.492  49.752  1.00  0.00     0.089 A 
HETATM   19  N4  UNL     1      25.189   4.174  49.832  1.00  0.00    -0.062 NA
BRANCH  18  20
HETATM   20  C12 UNL     1      26.711   5.953  49.091  1.00  0.00     0.011 A 
HETATM   21  C13 UNL     1      27.626   4.991  48.746  1.00  0.00     0.017 A 
HETATM   22  C14 UNL     1      28.793   5.353  48.114  1.00  0.00     0.020 A 
HETATM   23  C15 UNL     1      28.997   6.704  47.846  1.00  0.00     0.116 A 
HETATM   24  N3  UNL     1      28.086   7.641  48.192  1.00  0.00    -0.272 NA
HETATM   25  C16 UNL     1      26.935   7.262  48.819  1.00  0.00     0.130 A 
ENDBRANCH  18  20
ENDBRANCH   1  14
TORSDOF 3
ENDMDL
MODEL 6
REMARK VINA RESULT:      -7.6      5.443      8.184
REMARK  3 active torsions:
REMARK  status: ('A' for Active; 'I' for Inactive)
REMARK    1  A    between atoms: C7_8  and  N1_9 
REMARK    2  A    between atoms: N1_9  and  C8_10 
REMARK    3  A    between atoms: C11_14  and  C12_15 
ROOT
HETATM    1  N1  UNL     1      25.697   4.042  49.515  1.00  0.00    -0.173 N 
HETATM    2  H8  UNL     1      25.020   3.755  48.749  1.00  0.00     0.186 HD
ENDROOT
BRANCH   1   3
HETATM    3  C7  UNL     1      26.352   5.251  49.146  1.00  0.00     0.122 C 
HETATM    4  C6  UNL     1      27.559   4.925  48.720  1.00  0.00     0.099 C 
HETATM    5  C5  UNL     1      28.691   5.687  48.216  1.00  0.00     0.156 C 
HETATM    6  C4  UNL     1      28.784   6.938  47.447  1.00  0.00     0.110 C 
HETATM    7  O1  UNL     1      29.807   5.138  48.517  1.00  0.00    -0.293 OA
HETATM    8  C3  UNL     1      27.908   8.030  47.870  1.00  0.00    -0.015 C 
HETATM    9  C2  UNL     1      26.719   8.408  48.336  1.00  0.00    -0.069 C 
HETATM   10  C1  UNL     1      26.589   9.903  48.529  1.00  0.00     0.044 C 
HETATM   11  C18 UNL     1      25.487   7.712  48.701  1.00  0.00     0.157 C 
HETATM   12  N5  UNL     1      25.595   6.439  49.314  1.00  0.00    -0.367 N 
HETATM   13  C17 UNL     1      24.673   6.260  50.449  1.00  0.00     0.151 C 
ENDBRANCH   1   3
BRANCH   1  14
HETATM   14  C8  UNL     1      25.679   3.114  50.597  1.00  0.00     0.728 A 
HETATM   15  N2  UNL     1      26.902   2.854  51.095  1.00  0.00    -0.075 NA
HETATM   16  C9  UNL     1      27.065   1.995  52.096  1.00  0.00     0.139 A 
HETATM   17  C10 UNL     1      25.907   1.395  52.588  1.00  0.00     0.053 A 
HETATM   18  C11 UNL     1      24.624   1.648  52.088  1.00  0.00     0.089 A 
HETATM   19  N4  UNL     1      24.553   2.537  51.066  1.00  0.00    -0.062 NA
BRANCH  18  20
HETATM   20  C12 UNL     1      23.432   1.004  52.623  1.00  0.00     0.011 A 
HETATM   21  C13 UNL     1      23.621  -0.173  53.302  1.00  0.00     0.017 A 
HETATM   22  C14 UNL     1      22.541  -0.833  53.840  1.00  0.00     0.020 A 
HETATM   23  C15 UNL     1      21.280  -0.268  53.668  1.00  0.00     0.116 A 
HETATM   24  N3  UNL     1      21.108   0.892  52.996  1.00  0.00    -0.272 NA
HETATM   25  C16 UNL     1      22.192   1.532  52.470  1.00  0.00     0.130 A 
ENDBRANCH  18  20
ENDBRANCH   1  14
TORSDOF 3
ENDMDL
MODEL 7
REMARK VINA RESULT:      -7.6      2.037      8.056
REMARK  3 active torsions:
REMARK  status: ('A' for Active; 'I' for Inactive)
REMARK    1  A    between atoms: C7_8  and  N1_9 
REMARK    2  A    between atoms: N1_9  and  C8_10 
REMARK    3  A    between atoms: C11_14  and  C12_15 
ROOT
HETATM    1  N1  UNL     1      24.667   0.507  52.421  1.00  0.00    -0.173 N 
HETATM    2  H8  UNL     1      24.646   0.997  51.480  1.00  0.00     0.186 HD
ENDROOT
BRANCH   1   3
HETATM    3  C7  UNL     1      26.007   0.434  52.894  1.00  0.00     0.122 C 
HETATM    4  C6  UNL     1      26.417  -0.809  52.711  1.00  0.00     0.099 C 
HETATM    5  C5  UNL     1      27.662  -1.511  52.980  1.00  0.00     0.156 C 
HETATM    6  C4  UNL     1      29.067  -1.075  52.990  1.00  0.00     0.110 C 
HETATM    7  O1  UNL     1      27.462  -2.743  53.262  1.00  0.00    -0.293 OA
HETATM    8  C3  UNL     1      29.349   0.204  53.640  1.00  0.00    -0.015 C 
HETATM    9  C2  UNL     1      28.963   1.454  53.887  1.00  0.00    -0.069 C 
HETATM   10  C1  UNL     1      29.932   2.231  54.749  1.00  0.00     0.044 C 
HETATM   11  C18 UNL     1      27.811   2.271  53.507  1.00  0.00     0.157 C 
HETATM   12  N5  UNL     1      26.545   1.639  53.413  1.00  0.00    -0.367 N 
HETATM   13  C17 UNL     1      25.455   2.429  54.010  1.00  0.00     0.151 C 
ENDBRANCH   1   3
BRANCH   1  14
HETATM   14  C8  UNL     1      23.357   0.125  52.835  1.00  0.00     0.728 A 
HETATM   15  N2  UNL     1      23.339  -0.515  54.019  1.00  0.00    -0.075 NA
HETATM   16  C9  UNL     1      22.200  -0.957  54.541  1.00  0.00     0.139 A 
HETATM   17  C10 UNL     1      21.046  -0.715  53.797  1.00  0.00     0.053 A 
HETATM   18  C11 UNL     1      21.037  -0.051  52.564  1.00  0.00     0.089 A 
HETATM   19  N4  UNL     1      22.246   0.363  52.108  1.00  0.00    -0.062 NA
BRANCH  18  20
HETATM   20  C12 UNL     1      19.814   0.187  51.809  1.00  0.00     0.011 A 
HETATM   21  C13 UNL     1      19.944   0.883  50.634  1.00  0.00     0.017 A 
HETATM   22  C14 UNL     1      18.832   1.140  49.866  1.00  0.00     0.020 A 
HETATM   23  C15 UNL     1      17.602   0.674  50.323  1.00  0.00     0.116 A 
HETATM   24  N3  UNL     1      17.490  -0.010  51.484  1.00  0.00    -0.272 NA
HETATM   25  C16 UNL     1      18.604  -0.255  52.231  1.00  0.00     0.130 A 
ENDBRANCH  18  20
ENDBRANCH   1  14
TORSDOF 3
ENDMDL
MODEL 8
REMARK VINA RESULT:      -7.6      2.743      7.394
REMARK  3 active torsions:
REMARK  status: ('A' for Active; 'I' for Inactive)
REMARK    1  A    between atoms: C7_8  and  N1_9 
REMARK    2  A    between atoms: N1_9  and  C8_10 
REMARK    3  A    between atoms: C11_14  and  C12_15 
ROOT
HETATM    1  N1  UNL     1      24.111   0.820  52.720  1.00  0.00    -0.173 N 
HETATM    2  H8  UNL     1      24.988   0.663  53.296  1.00  0.00     0.186 HD
ENDROOT
BRANCH   1   3
HETATM    3  C7  UNL     1      24.401   1.693  51.634  1.00  0.00     0.122 C 
HETATM    4  C6  UNL     1      23.253   1.982  51.049  1.00  0.00     0.099 C 
HETATM    5  C5  UNL     1      22.879   2.803  49.908  1.00  0.00     0.156 C 
HETATM    6  C4  UNL     1      23.449   4.035  49.342  1.00  0.00     0.110 C 
HETATM    7  O1  UNL     1      21.856   2.335  49.299  1.00  0.00    -0.293 OA
HETATM    8  C3  UNL     1      24.906   4.090  49.230  1.00  0.00    -0.015 C 
HETATM    9  C2  UNL     1      26.090   3.790  49.759  1.00  0.00    -0.069 C 
HETATM   10  C1  UNL     1      27.264   4.250  48.924  1.00  0.00     0.044 C 
HETATM   11  C18 UNL     1      26.534   3.119  50.980  1.00  0.00     0.157 C 
HETATM   12  N5  UNL     1      25.769   2.023  51.456  1.00  0.00    -0.367 N 
HETATM   13  C17 UNL     1      26.595   0.889  51.905  1.00  0.00     0.151 C 
ENDBRANCH   1   3
BRANCH   1  14
HETATM   14  C8  UNL     1      23.004   0.099  53.255  1.00  0.00     0.728 A 
HETATM   15  N2  UNL     1      23.343  -0.725  54.263  1.00  0.00    -0.075 NA
HETATM   16  C9  UNL     1      22.433  -1.486  54.862  1.00  0.00     0.139 A 
HETATM   17  C10 UNL     1      21.127  -1.373  54.387  1.00  0.00     0.053 A 
HETATM   18  C11 UNL     1      20.747  -0.523  53.341  1.00  0.00     0.089 A 
HETATM   19  N4  UNL     1      21.743   0.214  52.789  1.00  0.00    -0.062 NA
BRANCH  18  20
HETATM   20  C12 UNL     1      19.374  -0.427  52.866  1.00  0.00     0.011 A 
HETATM   21  C13 UNL     1      18.480  -1.329  53.385  1.00  0.00     0.017 A 
HETATM   22  C14 UNL     1      17.164  -1.294  52.987  1.00  0.00     0.020 A 
HETATM   23  C15 UNL     1      16.790  -0.327  52.058  1.00  0.00     0.116 A 
HETATM   24  N3  UNL     1      17.682   0.556  51.554  1.00  0.00    -0.272 NA
HETATM   25  C16 UNL     1      18.983   0.505  51.962  1.00  0.00     0.130 A 
ENDBRANCH  18  20
ENDBRANCH   1  14
TORSDOF 3
ENDMDL
MODEL 9
REMARK VINA RESULT:      -7.6      2.697      3.471
REMARK  3 active torsions:
REMARK  status: ('A' for Active; 'I' for Inactive)
REMARK    1  A    between atoms: C7_8  and  N1_9 
REMARK    2  A    between atoms: N1_9  and  C8_10 
REMARK    3  A    between atoms: C11_14  and  C12_15 
ROOT
HETATM    1  N1  UNL     1      21.913   0.198  52.358  1.00  0.00    -0.173 N 
HETATM    2  H8  UNL     1      21.769  -0.511  51.582  1.00  0.00     0.186 HD
ENDROOT
BRANCH   1   3
HETATM    3  C7  UNL     1      21.098   1.341  52.119  1.00  0.00     0.122 C 
HETATM    4  C6  UNL     1      21.889   2.398  52.163  1.00  0.00     0.099 C 
HETATM    5  C5  UNL     1      21.672   3.828  52.003  1.00  0.00     0.156 C 
HETATM    6  C4  UNL     1      20.720   4.604  51.195  1.00  0.00     0.110 C 
HETATM    7  O1  UNL     1      22.481   4.514  52.718  1.00  0.00    -0.293 OA
HETATM    8  C3  UNL     1      19.335   4.133  51.187  1.00  0.00    -0.015 C 
HETATM    9  C2  UNL     1      18.494   3.101  51.181  1.00  0.00    -0.069 C 
HETATM   10  C1  UNL     1      17.036   3.504  51.172  1.00  0.00     0.044 C 
HETATM   11  C18 UNL     1      18.647   1.647  51.169  1.00  0.00     0.157 C 
HETATM   12  N5  UNL     1      19.720   1.082  51.903  1.00  0.00    -0.367 N 
HETATM   13  C17 UNL     1      19.335  -0.116  52.669  1.00  0.00     0.151 C 
ENDBRANCH   1   3
BRANCH   1  14
HETATM   14  C8  UNL     1      22.852  -0.272  53.322  1.00  0.00     0.728 A 
HETATM   15  N2  UNL     1      22.278  -0.928  54.347  1.00  0.00    -0.075 NA
HETATM   16  C9  UNL     1      23.009  -1.416  55.343  1.00  0.00     0.139 A 
HETATM   17  C10 UNL     1      24.385  -1.209  55.256  1.00  0.00     0.053 A 
HETATM   18  C11 UNL     1      25.007  -0.530  54.201  1.00  0.00     0.089 A 
HETATM   19  N4  UNL     1      24.182  -0.066  53.230  1.00  0.00    -0.062 NA
BRANCH  18  20
HETATM   20  C12 UNL     1      26.449  -0.330  54.138  1.00  0.00     0.011 A 
HETATM   21  C13 UNL     1      27.133  -1.077  53.213  1.00  0.00     0.017 A 
HETATM   22  C14 UNL     1      28.496  -0.936  53.093  1.00  0.00     0.020 A 
HETATM   23  C15 UNL     1      29.133  -0.024  53.931  1.00  0.00     0.116 A 
HETATM   24  N3  UNL     1      28.445   0.705  54.838  1.00  0.00    -0.272 NA
HETATM   25  C16 UNL     1      27.094   0.551  54.942  1.00  0.00     0.130 A 
ENDBRANCH  18  20
ENDBRANCH   1  14
TORSDOF 3
ENDMDL
