MODEL 1
REMARK VINA RESULT:      -7.9      0.000      0.000
REMARK  4 active torsions:
REMARK  status: ('A' for Active; 'I' for Inactive)
REMARK    1  A    between atoms: C4_4  and  O1_5 
REMARK    2  A    between atoms: C7_8  and  N1_9 
REMARK    3  A    between atoms: N1_9  and  C8_10 
REMARK    4  A    between atoms: N1_9  and  C13_16 
ROOT
HETATM    1  N1  UNL     1      24.887   1.627  52.406  1.00  0.00    -0.344 N 
ENDROOT
BRANCH   1   2
HETATM    2  C7  UNL     1      24.596   2.970  52.036  1.00  0.00     0.039 A 
HETATM    3  C2  UNL     1      24.838   3.668  50.892  1.00  0.00    -0.033 A 
HETATM    4  C1  UNL     1      25.557   2.949  49.834  1.00  0.00     0.050 C 
HETATM    5  C3  UNL     1      24.441   4.976  50.743  1.00  0.00     0.045 A 
HETATM    6  C4  UNL     1      23.782   5.663  51.716  1.00  0.00     0.066 A 
HETATM    7  C5  UNL     1      23.518   4.992  52.889  1.00  0.00     0.039 A 
HETATM    8  C6  UNL     1      23.918   3.681  53.036  1.00  0.00     0.033 A 
BRANCH   6   9
HETATM    9  O1  UNL     1      23.430   6.981  51.453  1.00  0.00    -0.361 OA
HETATM   10  H5  UNL     1      23.099   7.609  52.177  1.00  0.00     0.217 HD
ENDBRANCH   6   9
ENDBRANCH   1   2
BRANCH   1  11
HETATM   11  C8  UNL     1      23.946   0.549  52.240  1.00  0.00     0.134 A 
HETATM   12  C9  UNL     1      23.494  -0.026  53.529  1.00  0.00     0.004 A 
HETATM   13  C10 UNL     1      22.156  -0.054  53.570  1.00  0.00     0.017 A 
HETATM   14  C11 UNL     1      21.654   0.509  52.298  1.00  0.00     0.009 A 
HETATM   15 BR1  UNL     1      19.726   0.519  52.246  1.00  0.00    -0.051 Br
HETATM   16  C12 UNL     1      22.709   0.852  51.538  1.00  0.00     0.021 A 
ENDBRANCH   1  11
BRANCH   1  17
HETATM   17  C13 UNL     1      26.191   1.363  52.975  1.00  0.00     0.208 C 
HETATM   18  C14 UNL     1      26.846   0.168  52.364  1.00  0.00     0.015 C 
HETATM   19  C15 UNL     1      27.860  -0.437  52.980  1.00  0.00    -0.023 C 
HETATM   20  C16 UNL     1      28.432  -0.001  54.305  1.00  0.00     0.055 C 
HETATM   21  C17 UNL     1      29.016   1.381  54.166  1.00  0.00    -0.006 C 
HETATM   22  C18 UNL     1      28.368   2.367  53.527  1.00  0.00     0.081 C 
HETATM   23  N2  UNL     1      27.108   2.485  52.851  1.00  0.00    -0.375 N 
HETATM   24  H19 UNL     1      27.100   3.422  52.366  1.00  0.00     0.161 HD
ENDBRANCH   1  17
TORSDOF 4
ENDMDL
MODEL 2
REMARK VINA RESULT:      -7.7      2.857      4.799
REMARK  4 active torsions:
REMARK  status: ('A' for Active; 'I' for Inactive)
REMARK    1  A    between atoms: C4_4  and  O1_5 
REMARK    2  A    between atoms: C7_8  and  N1_9 
REMARK    3  A    between atoms: N1_9  and  C8_10 
REMARK    4  A    between atoms: N1_9  and  C13_16 
ROOT
HETATM    1  N1  UNL     1      25.610   0.395  53.413  1.00  0.00    -0.344 N 
ENDROOT
BRANCH   1   2
HETATM    2  C7  UNL     1      24.412  -0.222  53.870  1.00  0.00     0.039 A 
HETATM    3  C2  UNL     1      24.086  -0.802  55.058  1.00  0.00    -0.033 A 
HETATM    4  C1  UNL     1      25.149  -0.847  56.069  1.00  0.00     0.050 C 
HETATM    5  C3  UNL     1      22.837  -1.325  55.291  1.00  0.00     0.045 A 
HETATM    6  C4  UNL     1      21.841  -1.302  54.363  1.00  0.00     0.066 A 
HETATM    7  C5  UNL     1      22.130  -0.723  53.147  1.00  0.00     0.039 A 
HETATM    8  C6  UNL     1      23.385  -0.200  52.916  1.00  0.00     0.033 A 
BRANCH   6   9
HETATM    9  O1  UNL     1      20.618  -1.860  54.710  1.00  0.00    -0.361 OA
HETATM   10  H5  UNL     1      19.750  -1.591  54.260  1.00  0.00     0.217 HD
ENDBRANCH   6   9
ENDBRANCH   1   2
BRANCH   1  11
HETATM   11  C8  UNL     1      25.669   1.771  52.992  1.00  0.00     0.134 A 
HETATM   12  C9  UNL     1      25.502   1.934  51.528  1.00  0.00     0.004 A 
HETATM   13  C10 UNL     1      24.540   2.831  51.279  1.00  0.00     0.017 A 
HETATM   14  C11 UNL     1      24.019   3.308  52.578  1.00  0.00     0.009 A 
HETATM   15 BR1  UNL     1      22.618   4.612  52.339  1.00  0.00    -0.051 Br
HETATM   16  C12 UNL     1      24.689   2.680  53.562  1.00  0.00     0.021 A 
ENDBRANCH   1  11
BRANCH   1  17
HETATM   17  C13 UNL     1      26.804  -0.422  53.376  1.00  0.00     0.208 C 
HETATM   18  C14 UNL     1      26.762  -1.440  52.285  1.00  0.00     0.015 C 
HETATM   19  C15 UNL     1      27.577  -2.493  52.309  1.00  0.00    -0.023 C 
HETATM   20  C16 UNL     1      28.588  -2.761  53.395  1.00  0.00     0.055 C 
HETATM   21  C17 UNL     1      29.611  -1.655  53.409  1.00  0.00    -0.006 C 
HETATM   22  C18 UNL     1      29.263  -0.361  53.326  1.00  0.00     0.081 C 
HETATM   23  N2  UNL     1      28.024   0.354  53.215  1.00  0.00    -0.375 N 
HETATM   24  H19 UNL     1      28.262   1.363  53.022  1.00  0.00     0.161 HD
ENDBRANCH   1  17
TORSDOF 4
ENDMDL
MODEL 3
REMARK VINA RESULT:      -7.3      2.931      5.504
REMARK  4 active torsions:
REMARK  status: ('A' for Active; 'I' for Inactive)
REMARK    1  A    between atoms: C4_4  and  O1_5 
REMARK    2  A    between atoms: C7_8  and  N1_9 
REMARK    3  A    between atoms: N1_9  and  C8_10 
REMARK    4  A    between atoms: N1_9  and  C13_16 
ROOT
HETATM    1  N1  UNL     1      24.721   1.405  52.313  1.00  0.00    -0.344 N 
ENDROOT
BRANCH   1   2
HETATM    2  C7  UNL     1      26.060   1.222  52.759  1.00  0.00     0.039 A 
HETATM    3  C2  UNL     1      26.949   0.207  52.568  1.00  0.00    -0.033 A 
HETATM    4  C1  UNL     1      26.465  -0.939  51.790  1.00  0.00     0.050 C 
HETATM    5  C3  UNL     1      28.222   0.252  53.084  1.00  0.00     0.045 A 
HETATM    6  C4  UNL     1      28.686   1.302  53.817  1.00  0.00     0.066 A 
HETATM    7  C5  UNL     1      27.818   2.348  54.033  1.00  0.00     0.039 A 
HETATM    8  C6  UNL     1      26.541   2.301  53.515  1.00  0.00     0.033 A 
BRANCH   6   9
HETATM    9  O1  UNL     1      29.991   1.237  54.287  1.00  0.00    -0.361 OA
HETATM   10  H5  UNL     1      30.299   0.524  54.938  1.00  0.00     0.217 HD
ENDBRANCH   6   9
ENDBRANCH   1   2
BRANCH   1  11
HETATM   11  C8  UNL     1      24.386   2.186  51.150  1.00  0.00     0.134 A 
HETATM   12  C9  UNL     1      23.812   3.510  51.490  1.00  0.00     0.004 A 
HETATM   13  C10 UNL     1      24.479   4.473  50.841  1.00  0.00     0.017 A 
HETATM   14  C11 UNL     1      25.536   3.826  50.034  1.00  0.00     0.009 A 
HETATM   15 BR1  UNL     1      26.567   5.126  49.052  1.00  0.00    -0.051 Br
HETATM   16  C12 UNL     1      25.465   2.497  50.227  1.00  0.00     0.021 A 
ENDBRANCH   1  11
BRANCH   1  17
HETATM   17  C13 UNL     1      23.673   0.773  53.084  1.00  0.00     0.208 C 
HETATM   18  C14 UNL     1      22.527   0.335  52.231  1.00  0.00     0.015 C 
HETATM   19  C15 UNL     1      21.341   0.068  52.775  1.00  0.00    -0.023 C 
HETATM   20  C16 UNL     1      21.039   0.174  54.249  1.00  0.00     0.055 C 
HETATM   21  C17 UNL     1      21.887  -0.815  55.005  1.00  0.00    -0.006 C 
HETATM   22  C18 UNL     1      23.196  -0.973  54.750  1.00  0.00     0.081 C 
HETATM   23  N2  UNL     1      24.133  -0.383  53.837  1.00  0.00    -0.375 N 
HETATM   24  H19 UNL     1      25.024  -0.943  53.898  1.00  0.00     0.161 HD
ENDBRANCH   1  17
TORSDOF 4
ENDMDL
MODEL 4
REMARK VINA RESULT:      -7.2      3.024      5.930
REMARK  4 active torsions:
REMARK  status: ('A' for Active; 'I' for Inactive)
REMARK    1  A    between atoms: C4_4  and  O1_5 
REMARK    2  A    between atoms: C7_8  and  N1_9 
REMARK    3  A    between atoms: N1_9  and  C8_10 
REMARK    4  A    between atoms: N1_9  and  C13_16 
ROOT
HETATM    1  N1  UNL     1      25.125   1.001  53.007  1.00  0.00    -0.344 N 
ENDROOT
BRANCH   1   2
HETATM    2  C7  UNL     1      26.234   0.114  53.102  1.00  0.00     0.039 A 
HETATM    3  C2  UNL     1      27.450   0.244  53.700  1.00  0.00    -0.033 A 
HETATM    4  C1  UNL     1      27.717   1.531  54.352  1.00  0.00     0.050 C 
HETATM    5  C3  UNL     1      28.378  -0.770  53.685  1.00  0.00     0.045 A 
HETATM    6  C4  UNL     1      28.153  -1.968  53.077  1.00  0.00     0.066 A 
HETATM    7  C5  UNL     1      26.935  -2.139  52.460  1.00  0.00     0.039 A 
HETATM    8  C6  UNL     1      26.006  -1.120  52.476  1.00  0.00     0.033 A 
BRANCH   6   9
HETATM    9  O1  UNL     1      29.164  -2.919  53.126  1.00  0.00    -0.361 OA
HETATM   10  H5  UNL     1      29.618  -3.185  53.992  1.00  0.00     0.217 HD
ENDBRANCH   6   9
ENDBRANCH   1   2
BRANCH   1  11
HETATM   11  C8  UNL     1      25.238   2.339  52.487  1.00  0.00     0.134 A 
HETATM   12  C9  UNL     1      25.175   2.392  51.008  1.00  0.00     0.004 A 
HETATM   13  C10 UNL     1      24.248   3.279  50.624  1.00  0.00     0.017 A 
HETATM   14  C11 UNL     1      23.648   3.861  51.843  1.00  0.00     0.009 A 
HETATM   15 BR1  UNL     1      22.291   5.160  51.409  1.00  0.00    -0.051 Br
HETATM   16  C12 UNL     1      24.237   3.303  52.916  1.00  0.00     0.021 A 
ENDBRANCH   1  11
BRANCH   1  17
HETATM   17  C13 UNL     1      23.843   0.511  53.465  1.00  0.00     0.208 C 
HETATM   18  C14 UNL     1      22.926   0.176  52.334  1.00  0.00     0.015 C 
HETATM   19  C15 UNL     1      21.616   0.058  52.538  1.00  0.00    -0.023 C 
HETATM   20  C16 UNL     1      20.942   0.241  53.875  1.00  0.00     0.055 C 
HETATM   21  C17 UNL     1      21.438  -0.812  54.832  1.00  0.00    -0.006 C 
HETATM   22  C18 UNL     1      22.740  -1.120  54.940  1.00  0.00     0.081 C 
HETATM   23  N2  UNL     1      23.949  -0.664  54.315  1.00  0.00    -0.375 N 
HETATM   24  H19 UNL     1      24.721  -1.317  54.615  1.00  0.00     0.161 HD
ENDBRANCH   1  17
TORSDOF 4
ENDMDL
MODEL 5
REMARK VINA RESULT:      -7.2      2.915      4.345
REMARK  4 active torsions:
REMARK  status: ('A' for Active; 'I' for Inactive)
REMARK    1  A    between atoms: C4_4  and  O1_5 
REMARK    2  A    between atoms: C7_8  and  N1_9 
REMARK    3  A    between atoms: N1_9  and  C8_10 
REMARK    4  A    between atoms: N1_9  and  C13_16 
ROOT
HETATM    1  N1  UNL     1      24.419   2.475  51.265  1.00  0.00    -0.344 N 
ENDROOT
BRANCH   1   2
HETATM    2  C7  UNL     1      23.054   2.726  51.580  1.00  0.00     0.039 A 
HETATM    3  C2  UNL     1      22.437   3.797  52.152  1.00  0.00    -0.033 A 
HETATM    4  C1  UNL     1      23.310   4.904  52.562  1.00  0.00     0.050 C 
HETATM    5  C3  UNL     1      21.077   3.834  52.343  1.00  0.00     0.045 A 
HETATM    6  C4  UNL     1      20.251   2.814  51.979  1.00  0.00     0.066 A 
HETATM    7  C5  UNL     1      20.836   1.712  51.397  1.00  0.00     0.039 A 
HETATM    8  C6  UNL     1      22.201   1.677  51.207  1.00  0.00     0.033 A 
BRANCH   6   9
HETATM    9  O1  UNL     1      18.892   2.962  52.221  1.00  0.00    -0.361 OA
HETATM   10  H5  UNL     1      18.450   3.871  52.297  1.00  0.00     0.217 HD
ENDBRANCH   6   9
ENDBRANCH   1   2
BRANCH   1  11
HETATM   11  C8  UNL     1      25.057   2.996  50.084  1.00  0.00     0.134 A 
HETATM   12  C9  UNL     1      24.096   3.576  49.117  1.00  0.00     0.004 A 
HETATM   13  C10 UNL     1      24.479   4.815  48.784  1.00  0.00     0.017 A 
HETATM   14  C11 UNL     1      25.722   5.118  49.525  1.00  0.00     0.009 A 
HETATM   15 BR1  UNL     1      26.368   6.890  49.121  1.00  0.00    -0.051 Br
HETATM   16  C12 UNL     1      26.043   4.048  50.274  1.00  0.00     0.021 A 
ENDBRANCH   1  11
BRANCH   1  17
HETATM   17  C13 UNL     1      25.171   1.652  52.188  1.00  0.00     0.208 C 
HETATM   18  C14 UNL     1      26.221   0.842  51.500  1.00  0.00     0.015 C 
HETATM   19  C15 UNL     1      26.762  -0.216  52.101  1.00  0.00    -0.023 C 
HETATM   20  C16 UNL     1      26.390  -0.691  53.483  1.00  0.00     0.055 C 
HETATM   21  C17 UNL     1      26.743   0.373  54.489  1.00  0.00    -0.006 C 
HETATM   22  C18 UNL     1      26.455   1.669  54.286  1.00  0.00     0.081 C 
HETATM   23  N2  UNL     1      25.820   2.418  53.241  1.00  0.00    -0.375 N 
HETATM   24  H19 UNL     1      25.963   3.440  53.458  1.00  0.00     0.161 HD
ENDBRANCH   1  17
TORSDOF 4
ENDMDL
MODEL 6
REMARK VINA RESULT:      -7.2      3.195      5.929
REMARK  4 active torsions:
REMARK  status: ('A' for Active; 'I' for Inactive)
REMARK    1  A    between atoms: C4_4  and  O1_5 
REMARK    2  A    between atoms: C7_8  and  N1_9 
REMARK    3  A    between atoms: N1_9  and  C8_10 
REMARK    4  A    between atoms: N1_9  and  C13_16 
ROOT
HETATM    1  N1  UNL     1      24.587   0.986  52.299  1.00  0.00    -0.344 N 
ENDROOT
BRANCH   1   2
HETATM    2  C7  UNL     1      25.873   0.570  52.742  1.00  0.00     0.039 A 
HETATM    3  C2  UNL     1      26.794   1.171  53.545  1.00  0.00    -0.033 A 
HETATM    4  C1  UNL     1      26.447   2.508  54.040  1.00  0.00     0.050 C 
HETATM    5  C3  UNL     1      27.985   0.563  53.865  1.00  0.00     0.045 A 
HETATM    6  C4  UNL     1      28.330  -0.672  53.408  1.00  0.00     0.066 A 
HETATM    7  C5  UNL     1      27.425  -1.314  52.593  1.00  0.00     0.039 A 
HETATM    8  C6  UNL     1      26.232  -0.702  52.273  1.00  0.00     0.033 A 
BRANCH   6   9
HETATM    9  O1  UNL     1      29.559  -1.187  53.797  1.00  0.00    -0.361 OA
HETATM   10  H5  UNL     1      29.643  -1.963  54.444  1.00  0.00     0.217 HD
ENDBRANCH   6   9
ENDBRANCH   1   2
BRANCH   1  11
HETATM   11  C8  UNL     1      24.393   1.830  51.148  1.00  0.00     0.134 A 
HETATM   12  C9  UNL     1      23.953   3.200  51.503  1.00  0.00     0.004 A 
HETATM   13  C10 UNL     1      24.751   4.100  50.913  1.00  0.00     0.017 A 
HETATM   14  C11 UNL     1      25.767   3.360  50.134  1.00  0.00     0.009 A 
HETATM   15 BR1  UNL     1      26.978   4.563  49.237  1.00  0.00    -0.051 Br
HETATM   16  C12 UNL     1      25.541   2.042  50.282  1.00  0.00     0.021 A 
ENDBRANCH   1  11
BRANCH   1  17
HETATM   17  C13 UNL     1      23.443   0.532  53.060  1.00  0.00     0.208 C 
HETATM   18  C14 UNL     1      22.274   0.206  52.188  1.00  0.00     0.015 C 
HETATM   19  C15 UNL     1      21.049   0.121  52.703  1.00  0.00    -0.023 C 
HETATM   20  C16 UNL     1      20.722   0.334  54.160  1.00  0.00     0.055 C 
HETATM   21  C17 UNL     1      21.412  -0.720  54.986  1.00  0.00    -0.006 C 
HETATM   22  C18 UNL     1      22.696  -1.057  54.782  1.00  0.00     0.081 C 
HETATM   23  N2  UNL     1      23.727  -0.637  53.878  1.00  0.00    -0.375 N 
HETATM   24  H19 UNL     1      24.535  -1.305  53.993  1.00  0.00     0.161 HD
ENDBRANCH   1  17
TORSDOF 4
ENDMDL
MODEL 7
REMARK VINA RESULT:      -7.1      2.678      5.104
REMARK  4 active torsions:
REMARK  status: ('A' for Active; 'I' for Inactive)
REMARK    1  A    between atoms: C4_4  and  O1_5 
REMARK    2  A    between atoms: C7_8  and  N1_9 
REMARK    3  A    between atoms: N1_9  and  C8_10 
REMARK    4  A    between atoms: N1_9  and  C13_16 
ROOT
HETATM    1  N1  UNL     1      25.094  -0.008  52.995  1.00  0.00    -0.344 N 
ENDROOT
BRANCH   1   2
HETATM    2  C7  UNL     1      26.453  -0.344  53.254  1.00  0.00     0.039 A 
HETATM    3  C2  UNL     1      27.254  -1.327  52.757  1.00  0.00    -0.033 A 
HETATM    4  C1  UNL     1      26.632  -2.247  51.798  1.00  0.00     0.050 C 
HETATM    5  C3  UNL     1      28.568  -1.454  53.140  1.00  0.00     0.045 A 
HETATM    6  C4  UNL     1      29.161  -0.616  54.035  1.00  0.00     0.066 A 
HETATM    7  C5  UNL     1      28.384   0.391  54.562  1.00  0.00     0.039 A 
HETATM    8  C6  UNL     1      27.066   0.516  54.176  1.00  0.00     0.033 A 
BRANCH   6   9
HETATM    9  O1  UNL     1      30.495  -0.841  54.347  1.00  0.00    -0.361 OA
HETATM   10  H5  UNL     1      30.965  -1.712  54.128  1.00  0.00     0.217 HD
ENDBRANCH   6   9
ENDBRANCH   1   2
BRANCH   1  11
HETATM   11  C8  UNL     1      23.996  -0.871  53.344  1.00  0.00     0.134 A 
HETATM   12  C9  UNL     1      23.638  -0.798  54.780  1.00  0.00     0.004 A 
HETATM   13  C10 UNL     1      22.326  -0.562  54.910  1.00  0.00     0.017 A 
HETATM   14  C11 UNL     1      21.748  -0.466  53.552  1.00  0.00     0.009 A 
HETATM   15 BR1  UNL     1      19.852  -0.125  53.617  1.00  0.00    -0.051 Br
HETATM   16  C12 UNL     1      22.735  -0.649  52.656  1.00  0.00     0.021 A 
ENDBRANCH   1  11
BRANCH   1  17
HETATM   17  C13 UNL     1      24.837   1.260  52.347  1.00  0.00     0.208 C 
HETATM   18  C14 UNL     1      24.545   2.349  53.326  1.00  0.00     0.015 C 
HETATM   19  C15 UNL     1      23.945   3.471  52.932  1.00  0.00    -0.023 C 
HETATM   20  C16 UNL     1      23.513   3.752  51.515  1.00  0.00     0.055 C 
HETATM   21  C17 UNL     1      24.725   3.793  50.622  1.00  0.00    -0.006 C 
HETATM   22  C18 UNL     1      25.698   2.870  50.699  1.00  0.00     0.081 C 
HETATM   23  N2  UNL     1      25.933   1.704  51.501  1.00  0.00    -0.375 N 
HETATM   24  H19 UNL     1      26.919   1.384  51.305  1.00  0.00     0.161 HD
ENDBRANCH   1  17
TORSDOF 4
ENDMDL
MODEL 8
REMARK VINA RESULT:      -7.1      3.474      6.142
REMARK  4 active torsions:
REMARK  status: ('A' for Active; 'I' for Inactive)
REMARK    1  A    between atoms: C4_4  and  O1_5 
REMARK    2  A    between atoms: C7_8  and  N1_9 
REMARK    3  A    between atoms: N1_9  and  C8_10 
REMARK    4  A    between atoms: N1_9  and  C13_16 
ROOT
HETATM    1  N1  UNL     1      23.581   1.945  51.584  1.00  0.00    -0.344 N 
ENDROOT
BRANCH   1   2
HETATM    2  C7  UNL     1      22.744   1.156  52.422  1.00  0.00     0.039 A 
HETATM    3  C2  UNL     1      21.561   1.430  53.039  1.00  0.00    -0.033 A 
HETATM    4  C1  UNL     1      21.034   2.787  52.855  1.00  0.00     0.050 C 
HETATM    5  C3  UNL     1      20.905   0.491  53.798  1.00  0.00     0.045 A 
HETATM    6  C4  UNL     1      21.382  -0.770  53.988  1.00  0.00     0.066 A 
HETATM    7  C5  UNL     1      22.577  -1.087  53.382  1.00  0.00     0.039 A 
HETATM    8  C6  UNL     1      23.233  -0.143  52.621  1.00  0.00     0.033 A 
BRANCH   6   9
HETATM    9  O1  UNL     1      20.633  -1.635  54.776  1.00  0.00    -0.361 OA
HETATM   10  H5  UNL     1      20.538  -2.621  54.561  1.00  0.00     0.217 HD
ENDBRANCH   6   9
ENDBRANCH   1   2
BRANCH   1  11
HETATM   11  C8  UNL     1      24.850   2.469  52.019  1.00  0.00     0.134 A 
HETATM   12  C9  UNL     1      24.920   2.669  53.485  1.00  0.00     0.004 A 
HETATM   13  C10 UNL     1      26.013   2.068  53.973  1.00  0.00     0.017 A 
HETATM   14  C11 UNL     1      26.723   1.433  52.842  1.00  0.00     0.009 A 
HETATM   15 BR1  UNL     1      28.322   0.531  53.432  1.00  0.00    -0.051 Br
HETATM   16  C12 UNL     1      26.032   1.679  51.714  1.00  0.00     0.021 A 
ENDBRANCH   1  11
BRANCH   1  17
HETATM   17  C13 UNL     1      23.108   2.221  50.245  1.00  0.00     0.208 C 
HETATM   18  C14 UNL     1      21.969   1.338  49.851  1.00  0.00     0.015 C 
HETATM   19  C15 UNL     1      21.638   1.190  48.570  1.00  0.00    -0.023 C 
HETATM   20  C16 UNL     1      22.346   1.869  47.425  1.00  0.00     0.055 C 
HETATM   21  C17 UNL     1      22.185   3.362  47.552  1.00  0.00    -0.006 C 
HETATM   22  C18 UNL     1      22.352   3.999  48.722  1.00  0.00     0.081 C 
HETATM   23  N2  UNL     1      22.685   3.600  50.059  1.00  0.00    -0.375 N 
HETATM   24  H19 UNL     1      22.546   4.442  50.680  1.00  0.00     0.161 HD
ENDBRANCH   1  17
TORSDOF 4
ENDMDL
MODEL 9
REMARK VINA RESULT:      -7.1      2.580      5.211
REMARK  4 active torsions:
REMARK  status: ('A' for Active; 'I' for Inactive)
REMARK    1  A    between atoms: C4_4  and  O1_5 
REMARK    2  A    between atoms: C7_8  and  N1_9 
REMARK    3  A    between atoms: N1_9  and  C8_10 
REMARK    4  A    between atoms: N1_9  and  C13_16 
ROOT
HETATM    1  N1  UNL     1      23.833   2.033  52.238  1.00  0.00    -0.344 N 
ENDROOT
BRANCH   1   2
HETATM    2  C7  UNL     1      24.122   3.174  51.437  1.00  0.00     0.039 A 
HETATM    3  C2  UNL     1      23.824   4.493  51.597  1.00  0.00    -0.033 A 
HETATM    4  C1  UNL     1      23.036   4.839  52.785  1.00  0.00     0.050 C 
HETATM    5  C3  UNL     1      24.231   5.443  50.691  1.00  0.00     0.045 A 
HETATM    6  C4  UNL     1      24.955   5.140  49.578  1.00  0.00     0.066 A 
HETATM    7  C5  UNL     1      25.277   3.816  49.380  1.00  0.00     0.039 A 
HETATM    8  C6  UNL     1      24.867   2.865  50.290  1.00  0.00     0.033 A 
BRANCH   6   9
HETATM    9  O1  UNL     1      25.311   6.183  48.733  1.00  0.00    -0.361 OA
HETATM   10  H5  UNL     1      25.500   6.043  47.747  1.00  0.00     0.217 HD
ENDBRANCH   6   9
ENDBRANCH   1   2
BRANCH   1  11
HETATM   11  C8  UNL     1      24.819   1.392  53.069  1.00  0.00     0.134 A 
HETATM   12  C9  UNL     1      25.644   0.407  52.330  1.00  0.00     0.004 A 
HETATM   13  C10 UNL     1      26.944   0.663  52.530  1.00  0.00     0.017 A 
HETATM   14  C11 UNL     1      27.041   1.842  53.417  1.00  0.00     0.009 A 
HETATM   15 BR1  UNL     1      28.879   2.304  53.774  1.00  0.00    -0.051 Br
HETATM   16  C12 UNL     1      25.795   2.250  53.720  1.00  0.00     0.021 A 
ENDBRANCH   1  11
BRANCH   1  17
HETATM   17  C13 UNL     1      22.483   1.515  52.191  1.00  0.00     0.208 C 
HETATM   18  C14 UNL     1      22.170   0.866  50.883  1.00  0.00     0.015 C 
HETATM   19  C15 UNL     1      20.907   0.655  50.517  1.00  0.00    -0.023 C 
HETATM   20  C16 UNL     1      19.706   1.031  51.349  1.00  0.00     0.055 C 
HETATM   21  C17 UNL     1      19.726   0.249  52.637  1.00  0.00    -0.006 C 
HETATM   22  C18 UNL     1      20.844   0.107  53.367  1.00  0.00     0.081 C 
HETATM   23  N2  UNL     1      22.203   0.551  53.244  1.00  0.00    -0.375 N 
HETATM   24  H19 UNL     1      22.762   0.056  53.988  1.00  0.00     0.161 HD
ENDBRANCH   1  17
TORSDOF 4
ENDMDL
