MODEL 1
REMARK VINA RESULT:      -8.2      0.000      0.000
REMARK  4 active torsions:
REMARK  status: ('A' for Active; 'I' for Inactive)
REMARK    1  A    between atoms: O1_2  and  C2_3 
REMARK    2  A    between atoms: C6_9  and  N3_10 
REMARK    3  A    between atoms: N3_10  and  C7_11 
REMARK    4  A    between atoms: C17_23  and  O2_24 
ROOT
HETATM    1  C2  UNL     1      20.675   0.261  52.083  1.00  0.00     0.103 A 
HETATM    2  C3  UNL     1      20.977   0.857  50.877  1.00  0.00     0.072 A 
HETATM    3  C4  UNL     1      22.145   1.559  50.697  1.00  0.00     0.075 A 
HETATM    4  N1  UNL     1      22.439   2.141  49.525  1.00  0.00    -0.241 NA
HETATM    5  C5  UNL     1      23.599   2.839  49.348  1.00  0.00     0.236 A 
HETATM    6  N2  UNL     1      24.498   2.975  50.337  1.00  0.00    -0.223 NA
HETATM    7  C6  UNL     1      24.238   2.405  51.526  1.00  0.00     0.143 A 
HETATM    8  C15 UNL     1      23.059   1.687  51.726  1.00  0.00     0.042 A 
HETATM    9  C16 UNL     1      22.733   1.082  52.919  1.00  0.00     0.057 A 
HETATM   10  C17 UNL     1      21.572   0.377  53.123  1.00  0.00     0.102 A 
ENDROOT
BRANCH   7  11
HETATM   11  N3  UNL     1      25.068   2.453  52.657  1.00  0.00    -0.324 N 
HETATM   12  H6  UNL     1      24.941   2.968  53.547  1.00  0.00     0.169 HD
BRANCH  11  13
HETATM   13  C7  UNL     1      26.242   1.680  52.541  1.00  0.00     0.144 C 
HETATM   14  C8  UNL     1      27.401   2.150  52.984  1.00  0.00     0.124 C 
HETATM   15  N4  UNL     1      28.751   2.380  53.356  1.00  0.00    -0.411 NA
HETATM   16  C9  UNL     1      29.400   1.639  54.222  1.00  0.00     0.324 C 
HETATM   17  C10 UNL     1      28.531   0.585  54.714  1.00  0.00     0.003 C 
HETATM   18  C11 UNL     1      27.354   0.145  54.597  1.00  0.00    -0.001 C 
HETATM   19  C12 UNL     1      26.034  -0.043  54.226  1.00  0.00     0.014 C 
HETATM   20  C13 UNL     1      25.787  -0.793  53.161  1.00  0.00     0.008 C 
HETATM   21  C14 UNL     1      26.663  -0.622  52.212  1.00  0.00     0.100 C 
HETATM   22  N5  UNL     1      27.095   0.593  52.214  1.00  0.00    -0.227 NA
ENDBRANCH  11  13
ENDBRANCH   7  11
BRANCH  10  23
HETATM   23  O2  UNL     1      21.242  -0.233  54.324  1.00  0.00    -0.353 OA
HETATM   24  C18 UNL     1      22.019  -1.227  54.961  1.00  0.00     0.210 C 
ENDBRANCH  10  23
BRANCH   1  25
HETATM   25  O1  UNL     1      19.503  -0.444  52.267  1.00  0.00    -0.353 OA
HETATM   26  C1  UNL     1      18.299  -0.140  51.610  1.00  0.00     0.210 C 
ENDBRANCH   1  25
TORSDOF 4
ENDMDL
MODEL 2
REMARK VINA RESULT:      -8.0      3.128      6.032
REMARK  4 active torsions:
REMARK  status: ('A' for Active; 'I' for Inactive)
REMARK    1  A    between atoms: O1_2  and  C2_3 
REMARK    2  A    between atoms: C6_9  and  N3_10 
REMARK    3  A    between atoms: N3_10  and  C7_11 
REMARK    4  A    between atoms: C17_23  and  O2_24 
ROOT
HETATM    1  C2  UNL     1      26.616   0.078  53.930  1.00  0.00     0.103 A 
HETATM    2  C3  UNL     1      25.398  -0.401  53.494  1.00  0.00     0.072 A 
HETATM    3  C4  UNL     1      24.402   0.448  53.075  1.00  0.00     0.075 A 
HETATM    4  N1  UNL     1      23.217  -0.017  52.653  1.00  0.00    -0.241 NA
HETATM    5  C5  UNL     1      22.228   0.828  52.239  1.00  0.00     0.236 A 
HETATM    6  N2  UNL     1      22.395   2.161  52.236  1.00  0.00    -0.223 NA
HETATM    7  C6  UNL     1      23.569   2.664  52.652  1.00  0.00     0.143 A 
HETATM    8  C15 UNL     1      24.592   1.818  53.078  1.00  0.00     0.042 A 
HETATM    9  C16 UNL     1      25.816   2.269  53.518  1.00  0.00     0.057 A 
HETATM   10  C17 UNL     1      26.827   1.440  53.941  1.00  0.00     0.102 A 
ENDROOT
BRANCH   7  11
HETATM   11  N3  UNL     1      23.903   4.027  52.712  1.00  0.00    -0.324 N 
HETATM   12  H6  UNL     1      24.260   4.584  53.509  1.00  0.00     0.169 HD
BRANCH  11  13
HETATM   13  C7  UNL     1      23.715   4.717  51.496  1.00  0.00     0.144 C 
HETATM   14  C8  UNL     1      23.888   6.031  51.437  1.00  0.00     0.124 C 
HETATM   15  N4  UNL     1      23.998   7.398  51.075  1.00  0.00    -0.411 NA
HETATM   16  C9  UNL     1      24.848   7.846  50.182  1.00  0.00     0.324 C 
HETATM   17  C10 UNL     1      25.627   6.741  49.651  1.00  0.00     0.003 C 
HETATM   18  C11 UNL     1      25.770   5.493  49.766  1.00  0.00    -0.001 C 
HETATM   19  C12 UNL     1      25.651   4.169  50.152  1.00  0.00     0.014 C 
HETATM   20  C13 UNL     1      24.764   3.413  49.520  1.00  0.00     0.008 C 
HETATM   21  C14 UNL     1      23.671   4.058  49.227  1.00  0.00     0.100 C 
HETATM   22  N5  UNL     1      23.421   4.948  50.126  1.00  0.00    -0.227 NA
ENDBRANCH  11  13
ENDBRANCH   7  11
BRANCH  10  23
HETATM   23  O2  UNL     1      28.060   1.893  54.384  1.00  0.00    -0.353 OA
HETATM   24  C18 UNL     1      29.009   2.561  53.577  1.00  0.00     0.210 C 
ENDBRANCH  10  23
BRANCH   1  25
HETATM   25  O1  UNL     1      27.618  -0.772  54.350  1.00  0.00    -0.353 OA
HETATM   26  C1  UNL     1      28.621  -1.274  53.505  1.00  0.00     0.210 C 
ENDBRANCH   1  25
TORSDOF 4
ENDMDL
MODEL 3
REMARK VINA RESULT:      -7.7      2.508      6.401
REMARK  4 active torsions:
REMARK  status: ('A' for Active; 'I' for Inactive)
REMARK    1  A    between atoms: O1_2  and  C2_3 
REMARK    2  A    between atoms: C6_9  and  N3_10 
REMARK    3  A    between atoms: N3_10  and  C7_11 
REMARK    4  A    between atoms: C17_23  and  O2_24 
ROOT
HETATM    1  C2  UNL     1      26.458   1.212  53.843  1.00  0.00     0.103 A 
HETATM    2  C3  UNL     1      26.219   2.236  52.950  1.00  0.00     0.072 A 
HETATM    3  C4  UNL     1      25.102   2.241  52.148  1.00  0.00     0.075 A 
HETATM    4  N1  UNL     1      24.870   3.235  51.278  1.00  0.00    -0.241 NA
HETATM    5  C5  UNL     1      23.761   3.238  50.482  1.00  0.00     0.236 A 
HETATM    6  N2  UNL     1      22.854   2.249  50.532  1.00  0.00    -0.223 NA
HETATM    7  C6  UNL     1      23.053   1.235  51.392  1.00  0.00     0.143 A 
HETATM    8  C15 UNL     1      24.179   1.214  52.214  1.00  0.00     0.042 A 
HETATM    9  C16 UNL     1      24.442   0.206  53.114  1.00  0.00     0.057 A 
HETATM   10  C17 UNL     1      25.550   0.178  53.924  1.00  0.00     0.102 A 
ENDROOT
BRANCH   7  11
HETATM   11  N3  UNL     1      22.206   0.129  51.566  1.00  0.00    -0.324 N 
HETATM   12  H6  UNL     1      22.296  -0.834  51.197  1.00  0.00     0.169 HD
BRANCH  11  13
HETATM   13  C7  UNL     1      21.073   0.394  52.363  1.00  0.00     0.144 C 
HETATM   14  C8  UNL     1      19.853   0.201  51.879  1.00  0.00     0.124 C 
HETATM   15  N4  UNL     1      18.458   0.093  51.642  1.00  0.00    -0.411 NA
HETATM   16  C9  UNL     1      17.666  -0.697  52.327  1.00  0.00     0.324 C 
HETATM   17  C10 UNL     1      18.435  -1.413  53.329  1.00  0.00     0.003 C 
HETATM   18  C11 UNL     1      19.615  -1.541  53.759  1.00  0.00    -0.001 C 
HETATM   19  C12 UNL     1      20.980  -1.426  53.955  1.00  0.00     0.014 C 
HETATM   20  C13 UNL     1      21.414  -0.480  54.777  1.00  0.00     0.008 C 
HETATM   21  C14 UNL     1      20.721   0.619  54.688  1.00  0.00     0.100 C 
HETATM   22  N5  UNL     1      20.294   0.785  53.484  1.00  0.00    -0.227 NA
ENDBRANCH  11  13
ENDBRANCH   7  11
BRANCH  10  23
HETATM   23  O2  UNL     1      25.817  -0.837  54.831  1.00  0.00    -0.353 OA
HETATM   24  C18 UNL     1      25.037  -1.119  55.976  1.00  0.00     0.210 C 
ENDBRANCH  10  23
BRANCH   1  25
HETATM   25  O1  UNL     1      27.578   1.204  54.648  1.00  0.00    -0.353 OA
HETATM   26  C1  UNL     1      28.869   0.896  54.187  1.00  0.00     0.210 C 
ENDBRANCH   1  25
TORSDOF 4
ENDMDL
MODEL 4
REMARK VINA RESULT:      -7.5      2.341      3.723
REMARK  4 active torsions:
REMARK  status: ('A' for Active; 'I' for Inactive)
REMARK    1  A    between atoms: O1_2  and  C2_3 
REMARK    2  A    between atoms: C6_9  and  N3_10 
REMARK    3  A    between atoms: N3_10  and  C7_11 
REMARK    4  A    between atoms: C17_23  and  O2_24 
ROOT
HETATM    1  C2  UNL     1      20.871   2.030  51.136  1.00  0.00     0.103 A 
HETATM    2  C3  UNL     1      20.371   1.454  52.286  1.00  0.00     0.072 A 
HETATM    3  C4  UNL     1      21.157   0.665  53.092  1.00  0.00     0.075 A 
HETATM    4  N1  UNL     1      20.671   0.103  54.208  1.00  0.00    -0.241 NA
HETATM    5  C5  UNL     1      21.453  -0.682  55.007  1.00  0.00     0.236 A 
HETATM    6  N2  UNL     1      22.740  -0.927  54.713  1.00  0.00    -0.223 NA
HETATM    7  C6  UNL     1      23.262  -0.381  53.601  1.00  0.00     0.143 A 
HETATM    8  C15 UNL     1      22.480   0.424  52.772  1.00  0.00     0.042 A 
HETATM    9  C16 UNL     1      22.953   1.011  51.620  1.00  0.00     0.057 A 
HETATM   10  C17 UNL     1      22.188   1.802  50.799  1.00  0.00     0.102 A 
ENDROOT
BRANCH   7  11
HETATM   11  N3  UNL     1      24.583  -0.539  53.152  1.00  0.00    -0.324 N 
HETATM   12  H6  UNL     1      24.961  -1.176  52.428  1.00  0.00     0.169 HD
BRANCH  11  13
HETATM   13  C7  UNL     1      25.512   0.304  53.796  1.00  0.00     0.144 C 
HETATM   14  C8  UNL     1      26.602  -0.205  54.355  1.00  0.00     0.124 C 
HETATM   15  N4  UNL     1      27.829  -0.452  55.026  1.00  0.00    -0.411 NA
HETATM   16  C9  UNL     1      28.980   0.041  54.636  1.00  0.00     0.324 C 
HETATM   17  C10 UNL     1      28.789   0.850  53.446  1.00  0.00     0.003 C 
HETATM   18  C11 UNL     1      27.888   1.233  52.650  1.00  0.00    -0.001 C 
HETATM   19  C12 UNL     1      26.679   1.442  52.008  1.00  0.00     0.014 C 
HETATM   20  C13 UNL     1      25.926   2.455  52.414  1.00  0.00     0.008 C 
HETATM   21  C14 UNL     1      25.961   2.622  53.705  1.00  0.00     0.100 C 
HETATM   22  N5  UNL     1      26.111   1.488  54.301  1.00  0.00    -0.227 NA
ENDBRANCH  11  13
ENDBRANCH   7  11
BRANCH  10  23
HETATM   23  O2  UNL     1      22.663   2.394  49.638  1.00  0.00    -0.353 OA
HETATM   24  C18 UNL     1      23.780   3.257  49.574  1.00  0.00     0.210 C 
ENDBRANCH  10  23
BRANCH   1  25
HETATM   25  O1  UNL     1      20.085   2.822  50.325  1.00  0.00    -0.353 OA
HETATM   26  C1  UNL     1      18.752   3.156  50.617  1.00  0.00     0.210 C 
ENDBRANCH   1  25
TORSDOF 4
ENDMDL
MODEL 5
REMARK VINA RESULT:      -7.5      3.169      5.493
REMARK  4 active torsions:
REMARK  status: ('A' for Active; 'I' for Inactive)
REMARK    1  A    between atoms: O1_2  and  C2_3 
REMARK    2  A    between atoms: C6_9  and  N3_10 
REMARK    3  A    between atoms: N3_10  and  C7_11 
REMARK    4  A    between atoms: C17_23  and  O2_24 
ROOT
HETATM    1  C2  UNL     1      24.424   0.571  53.484  1.00  0.00     0.103 A 
HETATM    2  C3  UNL     1      23.102   0.774  53.146  1.00  0.00     0.072 A 
HETATM    3  C4  UNL     1      22.654   1.999  52.712  1.00  0.00     0.075 A 
HETATM    4  N1  UNL     1      21.368   2.198  52.385  1.00  0.00    -0.241 NA
HETATM    5  C5  UNL     1      20.924   3.415  51.955  1.00  0.00     0.236 A 
HETATM    6  N2  UNL     1      21.751   4.468  51.840  1.00  0.00    -0.223 NA
HETATM    7  C6  UNL     1      23.047   4.306  52.158  1.00  0.00     0.143 A 
HETATM    8  C15 UNL     1      23.520   3.070  52.599  1.00  0.00     0.042 A 
HETATM    9  C16 UNL     1      24.833   2.840  52.942  1.00  0.00     0.057 A 
HETATM   10  C17 UNL     1      25.305   1.626  53.379  1.00  0.00     0.102 A 
ENDROOT
BRANCH   7  11
HETATM   11  N3  UNL     1      24.037   5.300  52.095  1.00  0.00    -0.324 N 
HETATM   12  H6  UNL     1      24.639   5.678  52.847  1.00  0.00     0.169 HD
BRANCH  11  13
HETATM   13  C7  UNL     1      24.217   5.849  50.808  1.00  0.00     0.144 C 
HETATM   14  C8  UNL     1      25.100   6.818  50.611  1.00  0.00     0.124 C 
HETATM   15  N4  UNL     1      25.948   7.838  50.105  1.00  0.00    -0.411 NA
HETATM   16  C9  UNL     1      26.861   7.631  49.186  1.00  0.00     0.324 C 
HETATM   17  C10 UNL     1      26.852   6.234  48.793  1.00  0.00     0.003 C 
HETATM   18  C11 UNL     1      26.269   5.143  49.045  1.00  0.00    -0.001 C 
HETATM   19  C12 UNL     1      25.440   4.168  49.570  1.00  0.00     0.014 C 
HETATM   20  C13 UNL     1      24.253   3.990  49.006  1.00  0.00     0.008 C 
HETATM   21  C14 UNL     1      23.705   5.108  48.624  1.00  0.00     0.100 C 
HETATM   22  N5  UNL     1      24.043   6.067  49.416  1.00  0.00    -0.227 NA
ENDBRANCH  11  13
ENDBRANCH   7  11
BRANCH  10  23
HETATM   23  O2  UNL     1      26.627   1.393  53.725  1.00  0.00    -0.353 OA
HETATM   24  C18 UNL     1      27.732   1.608  52.871  1.00  0.00     0.210 C 
ENDBRANCH  10  23
BRANCH   1  25
HETATM   25  O1  UNL     1      24.877  -0.657  53.920  1.00  0.00    -0.353 OA
HETATM   26  C1  UNL     1      24.701  -1.133  55.230  1.00  0.00     0.210 C 
ENDBRANCH   1  25
TORSDOF 4
ENDMDL
MODEL 6
REMARK VINA RESULT:      -7.4      2.261      5.892
REMARK  4 active torsions:
REMARK  status: ('A' for Active; 'I' for Inactive)
REMARK    1  A    between atoms: O1_2  and  C2_3 
REMARK    2  A    between atoms: C6_9  and  N3_10 
REMARK    3  A    between atoms: N3_10  and  C7_11 
REMARK    4  A    between atoms: C17_23  and  O2_24 
ROOT
HETATM    1  C2  UNL     1      27.004  -0.227  53.206  1.00  0.00     0.103 A 
HETATM    2  C3  UNL     1      27.379   0.623  52.187  1.00  0.00     0.072 A 
HETATM    3  C4  UNL     1      26.578   1.670  51.796  1.00  0.00     0.075 A 
HETATM    4  N1  UNL     1      26.941   2.496  50.805  1.00  0.00    -0.241 NA
HETATM    5  C5  UNL     1      26.144   3.535  50.417  1.00  0.00     0.236 A 
HETATM    6  N2  UNL     1      24.962   3.777  51.009  1.00  0.00    -0.223 NA
HETATM    7  C6  UNL     1      24.565   2.969  52.007  1.00  0.00     0.143 A 
HETATM    8  C15 UNL     1      25.365   1.903  52.418  1.00  0.00     0.042 A 
HETATM    9  C16 UNL     1      25.016   1.040  53.431  1.00  0.00     0.057 A 
HETATM   10  C17 UNL     1      25.798  -0.013  53.839  1.00  0.00     0.102 A 
ENDROOT
BRANCH   7  11
HETATM   11  N3  UNL     1      23.364   3.083  52.725  1.00  0.00    -0.324 N 
HETATM   12  H6  UNL     1      23.213   3.296  53.727  1.00  0.00     0.169 HD
BRANCH  11  13
HETATM   13  C7  UNL     1      22.208   2.869  51.946  1.00  0.00     0.144 C 
HETATM   14  C8  UNL     1      22.306   2.697  50.635  1.00  0.00     0.124 C 
HETATM   15  N4  UNL     1      22.101   2.485  49.246  1.00  0.00    -0.411 NA
HETATM   16  C9  UNL     1      21.569   1.394  48.750  1.00  0.00     0.324 C 
HETATM   17  C10 UNL     1      21.241   0.476  49.826  1.00  0.00     0.003 C 
HETATM   18  C11 UNL     1      21.304   0.368  51.082  1.00  0.00    -0.001 C 
HETATM   19  C12 UNL     1      21.532   0.597  52.428  1.00  0.00     0.014 C 
HETATM   20  C13 UNL     1      20.591   1.223  53.121  1.00  0.00     0.008 C 
HETATM   21  C14 UNL     1      20.007   2.165  52.439  1.00  0.00     0.100 C 
HETATM   22  N5  UNL     1      20.838   2.702  51.612  1.00  0.00    -0.227 NA
ENDBRANCH  11  13
ENDBRANCH   7  11
BRANCH  10  23
HETATM   23  O2  UNL     1      25.448  -0.884  54.860  1.00  0.00    -0.353 OA
HETATM   24  C18 UNL     1      24.120  -1.204  55.224  1.00  0.00     0.210 C 
ENDBRANCH  10  23
BRANCH   1  25
HETATM   25  O1  UNL     1      27.805  -1.279  53.600  1.00  0.00    -0.353 OA
HETATM   26  C1  UNL     1      29.206  -1.279  53.486  1.00  0.00     0.210 C 
ENDBRANCH   1  25
TORSDOF 4
ENDMDL
MODEL 7
REMARK VINA RESULT:      -7.4      2.378      6.373
REMARK  4 active torsions:
REMARK  status: ('A' for Active; 'I' for Inactive)
REMARK    1  A    between atoms: O1_2  and  C2_3 
REMARK    2  A    between atoms: C6_9  and  N3_10 
REMARK    3  A    between atoms: N3_10  and  C7_11 
REMARK    4  A    between atoms: C17_23  and  O2_24 
ROOT
HETATM    1  C2  UNL     1      27.205   0.008  53.604  1.00  0.00     0.103 A 
HETATM    2  C3  UNL     1      27.490   0.843  52.545  1.00  0.00     0.072 A 
HETATM    3  C4  UNL     1      26.515   1.613  51.956  1.00  0.00     0.075 A 
HETATM    4  N1  UNL     1      26.791   2.424  50.925  1.00  0.00    -0.241 NA
HETATM    5  C5  UNL     1      25.820   3.187  50.341  1.00  0.00     0.236 A 
HETATM    6  N2  UNL     1      24.548   3.161  50.771  1.00  0.00    -0.223 NA
HETATM    7  C6  UNL     1      24.234   2.359  51.803  1.00  0.00     0.143 A 
HETATM    8  C15 UNL     1      25.210   1.572  52.413  1.00  0.00     0.042 A 
HETATM    9  C16 UNL     1      24.954   0.731  53.472  1.00  0.00     0.057 A 
HETATM   10  C17 UNL     1      25.911  -0.048  54.075  1.00  0.00     0.102 A 
ENDROOT
BRANCH   7  11
HETATM   11  N3  UNL     1      22.957   2.214  52.370  1.00  0.00    -0.324 N 
HETATM   12  H6  UNL     1      22.549   2.677  53.201  1.00  0.00     0.169 HD
BRANCH  11  13
HETATM   13  C7  UNL     1      22.129   1.296  51.690  1.00  0.00     0.144 C 
HETATM   14  C8  UNL     1      21.202   0.615  52.349  1.00  0.00     0.124 C 
HETATM   15  N4  UNL     1      20.148  -0.236  52.775  1.00  0.00    -0.411 NA
HETATM   16  C9  UNL     1      18.917  -0.143  52.333  1.00  0.00     0.324 C 
HETATM   17  C10 UNL     1      18.823   0.941  51.371  1.00  0.00     0.003 C 
HETATM   18  C11 UNL     1      19.526   1.834  50.822  1.00  0.00    -0.001 C 
HETATM   19  C12 UNL     1      20.569   2.659  50.440  1.00  0.00     0.014 C 
HETATM   20  C13 UNL     1      21.331   2.270  49.427  1.00  0.00     0.008 C 
HETATM   21  C14 UNL     1      21.543   0.986  49.422  1.00  0.00     0.100 C 
HETATM   22  N5  UNL     1      21.578   0.532  50.628  1.00  0.00    -0.227 NA
ENDBRANCH  11  13
ENDBRANCH   7  11
BRANCH  10  23
HETATM   23  O2  UNL     1      25.654  -0.897  55.141  1.00  0.00    -0.353 OA
HETATM   24  C18 UNL     1      24.363  -1.267  55.582  1.00  0.00     0.210 C 
ENDBRANCH  10  23
BRANCH   1  25
HETATM   25  O1  UNL     1      28.182  -0.766  54.196  1.00  0.00    -0.353 OA
HETATM   26  C1  UNL     1      29.538  -0.724  53.832  1.00  0.00     0.210 C 
ENDBRANCH   1  25
TORSDOF 4
ENDMDL
MODEL 8
REMARK VINA RESULT:      -7.2      3.169      6.992
REMARK  4 active torsions:
REMARK  status: ('A' for Active; 'I' for Inactive)
REMARK    1  A    between atoms: O1_2  and  C2_3 
REMARK    2  A    between atoms: C6_9  and  N3_10 
REMARK    3  A    between atoms: N3_10  and  C7_11 
REMARK    4  A    between atoms: C17_23  and  O2_24 
ROOT
HETATM    1  C2  UNL     1      26.772   0.583  54.207  1.00  0.00     0.103 A 
HETATM    2  C3  UNL     1      25.974  -0.215  55.001  1.00  0.00     0.072 A 
HETATM    3  C4  UNL     1      24.669  -0.485  54.663  1.00  0.00     0.075 A 
HETATM    4  N1  UNL     1      23.893  -1.258  55.435  1.00  0.00    -0.241 NA
HETATM    5  C5  UNL     1      22.596  -1.525  55.099  1.00  0.00     0.236 A 
HETATM    6  N2  UNL     1      22.040  -1.026  53.983  1.00  0.00    -0.223 NA
HETATM    7  C6  UNL     1      22.788  -0.245  53.184  1.00  0.00     0.143 A 
HETATM    8  C15 UNL     1      24.114   0.038  53.510  1.00  0.00     0.042 A 
HETATM    9  C16 UNL     1      24.933   0.830  52.736  1.00  0.00     0.057 A 
HETATM   10  C17 UNL     1      26.238   1.114  53.053  1.00  0.00     0.102 A 
ENDROOT
BRANCH   7  11
HETATM   11  N3  UNL     1      22.361   0.353  51.988  1.00  0.00    -0.324 N 
HETATM   12  H6  UNL     1      22.720   0.231  51.025  1.00  0.00     0.169 HD
BRANCH  11  13
HETATM   13  C7  UNL     1      21.283   1.250  52.149  1.00  0.00     0.144 C 
HETATM   14  C8  UNL     1      21.485   2.559  52.081  1.00  0.00     0.124 C 
HETATM   15  N4  UNL     1      21.394   3.975  52.059  1.00  0.00    -0.411 NA
HETATM   16  C9  UNL     1      20.673   4.642  51.190  1.00  0.00     0.324 C 
HETATM   17  C10 UNL     1      20.012   3.715  50.289  1.00  0.00     0.003 C 
HETATM   18  C11 UNL     1      19.904   2.481  50.051  1.00  0.00    -0.001 C 
HETATM   19  C12 UNL     1      20.026   1.102  50.088  1.00  0.00     0.014 C 
HETATM   20  C13 UNL     1      19.192   0.424  50.864  1.00  0.00     0.008 C 
HETATM   21  C14 UNL     1      18.936   1.037  51.984  1.00  0.00     0.100 C 
HETATM   22  N5  UNL     1      19.961   1.719  52.367  1.00  0.00    -0.227 NA
ENDBRANCH  11  13
ENDBRANCH   7  11
BRANCH  10  23
HETATM   23  O2  UNL     1      27.064   1.912  52.274  1.00  0.00    -0.353 OA
HETATM   24  C18 UNL     1      26.633   2.675  51.166  1.00  0.00     0.210 C 
ENDBRANCH  10  23
BRANCH   1  25
HETATM   25  O1  UNL     1      28.082   0.856  54.544  1.00  0.00    -0.353 OA
HETATM   26  C1  UNL     1      29.151  -0.020  54.292  1.00  0.00     0.210 C 
ENDBRANCH   1  25
TORSDOF 4
ENDMDL
MODEL 9
REMARK VINA RESULT:      -7.2      3.137      6.551
REMARK  4 active torsions:
REMARK  status: ('A' for Active; 'I' for Inactive)
REMARK    1  A    between atoms: O1_2  and  C2_3 
REMARK    2  A    between atoms: C6_9  and  N3_10 
REMARK    3  A    between atoms: N3_10  and  C7_11 
REMARK    4  A    between atoms: C17_23  and  O2_24 
ROOT
HETATM    1  C2  UNL     1      26.928  -0.064  53.636  1.00  0.00     0.103 A 
HETATM    2  C3  UNL     1      25.697  -0.669  53.781  1.00  0.00     0.072 A 
HETATM    3  C4  UNL     1      24.578  -0.177  53.151  1.00  0.00     0.075 A 
HETATM    4  N1  UNL     1      23.381  -0.763  53.293  1.00  0.00    -0.241 NA
HETATM    5  C5  UNL     1      22.270  -0.272  52.668  1.00  0.00     0.236 A 
HETATM    6  N2  UNL     1      22.325   0.817  51.885  1.00  0.00    -0.223 NA
HETATM    7  C6  UNL     1      23.509   1.432  51.719  1.00  0.00     0.143 A 
HETATM    8  C15 UNL     1      24.655   0.946  52.348  1.00  0.00     0.042 A 
HETATM    9  C16 UNL     1      25.896   1.529  52.221  1.00  0.00     0.057 A 
HETATM   10  C17 UNL     1      27.027   1.056  52.840  1.00  0.00     0.102 A 
ENDROOT
BRANCH   7  11
HETATM   11  N3  UNL     1      23.737   2.576  50.938  1.00  0.00    -0.324 N 
HETATM   12  H6  UNL     1      24.339   2.696  50.104  1.00  0.00     0.169 HD
BRANCH  11  13
HETATM   13  C7  UNL     1      23.033   3.718  51.375  1.00  0.00     0.144 C 
HETATM   14  C8  UNL     1      23.622   4.906  51.383  1.00  0.00     0.124 C 
HETATM   15  N4  UNL     1      23.977   6.275  51.501  1.00  0.00    -0.411 NA
HETATM   16  C9  UNL     1      23.378   7.239  50.843  1.00  0.00     0.324 C 
HETATM   17  C10 UNL     1      22.331   6.682  50.005  1.00  0.00     0.003 C 
HETATM   18  C11 UNL     1      21.806   5.580  49.687  1.00  0.00    -0.001 C 
HETATM   19  C12 UNL     1      21.494   4.235  49.581  1.00  0.00     0.014 C 
HETATM   20  C13 UNL     1      20.618   3.730  50.439  1.00  0.00     0.008 C 
HETATM   21  C14 UNL     1      20.741   4.229  51.635  1.00  0.00     0.100 C 
HETATM   22  N5  UNL     1      21.974   4.519  51.876  1.00  0.00    -0.227 NA
ENDBRANCH  11  13
ENDBRANCH   7  11
BRANCH  10  23
HETATM   23  O2  UNL     1      28.277   1.643  52.712  1.00  0.00    -0.353 OA
HETATM   24  C18 UNL     1      28.857   2.516  53.660  1.00  0.00     0.210 C 
ENDBRANCH  10  23
BRANCH   1  25
HETATM   25  O1  UNL     1      28.052  -0.556  54.267  1.00  0.00    -0.353 OA
HETATM   26  C1  UNL     1      29.052  -1.297  53.614  1.00  0.00     0.210 C 
ENDBRANCH   1  25
TORSDOF 4
ENDMDL
