MODEL 1
REMARK VINA RESULT:      -8.4      0.000      0.000
REMARK  3 active torsions:
REMARK  status: ('A' for Active; 'I' for Inactive)
REMARK    1  A    between atoms: N1_2  and  C2_3 
REMARK    2  A    between atoms: C16_19  and  N4_21 
REMARK    3  A    between atoms: C19_24  and  O1_25 
ROOT
HETATM    1  C2  UNL     1      25.196   2.872  51.151  1.00  0.00     0.250 C 
HETATM    2  C3  UNL     1      24.434   3.969  51.773  1.00  0.00     0.058 C 
HETATM    3  C4  UNL     1      22.981   4.103  51.665  1.00  0.00     0.125 C 
HETATM    4  N2  UNL     1      22.145   3.079  52.313  1.00  0.00    -0.376 N 
HETATM    5  C5  UNL     1      20.747   2.894  52.733  1.00  0.00     0.164 C 
HETATM    6  C6  UNL     1      20.416   1.522  52.182  1.00  0.00    -0.009 C 
HETATM    7  C7  UNL     1      19.398   0.986  51.538  1.00  0.00     0.017 A 
HETATM    8  C8  UNL     1      18.029   1.194  50.934  1.00  0.00     0.121 A 
HETATM    9  C9  UNL     1      17.358   0.034  50.361  1.00  0.00     0.122 A 
HETATM   10  N3  UNL     1      18.716  -0.032  50.922  1.00  0.00    -0.272 NA
HETATM   11  C10 UNL     1      21.646   0.813  52.599  1.00  0.00    -0.000 A 
HETATM   12  C11 UNL     1      21.938  -0.537  52.833  1.00  0.00     0.015 A 
HETATM   13  C12 UNL     1      23.241  -0.939  53.143  1.00  0.00     0.010 A 
HETATM   14  C13 UNL     1      24.284  -0.038  53.232  1.00  0.00    -0.032 A 
HETATM   15  C14 UNL     1      23.704   1.126  52.972  1.00  0.00     0.039 A 
HETATM   16  C15 UNL     1      22.607   1.819  52.659  1.00  0.00     0.042 A 
HETATM   17  C16 UNL     1      25.689   0.177  53.370  1.00  0.00     0.051 C 
HETATM   18  C17 UNL     1      26.003   0.704  54.767  1.00  0.00     0.038 C 
HETATM   19  C18 UNL     1      26.447   0.937  52.318  1.00  0.00     0.065 C 
HETATM   20  C19 UNL     1      26.282   2.301  51.970  1.00  0.00     0.153 C 
ENDROOT
BRANCH   1  21
HETATM   21  N1  UNL     1      25.479   2.961  49.717  1.00  0.00     0.086 NA
HETATM   22  C1  UNL     1      25.661   4.345  49.313  1.00  0.00     0.307 C 
HETATM   23  H4  UNL     1      24.713   2.501  49.176  1.00  0.00     0.315 HD
ENDBRANCH   1  21
BRANCH  17  24
HETATM   24  N4  UNL     1      26.339  -1.156  53.358  1.00  0.00    -0.224 NA
HETATM   25 CL1  UNL     1      28.034  -0.820  53.026  1.00  0.00    -0.023 Cl
HETATM   26  H21 UNL     1      26.274  -1.601  54.318  1.00  0.00     0.142 HD
ENDBRANCH  17  24
BRANCH  20  27
HETATM   27  O1  UNL     1      27.506   2.942  51.628  1.00  0.00    -0.393 OA
HETATM   28  H25 UNL     1      27.492   3.131  50.667  1.00  0.00     0.210 HD
ENDBRANCH  20  27
TORSDOF 3
ENDMDL
MODEL 2
REMARK VINA RESULT:      -8.0      3.032      6.271
REMARK  3 active torsions:
REMARK  status: ('A' for Active; 'I' for Inactive)
REMARK    1  A    between atoms: N1_2  and  C2_3 
REMARK    2  A    between atoms: C16_19  and  N4_21 
REMARK    3  A    between atoms: C19_24  and  O1_25 
ROOT
HETATM    1  C2  UNL     1      22.210   4.576  51.170  1.00  0.00     0.250 C 
HETATM    2  C3  UNL     1      23.118   4.574  50.008  1.00  0.00     0.058 C 
HETATM    3  C4  UNL     1      24.571   4.449  50.122  1.00  0.00     0.125 C 
HETATM    4  N2  UNL     1      25.116   3.176  50.622  1.00  0.00    -0.376 N 
HETATM    5  C5  UNL     1      26.401   2.459  50.659  1.00  0.00     0.164 C 
HETATM    6  C6  UNL     1      26.496   2.029  52.109  1.00  0.00    -0.009 C 
HETATM    7  C7  UNL     1      27.440   2.023  53.030  1.00  0.00     0.017 A 
HETATM    8  C8  UNL     1      28.873   2.349  53.378  1.00  0.00     0.121 A 
HETATM    9  C9  UNL     1      29.345   1.991  54.710  1.00  0.00     0.122 A 
HETATM   10  N3  UNL     1      27.955   1.780  54.277  1.00  0.00    -0.272 NA
HETATM   11  C10 UNL     1      25.114   1.532  52.284  1.00  0.00    -0.000 A 
HETATM   12  C11 UNL     1      24.533   0.618  53.172  1.00  0.00     0.015 A 
HETATM   13  C12 UNL     1      23.152   0.398  53.164  1.00  0.00     0.010 A 
HETATM   14  C13 UNL     1      22.310   1.059  52.291  1.00  0.00    -0.032 A 
HETATM   15  C14 UNL     1      23.136   1.828  51.594  1.00  0.00     0.039 A 
HETATM   16  C15 UNL     1      24.376   2.261  51.354  1.00  0.00     0.042 A 
HETATM   17  C16 UNL     1      20.971   1.355  51.889  1.00  0.00     0.051 C 
HETATM   18  C17 UNL     1      20.640   0.622  50.592  1.00  0.00     0.038 C 
HETATM   19  C18 UNL     1      20.487   2.777  51.850  1.00  0.00     0.065 C 
HETATM   20  C19 UNL     1      20.959   3.814  51.006  1.00  0.00     0.153 C 
ENDROOT
BRANCH   1  21
HETATM   21  N1  UNL     1      22.089   5.814  51.941  1.00  0.00     0.086 NA
HETATM   22  C1  UNL     1      22.188   6.975  51.072  1.00  0.00     0.307 C 
HETATM   23  H4  UNL     1      22.813   5.835  52.694  1.00  0.00     0.315 HD
ENDBRANCH   1  21
BRANCH  17  24
HETATM   24  N4  UNL     1      20.067   0.716  52.877  1.00  0.00    -0.224 NA
HETATM   25 CL1  UNL     1      18.857  -0.108  51.902  1.00  0.00    -0.023 Cl
HETATM   26  H21 UNL     1      20.596  -0.015  53.433  1.00  0.00     0.142 HD
ENDBRANCH  17  24
BRANCH  20  27
HETATM   27  O1  UNL     1      19.929   4.699  50.581  1.00  0.00    -0.393 OA
HETATM   28  H25 UNL     1      20.082   4.911  49.637  1.00  0.00     0.210 HD
ENDBRANCH  20  27
TORSDOF 3
ENDMDL
MODEL 3
REMARK VINA RESULT:      -7.7      8.327     11.529
REMARK  3 active torsions:
REMARK  status: ('A' for Active; 'I' for Inactive)
REMARK    1  A    between atoms: N1_2  and  C2_3 
REMARK    2  A    between atoms: C16_19  and  N4_21 
REMARK    3  A    between atoms: C19_24  and  O1_25 
ROOT
HETATM    1  C2  UNL     1      29.701  10.105  48.652  1.00  0.00     0.250 C 
HETATM    2  C3  UNL     1      30.100  10.393  47.262  1.00  0.00     0.058 C 
HETATM    3  C4  UNL     1      31.222   9.736  46.594  1.00  0.00     0.125 C 
HETATM    4  N2  UNL     1      31.114   8.292  46.324  1.00  0.00    -0.376 N 
HETATM    5  C5  UNL     1      31.764   7.270  45.490  1.00  0.00     0.164 C 
HETATM    6  C6  UNL     1      32.014   6.148  46.478  1.00  0.00    -0.009 C 
HETATM    7  C7  UNL     1      33.019   5.341  46.753  1.00  0.00     0.017 A 
HETATM    8  C8  UNL     1      34.433   4.921  46.426  1.00  0.00     0.121 A 
HETATM    9  C9  UNL     1      34.990   3.788  47.155  1.00  0.00     0.122 A 
HETATM   10  N3  UNL     1      33.648   4.327  47.428  1.00  0.00    -0.272 NA
HETATM   11  C10 UNL     1      30.695   6.145  47.148  1.00  0.00    -0.000 A 
HETATM   12  C11 UNL     1      29.990   5.170  47.865  1.00  0.00     0.015 A 
HETATM   13  C12 UNL     1      28.769   5.478  48.473  1.00  0.00     0.010 A 
HETATM   14  C13 UNL     1      28.209   6.738  48.395  1.00  0.00    -0.032 A 
HETATM   15  C14 UNL     1      29.085   7.416  47.665  1.00  0.00     0.039 A 
HETATM   16  C15 UNL     1      30.238   7.452  46.994  1.00  0.00     0.042 A 
HETATM   17  C16 UNL     1      27.188   7.639  48.828  1.00  0.00     0.051 C 
HETATM   18  C17 UNL     1      26.170   7.853  47.711  1.00  0.00     0.038 C 
HETATM   19  C18 UNL     1      27.554   8.939  49.488  1.00  0.00     0.065 C 
HETATM   20  C19 UNL     1      28.250  10.025  48.900  1.00  0.00     0.153 C 
ENDROOT
BRANCH   1  21
HETATM   21  N1  UNL     1      30.483  10.716  49.729  1.00  0.00     0.086 NA
HETATM   22  C1  UNL     1      30.907  12.057  49.362  1.00  0.00     0.307 C 
HETATM   23  H4  UNL     1      31.299  10.107  49.964  1.00  0.00     0.315 HD
ENDBRANCH   1  21
BRANCH  17  24
HETATM   24  N4  UNL     1      26.402   6.939  49.872  1.00  0.00    -0.224 NA
HETATM   25 CL1  UNL     1      25.245   5.963  48.976  1.00  0.00    -0.023 Cl
HETATM   26  H21 UNL     1      27.029   6.284  50.421  1.00  0.00     0.142 HD
ENDBRANCH  17  24
BRANCH  20  27
HETATM   27  O1  UNL     1      27.785  11.294  49.347  1.00  0.00    -0.393 OA
HETATM   28  H25 UNL     1      28.565  11.859  49.522  1.00  0.00     0.210 HD
ENDBRANCH  20  27
TORSDOF 3
ENDMDL
MODEL 4
REMARK VINA RESULT:      -7.6      2.542      5.153
REMARK  3 active torsions:
REMARK  status: ('A' for Active; 'I' for Inactive)
REMARK    1  A    between atoms: N1_2  and  C2_3 
REMARK    2  A    between atoms: C16_19  and  N4_21 
REMARK    3  A    between atoms: C19_24  and  O1_25 
ROOT
HETATM    1  C2  UNL     1      21.769  -0.054  53.007  1.00  0.00     0.250 C 
HETATM    2  C3  UNL     1      21.537  -0.161  51.555  1.00  0.00     0.058 C 
HETATM    3  C4  UNL     1      21.434   0.998  50.668  1.00  0.00     0.125 C 
HETATM    4  N2  UNL     1      22.636   1.825  50.473  1.00  0.00    -0.376 N 
HETATM    5  C5  UNL     1      23.136   2.849  49.543  1.00  0.00     0.164 C 
HETATM    6  C6  UNL     1      23.653   3.922  50.481  1.00  0.00    -0.009 C 
HETATM    7  C7  UNL     1      23.576   5.236  50.543  1.00  0.00     0.017 A 
HETATM    8  C8  UNL     1      23.050   6.506  49.917  1.00  0.00     0.121 A 
HETATM    9  C9  UNL     1      23.426   7.772  50.532  1.00  0.00     0.122 A 
HETATM   10  N3  UNL     1      23.825   6.470  51.088  1.00  0.00    -0.272 NA
HETATM   11  C10 UNL     1      24.379   3.052  51.433  1.00  0.00    -0.000 A 
HETATM   12  C11 UNL     1      25.439   3.282  52.320  1.00  0.00     0.015 A 
HETATM   13  C12 UNL     1      25.878   2.271  53.180  1.00  0.00     0.010 A 
HETATM   14  C13 UNL     1      25.297   1.017  53.194  1.00  0.00    -0.032 A 
HETATM   15  C14 UNL     1      24.355   1.107  52.265  1.00  0.00     0.039 A 
HETATM   16  C15 UNL     1      23.711   1.833  51.348  1.00  0.00     0.042 A 
HETATM   17  C16 UNL     1      25.192  -0.262  53.821  1.00  0.00     0.051 C 
HETATM   18  C17 UNL     1      25.869  -1.324  52.960  1.00  0.00     0.038 C 
HETATM   19  C18 UNL     1      23.868  -0.746  54.342  1.00  0.00     0.065 C 
HETATM   20  C19 UNL     1      22.709  -1.035  53.580  1.00  0.00     0.153 C 
ENDROOT
BRANCH   1  21
HETATM   21  N1  UNL     1      20.628   0.286  53.859  1.00  0.00     0.086 NA
HETATM   22  C1  UNL     1      19.395  -0.254  53.311  1.00  0.00     0.307 C 
HETATM   23  H4  UNL     1      20.572   1.323  53.980  1.00  0.00     0.315 HD
ENDBRANCH   1  21
BRANCH  17  24
HETATM   24  N4  UNL     1      26.041  -0.224  55.037  1.00  0.00    -0.224 NA
HETATM   25 CL1  UNL     1      27.691  -0.250  54.428  1.00  0.00    -0.023 Cl
HETATM   26  H21 UNL     1      25.895   0.691  55.553  1.00  0.00     0.142 HD
ENDBRANCH  17  24
BRANCH  20  27
HETATM   27  O1  UNL     1      21.972  -2.143  54.084  1.00  0.00    -0.393 OA
HETATM   28  H25 UNL     1      21.031  -1.880  54.143  1.00  0.00     0.210 HD
ENDBRANCH  20  27
TORSDOF 3
ENDMDL
MODEL 5
REMARK VINA RESULT:      -7.5      3.175      5.253
REMARK  3 active torsions:
REMARK  status: ('A' for Active; 'I' for Inactive)
REMARK    1  A    between atoms: N1_2  and  C2_3 
REMARK    2  A    between atoms: C16_19  and  N4_21 
REMARK    3  A    between atoms: C19_24  and  O1_25 
ROOT
HETATM    1  C2  UNL     1      21.713   1.270  52.050  1.00  0.00     0.250 C 
HETATM    2  C3  UNL     1      21.416   0.471  50.848  1.00  0.00     0.058 C 
HETATM    3  C4  UNL     1      21.023   1.058  49.567  1.00  0.00     0.125 C 
HETATM    4  N2  UNL     1      22.016   1.874  48.849  1.00  0.00    -0.376 N 
HETATM    5  C5  UNL     1      22.237   2.416  47.500  1.00  0.00     0.164 C 
HETATM    6  C6  UNL     1      22.583   3.865  47.779  1.00  0.00    -0.009 C 
HETATM    7  C7  UNL     1      22.243   5.031  47.265  1.00  0.00     0.017 A 
HETATM    8  C8  UNL     1      21.430   5.770  46.228  1.00  0.00     0.121 A 
HETATM    9  C9  UNL     1      21.578   7.218  46.158  1.00  0.00     0.122 A 
HETATM   10  N3  UNL     1      22.269   6.398  47.164  1.00  0.00    -0.272 NA
HETATM   11  C10 UNL     1      23.529   3.655  48.896  1.00  0.00    -0.000 A 
HETATM   12  C11 UNL     1      24.573   4.427  49.421  1.00  0.00     0.015 A 
HETATM   13  C12 UNL     1      25.263   4.008  50.563  1.00  0.00     0.010 A 
HETATM   14  C13 UNL     1      24.953   2.831  51.216  1.00  0.00    -0.032 A 
HETATM   15  C14 UNL     1      23.955   2.337  50.494  1.00  0.00     0.039 A 
HETATM   16  C15 UNL     1      23.120   2.449  49.459  1.00  0.00     0.042 A 
HETATM   17  C16 UNL     1      25.151   1.987  52.351  1.00  0.00     0.051 C 
HETATM   18  C17 UNL     1      25.974   0.764  51.957  1.00  0.00     0.038 C 
HETATM   19  C18 UNL     1      23.989   1.603  53.223  1.00  0.00     0.065 C 
HETATM   20  C19 UNL     1      22.867   0.821  52.850  1.00  0.00     0.153 C 
ENDROOT
BRANCH   1  21
HETATM   21  N1  UNL     1      20.582   1.787  52.825  1.00  0.00     0.086 NA
HETATM   22  C1  UNL     1      20.303   3.169  52.470  1.00  0.00     0.307 C 
HETATM   23  H4  UNL     1      20.777   1.685  53.846  1.00  0.00     0.315 HD
ENDBRANCH   1  21
BRANCH  17  24
HETATM   24  N4  UNL     1      26.049   2.712  53.283  1.00  0.00    -0.224 NA
HETATM   25 CL1  UNL     1      27.671   2.251  52.784  1.00  0.00    -0.023 Cl
HETATM   26  H21 UNL     1      25.947   3.758  53.145  1.00  0.00     0.142 HD
ENDBRANCH  17  24
BRANCH  20  27
HETATM   27  O1  UNL     1      22.405  -0.027  53.896  1.00  0.00    -0.393 OA
HETATM   28  H25 UNL     1      21.440  -0.150  53.782  1.00  0.00     0.210 HD
ENDBRANCH  20  27
TORSDOF 3
ENDMDL
MODEL 6
REMARK VINA RESULT:      -7.4      3.056      5.890
REMARK  3 active torsions:
REMARK  status: ('A' for Active; 'I' for Inactive)
REMARK    1  A    between atoms: N1_2  and  C2_3 
REMARK    2  A    between atoms: C16_19  and  N4_21 
REMARK    3  A    between atoms: C19_24  and  O1_25 
ROOT
HETATM    1  C2  UNL     1      19.540   1.316  51.149  1.00  0.00     0.250 C 
HETATM    2  C3  UNL     1      19.921   0.983  49.765  1.00  0.00     0.058 C 
HETATM    3  C4  UNL     1      20.768   1.839  48.934  1.00  0.00     0.125 C 
HETATM    4  N2  UNL     1      22.172   2.019  49.337  1.00  0.00    -0.376 N 
HETATM    5  C5  UNL     1      23.438   2.496  48.759  1.00  0.00     0.164 C 
HETATM    6  C6  UNL     1      23.953   3.441  49.827  1.00  0.00    -0.009 C 
HETATM    7  C7  UNL     1      24.494   4.643  49.840  1.00  0.00     0.017 A 
HETATM    8  C8  UNL     1      24.958   5.833  49.033  1.00  0.00     0.121 A 
HETATM    9  C9  UNL     1      25.592   6.932  49.750  1.00  0.00     0.122 A 
HETATM   10  N3  UNL     1      25.045   5.749  50.433  1.00  0.00    -0.272 NA
HETATM   11  C10 UNL     1      23.698   2.594  51.013  1.00  0.00    -0.000 A 
HETATM   12  C11 UNL     1      24.251   2.560  52.299  1.00  0.00     0.015 A 
HETATM   13  C12 UNL     1      23.746   1.688  53.268  1.00  0.00     0.010 A 
HETATM   14  C13 UNL     1      22.694   0.831  53.006  1.00  0.00    -0.032 A 
HETATM   15  C14 UNL     1      22.402   1.087  51.737  1.00  0.00     0.039 A 
HETATM   16  C15 UNL     1      22.637   1.781  50.622  1.00  0.00     0.042 A 
HETATM   17  C16 UNL     1      21.739  -0.105  53.509  1.00  0.00     0.051 C 
HETATM   18  C17 UNL     1      22.118  -1.520  53.082  1.00  0.00     0.038 C 
HETATM   19  C18 UNL     1      20.267   0.143  53.331  1.00  0.00     0.065 C 
HETATM   20  C19 UNL     1      19.556   0.195  52.107  1.00  0.00     0.153 C 
ENDROOT
BRANCH   1  21
HETATM   21  N1  UNL     1      18.463   2.288  51.347  1.00  0.00     0.086 NA
HETATM   22  C1  UNL     1      19.004   3.616  51.583  1.00  0.00     0.307 C 
HETATM   23  H4  UNL     1      17.847   1.980  52.133  1.00  0.00     0.315 HD
ENDBRANCH   1  21
BRANCH  17  24
HETATM   24  N4  UNL     1      21.900  -0.143  54.983  1.00  0.00    -0.224 NA
HETATM   25 CL1  UNL     1      23.190  -1.307  55.259  1.00  0.00    -0.023 Cl
HETATM   26  H21 UNL     1      22.228   0.801  55.337  1.00  0.00     0.142 HD
ENDBRANCH  17  24
BRANCH  20  27
HETATM   27  O1  UNL     1      18.246  -0.355  52.198  1.00  0.00    -0.393 OA
HETATM   28  H25 UNL     1      17.869  -0.390  51.296  1.00  0.00     0.210 HD
ENDBRANCH  20  27
TORSDOF 3
ENDMDL
MODEL 7
REMARK VINA RESULT:      -7.2     10.757     13.219
REMARK  3 active torsions:
REMARK  status: ('A' for Active; 'I' for Inactive)
REMARK    1  A    between atoms: N1_2  and  C2_3 
REMARK    2  A    between atoms: C16_19  and  N4_21 
REMARK    3  A    between atoms: C19_24  and  O1_25 
ROOT
HETATM    1  C2  UNL     1      34.131   4.393  47.540  1.00  0.00     0.250 C 
HETATM    2  C3  UNL     1      32.750   4.029  47.906  1.00  0.00     0.058 C 
HETATM    3  C4  UNL     1      31.805   4.965  48.514  1.00  0.00     0.125 C 
HETATM    4  N2  UNL     1      31.349   6.107  47.705  1.00  0.00    -0.376 N 
HETATM    5  C5  UNL     1      30.273   7.110  47.711  1.00  0.00     0.164 C 
HETATM    6  C6  UNL     1      31.025   8.404  47.477  1.00  0.00    -0.009 C 
HETATM    7  C7  UNL     1      30.997   9.617  47.993  1.00  0.00     0.017 A 
HETATM    8  C8  UNL     1      30.368  10.552  48.998  1.00  0.00     0.121 A 
HETATM    9  C9  UNL     1      30.812  11.940  49.004  1.00  0.00     0.122 A 
HETATM   10  N3  UNL     1      31.394  10.924  48.114  1.00  0.00    -0.272 NA
HETATM   11  C10 UNL     1      31.909   7.951  46.381  1.00  0.00    -0.000 A 
HETATM   12  C11 UNL     1      32.588   8.628  45.359  1.00  0.00     0.015 A 
HETATM   13  C12 UNL     1      33.441   7.937  44.493  1.00  0.00     0.010 A 
HETATM   14  C13 UNL     1      33.648   6.575  44.601  1.00  0.00    -0.032 A 
HETATM   15  C14 UNL     1      32.883   6.231  45.628  1.00  0.00     0.039 A 
HETATM   16  C15 UNL     1      32.032   6.580  46.595  1.00  0.00     0.042 A 
HETATM   17  C16 UNL     1      34.382   5.425  44.178  1.00  0.00     0.051 C 
HETATM   18  C17 UNL     1      33.507   4.541  43.295  1.00  0.00     0.038 C 
HETATM   19  C18 UNL     1      35.151   4.606  45.177  1.00  0.00     0.065 C 
HETATM   20  C19 UNL     1      34.616   3.857  46.255  1.00  0.00     0.153 C 
ENDROOT
BRANCH   1  21
HETATM   21  N1  UNL     1      35.131   4.448  48.608  1.00  0.00     0.086 NA
HETATM   22  C1  UNL     1      35.414   5.825  48.978  1.00  0.00     0.307 C 
HETATM   23  H4  UNL     1      35.997   3.945  48.309  1.00  0.00     0.315 HD
ENDBRANCH   1  21
BRANCH  17  24
HETATM   24  N4  UNL     1      35.435   5.896  43.245  1.00  0.00    -0.224 NA
HETATM   25 CL1  UNL     1      34.788   5.565  41.643  1.00  0.00    -0.023 Cl
HETATM   26  H21 UNL     1      35.560   6.945  43.339  1.00  0.00     0.142 HD
ENDBRANCH  17  24
BRANCH  20  27
HETATM   27  O1  UNL     1      35.320   2.643  46.495  1.00  0.00    -0.393 OA
HETATM   28  H25 UNL     1      34.763   1.902  46.181  1.00  0.00     0.210 HD
ENDBRANCH  20  27
TORSDOF 3
ENDMDL
MODEL 8
REMARK VINA RESULT:      -7.1      9.555     13.297
REMARK  3 active torsions:
REMARK  status: ('A' for Active; 'I' for Inactive)
REMARK    1  A    between atoms: N1_2  and  C2_3 
REMARK    2  A    between atoms: C16_19  and  N4_21 
REMARK    3  A    between atoms: C19_24  and  O1_25 
ROOT
HETATM    1  C2  UNL     1      32.691   5.738  48.600  1.00  0.00     0.250 C 
HETATM    2  C3  UNL     1      33.789   6.691  48.845  1.00  0.00     0.058 C 
HETATM    3  C4  UNL     1      34.704   7.151  47.800  1.00  0.00     0.125 C 
HETATM    4  N2  UNL     1      34.151   7.979  46.716  1.00  0.00    -0.376 N 
HETATM    5  C5  UNL     1      34.630   8.878  45.655  1.00  0.00     0.164 C 
HETATM    6  C6  UNL     1      33.879   8.380  44.436  1.00  0.00    -0.009 C 
HETATM    7  C7  UNL     1      34.186   8.125  43.179  1.00  0.00     0.017 A 
HETATM    8  C8  UNL     1      35.259   8.103  42.116  1.00  0.00     0.121 A 
HETATM    9  C9  UNL     1      34.865   7.731  40.763  1.00  0.00     0.122 A 
HETATM   10  N3  UNL     1      33.923   7.730  41.893  1.00  0.00    -0.272 NA
HETATM   11  C10 UNL     1      32.538   8.241  45.044  1.00  0.00    -0.000 A 
HETATM   12  C11 UNL     1      31.243   8.235  44.510  1.00  0.00     0.015 A 
HETATM   13  C12 UNL     1      30.136   7.995  45.331  1.00  0.00     0.010 A 
HETATM   14  C13 UNL     1      30.266   7.758  46.685  1.00  0.00    -0.032 A 
HETATM   15  C14 UNL     1      31.576   7.834  46.884  1.00  0.00     0.039 A 
HETATM   16  C15 UNL     1      32.803   8.018  46.393  1.00  0.00     0.042 A 
HETATM   17  C16 UNL     1      29.645   7.373  47.913  1.00  0.00     0.051 C 
HETATM   18  C17 UNL     1      29.489   8.587  48.824  1.00  0.00     0.038 C 
HETATM   19  C18 UNL     1      30.149   6.180  48.676  1.00  0.00     0.065 C 
HETATM   20  C19 UNL     1      31.420   6.035  49.286  1.00  0.00     0.153 C 
ENDROOT
BRANCH   1  21
HETATM   21  N1  UNL     1      33.028   4.316  48.503  1.00  0.00     0.086 NA
HETATM   22  C1  UNL     1      32.586   3.768  47.232  1.00  0.00     0.307 C 
HETATM   23  H4  UNL     1      32.613   3.798  49.310  1.00  0.00     0.315 HD
ENDBRANCH   1  21
BRANCH  17  24
HETATM   24  N4  UNL     1      28.243   7.005  47.597  1.00  0.00    -0.224 NA
HETATM   25 CL1  UNL     1      28.006   5.449  48.381  1.00  0.00    -0.023 Cl
HETATM   26  H21 UNL     1      27.577   7.701  48.039  1.00  0.00     0.142 HD
ENDBRANCH  17  24
BRANCH  20  27
HETATM   27  O1  UNL     1      31.373   5.311  50.510  1.00  0.00    -0.393 OA
HETATM   28  H25 UNL     1      30.896   5.858  51.167  1.00  0.00     0.210 HD
ENDBRANCH  20  27
TORSDOF 3
ENDMDL
MODEL 9
REMARK VINA RESULT:      -6.9      4.803      7.500
REMARK  3 active torsions:
REMARK  status: ('A' for Active; 'I' for Inactive)
REMARK    1  A    between atoms: N1_2  and  C2_3 
REMARK    2  A    between atoms: C16_19  and  N4_21 
REMARK    3  A    between atoms: C19_24  and  O1_25 
ROOT
HETATM    1  C2  UNL     1      25.029   8.869  47.534  1.00  0.00     0.250 C 
HETATM    2  C3  UNL     1      24.485   9.252  48.850  1.00  0.00     0.058 C 
HETATM    3  C4  UNL     1      23.656   8.367  49.668  1.00  0.00     0.125 C 
HETATM    4  N2  UNL     1      24.280   7.152  50.217  1.00  0.00    -0.376 N 
HETATM    5  C5  UNL     1      24.017   6.145  51.256  1.00  0.00     0.164 C 
HETATM    6  C6  UNL     1      24.251   4.841  50.520  1.00  0.00    -0.009 C 
HETATM    7  C7  UNL     1      23.633   3.680  50.441  1.00  0.00     0.017 A 
HETATM    8  C8  UNL     1      22.462   2.834  50.885  1.00  0.00     0.121 A 
HETATM    9  C9  UNL     1      22.404   1.457  50.413  1.00  0.00     0.122 A 
HETATM   10  N3  UNL     1      23.460   2.393  50.000  1.00  0.00    -0.272 NA
HETATM   11  C10 UNL     1      25.508   5.201  49.827  1.00  0.00    -0.000 A 
HETATM   12  C11 UNL     1      26.559   4.441  49.299  1.00  0.00     0.015 A 
HETATM   13  C12 UNL     1      27.606   5.058  48.607  1.00  0.00     0.010 A 
HETATM   14  C13 UNL     1      27.652   6.425  48.416  1.00  0.00    -0.032 A 
HETATM   15  C14 UNL     1      26.552   6.855  49.021  1.00  0.00     0.039 A 
HETATM   16  C15 UNL     1      25.437   6.587  49.704  1.00  0.00     0.042 A 
HETATM   17  C16 UNL     1      28.284   7.539  47.783  1.00  0.00     0.051 C 
HETATM   18  C17 UNL     1      29.094   8.332  48.805  1.00  0.00     0.038 C 
HETATM   19  C18 UNL     1      27.494   8.452  46.888  1.00  0.00     0.065 C 
HETATM   20  C19 UNL     1      26.416   9.291  47.266  1.00  0.00     0.153 C 
ENDROOT
BRANCH   1  21
HETATM   21  N1  UNL     1      24.129   8.919  46.380  1.00  0.00     0.086 NA
HETATM   22  C1  UNL     1      23.686   7.585  46.013  1.00  0.00     0.307 C 
HETATM   23  H4  UNL     1      24.603   9.400  45.582  1.00  0.00     0.315 HD
ENDBRANCH   1  21
BRANCH  17  24
HETATM   24  N4  UNL     1      29.324   6.994  46.877  1.00  0.00    -0.224 NA
HETATM   25 CL1  UNL     1      29.318   8.078  45.491  1.00  0.00    -0.023 Cl
HETATM   26  H21 UNL     1      30.277   7.057  47.339  1.00  0.00     0.142 HD
ENDBRANCH  17  24
BRANCH  20  27
HETATM   27  O1  UNL     1      26.397  10.527  46.562  1.00  0.00    -0.393 OA
HETATM   28  H25 UNL     1      25.519  10.939  46.696  1.00  0.00     0.210 HD
ENDBRANCH  20  27
TORSDOF 3
ENDMDL
