MODEL 1
REMARK VINA RESULT:      -8.3      0.000      0.000
REMARK  0 active torsions:
REMARK  status: ('A' for Active; 'I' for Inactive)
ROOT
HETATM    1  C1  UNL     1      18.783   0.761  50.067  1.00  0.00     0.043 C 
HETATM    2  C2  UNL     1      19.988   0.939  50.988  1.00  0.00    -0.081 C 
HETATM    3  C3  UNL     1      20.898   1.834  50.541  1.00  0.00    -0.005 C 
HETATM    4  C4  UNL     1      22.095   2.683  50.451  1.00  0.00     0.148 C 
HETATM    5  N1  UNL     1      22.963   2.603  51.626  1.00  0.00    -0.371 N 
HETATM    6  C5  UNL     1      23.509   1.577  52.411  1.00  0.00     0.138 A 
HETATM    7  N2  UNL     1      22.445   1.011  52.964  1.00  0.00    -0.215 NA
HETATM    8  C6  UNL     1      22.676  -0.024  53.781  1.00  0.00     0.133 A 
HETATM    9  N3  UNL     1      23.913  -0.514  54.066  1.00  0.00    -0.232 NA
HETATM   10  C7  UNL     1      24.954   0.095  53.482  1.00  0.00     0.079 A 
HETATM   11  C8  UNL     1      24.812   1.185  52.612  1.00  0.00     0.041 A 
HETATM   12  C9  UNL     1      25.456   2.167  51.771  1.00  0.00     0.042 C 
HETATM   13  C10 UNL     1      26.742   2.530  51.774  1.00  0.00     0.137 C 
HETATM   14  O1  UNL     1      27.982   2.314  52.372  1.00  0.00    -0.344 OA
HETATM   15  C11 UNL     1      28.462   1.194  53.090  1.00  0.00     0.233 C 
HETATM   16  S1  UNL     1      27.778  -0.066  53.933  1.00  0.00    -0.103 SA
HETATM   17  C12 UNL     1      26.185  -0.558  53.911  1.00  0.00     0.080 C 
HETATM   18  C13 UNL     1      21.389  -0.523  54.302  1.00  0.00     0.058 C 
HETATM   19  C14 UNL     1      21.573  -1.967  54.808  1.00  0.00     0.018 C 
HETATM   20  C15 UNL     1      20.289  -0.502  53.305  1.00  0.00     0.011 C 
HETATM   21  C16 UNL     1      20.459   0.340  52.258  1.00  0.00     0.028 C 
HETATM   22  H7  UNL     1      23.443   3.361  52.206  1.00  0.00     0.161 HD
ENDROOT
TORSDOF 0
ENDMDL
MODEL 2
REMARK VINA RESULT:      -8.3      2.210      4.425
REMARK  0 active torsions:
REMARK  status: ('A' for Active; 'I' for Inactive)
ROOT
HETATM    1  C1  UNL     1      20.402   4.471  50.755  1.00  0.00     0.043 C 
HETATM    2  C2  UNL     1      21.703   3.680  50.864  1.00  0.00    -0.081 C 
HETATM    3  C3  UNL     1      21.670   2.684  51.779  1.00  0.00    -0.005 C 
HETATM    4  C4  UNL     1      22.069   1.545  52.618  1.00  0.00     0.148 C 
HETATM    5  N1  UNL     1      23.406   1.033  52.321  1.00  0.00    -0.371 N 
HETATM    6  C5  UNL     1      24.680   1.588  52.127  1.00  0.00     0.138 A 
HETATM    7  N2  UNL     1      24.538   2.308  51.022  1.00  0.00    -0.215 NA
HETATM    8  C6  UNL     1      25.624   2.964  50.595  1.00  0.00     0.133 A 
HETATM    9  N3  UNL     1      26.833   2.934  51.219  1.00  0.00    -0.232 NA
HETATM   10  C7  UNL     1      26.922   2.191  52.330  1.00  0.00     0.079 A 
HETATM   11  C8  UNL     1      25.841   1.469  52.855  1.00  0.00     0.041 A 
HETATM   12  C9  UNL     1      25.351   0.581  53.883  1.00  0.00     0.042 C 
HETATM   13  C10 UNL     1      26.067  -0.169  54.726  1.00  0.00     0.137 C 
HETATM   14  O1  UNL     1      27.356  -0.529  55.111  1.00  0.00    -0.344 OA
HETATM   15  C11 UNL     1      28.583   0.149  54.926  1.00  0.00     0.233 C 
HETATM   16  S1  UNL     1      29.163   1.303  53.876  1.00  0.00    -0.103 SA
HETATM   17  C12 UNL     1      28.282   2.274  52.847  1.00  0.00     0.080 C 
HETATM   18  C13 UNL     1      25.286   3.704  49.364  1.00  0.00     0.058 C 
HETATM   19  C14 UNL     1      26.317   4.829  49.149  1.00  0.00     0.018 C 
HETATM   20  C15 UNL     1      23.925   4.300  49.376  1.00  0.00     0.011 C 
HETATM   21  C16 UNL     1      23.048   3.746  50.246  1.00  0.00     0.028 C 
HETATM   22  H7  UNL     1      23.772   0.039  52.186  1.00  0.00     0.161 HD
ENDROOT
TORSDOF 0
ENDMDL
MODEL 3
REMARK VINA RESULT:      -8.2      3.110      6.610
REMARK  0 active torsions:
REMARK  status: ('A' for Active; 'I' for Inactive)
ROOT
HETATM    1  C1  UNL     1      28.719  -0.556  53.267  1.00  0.00     0.043 C 
HETATM    2  C2  UNL     1      27.337   0.073  53.105  1.00  0.00    -0.081 C 
HETATM    3  C3  UNL     1      26.369  -0.521  53.841  1.00  0.00    -0.005 C 
HETATM    4  C4  UNL     1      25.063  -0.835  54.437  1.00  0.00     0.148 C 
HETATM    5  N1  UNL     1      24.005   0.103  54.065  1.00  0.00    -0.371 N 
HETATM    6  C5  UNL     1      23.541   0.683  52.874  1.00  0.00     0.138 A 
HETATM    7  N2  UNL     1      24.561   1.433  52.479  1.00  0.00    -0.215 NA
HETATM    8  C6  UNL     1      24.393   2.117  51.341  1.00  0.00     0.133 A 
HETATM    9  N3  UNL     1      23.261   2.083  50.586  1.00  0.00    -0.232 NA
HETATM   10  C7  UNL     1      22.261   1.310  51.031  1.00  0.00     0.079 A 
HETATM   11  C8  UNL     1      22.343   0.558  52.211  1.00  0.00     0.041 A 
HETATM   12  C9  UNL     1      21.694  -0.352  53.125  1.00  0.00     0.042 C 
HETATM   13  C10 UNL     1      20.390  -0.624  53.221  1.00  0.00     0.137 C 
HETATM   14  O1  UNL     1      19.129  -0.340  52.701  1.00  0.00    -0.344 OA
HETATM   15  C11 UNL     1      18.763   0.185  51.440  1.00  0.00     0.233 C 
HETATM   16  S1  UNL     1      19.511   1.092  50.262  1.00  0.00    -0.103 SA
HETATM   17  C12 UNL     1      21.140   1.408  50.104  1.00  0.00     0.080 C 
HETATM   18  C13 UNL     1      25.617   2.891  51.059  1.00  0.00     0.058 C 
HETATM   19  C14 UNL     1      25.650   3.260  49.562  1.00  0.00     0.018 C 
HETATM   20  C15 UNL     1      26.873   2.175  51.402  1.00  0.00     0.011 C 
HETATM   21  C16 UNL     1      26.749   1.166  52.296  1.00  0.00     0.028 C 
HETATM   22  H7  UNL     1      23.258   0.598  54.647  1.00  0.00     0.161 HD
ENDROOT
TORSDOF 0
ENDMDL
MODEL 4
REMARK VINA RESULT:      -8.1      3.048      5.497
REMARK  0 active torsions:
REMARK  status: ('A' for Active; 'I' for Inactive)
ROOT
HETATM    1  C1  UNL     1      28.322   0.231  54.949  1.00  0.00     0.043 C 
HETATM    2  C2  UNL     1      27.079   0.433  54.087  1.00  0.00    -0.081 C 
HETATM    3  C3  UNL     1      27.234   1.343  53.097  1.00  0.00    -0.005 C 
HETATM    4  C4  UNL     1      26.962   2.208  51.940  1.00  0.00     0.148 C 
HETATM    5  N1  UNL     1      25.638   2.007  51.353  1.00  0.00    -0.371 N 
HETATM    6  C5  UNL     1      24.324   1.906  51.834  1.00  0.00     0.138 A 
HETATM    7  N2  UNL     1      24.345   0.794  52.556  1.00  0.00    -0.215 NA
HETATM    8  C6  UNL     1      23.196   0.445  53.149  1.00  0.00     0.133 A 
HETATM    9  N3  UNL     1      22.038   1.155  53.053  1.00  0.00    -0.232 NA
HETATM   10  C7  UNL     1      22.072   2.269  52.310  1.00  0.00     0.079 A 
HETATM   11  C8  UNL     1      23.227   2.714  51.652  1.00  0.00     0.041 A 
HETATM   12  C9  UNL     1      23.838   3.705  50.797  1.00  0.00     0.042 C 
HETATM   13  C10 UNL     1      23.229   4.596  50.011  1.00  0.00     0.137 C 
HETATM   14  O1  UNL     1      21.993   5.073  49.579  1.00  0.00    -0.344 OA
HETATM   15  C11 UNL     1      20.719   4.976  50.186  1.00  0.00     0.233 C 
HETATM   16  S1  UNL     1      20.001   3.972  51.301  1.00  0.00    -0.103 SA
HETATM   17  C12 UNL     1      20.749   2.882  52.318  1.00  0.00     0.080 C 
HETATM   18  C13 UNL     1      23.403  -0.806  53.902  1.00  0.00     0.058 C 
HETATM   19  C14 UNL     1      22.296  -0.946  54.966  1.00  0.00     0.018 C 
HETATM   20  C15 UNL     1      24.725  -0.892  54.574  1.00  0.00     0.011 C 
HETATM   21  C16 UNL     1      25.692  -0.087  54.074  1.00  0.00     0.028 C 
HETATM   22  H7  UNL     1      25.320   1.899  50.338  1.00  0.00     0.161 HD
ENDROOT
TORSDOF 0
ENDMDL
MODEL 5
REMARK VINA RESULT:      -8.0      3.054      5.895
REMARK  0 active torsions:
REMARK  status: ('A' for Active; 'I' for Inactive)
ROOT
HETATM    1  C1  UNL     1      27.066   5.056  48.649  1.00  0.00     0.043 C 
HETATM    2  C2  UNL     1      26.162   4.594  49.790  1.00  0.00    -0.081 C 
HETATM    3  C3  UNL     1      26.625   3.514  50.461  1.00  0.00    -0.005 C 
HETATM    4  C4  UNL     1      26.737   2.413  51.428  1.00  0.00     0.148 C 
HETATM    5  N1  UNL     1      25.668   2.396  52.426  1.00  0.00    -0.371 N 
HETATM    6  C5  UNL     1      24.269   2.501  52.410  1.00  0.00     0.138 A 
HETATM    7  N2  UNL     1      24.057   3.736  51.976  1.00  0.00    -0.215 NA
HETATM    8  C6  UNL     1      22.779   4.117  51.860  1.00  0.00     0.133 A 
HETATM    9  N3  UNL     1      21.713   3.323  52.154  1.00  0.00    -0.232 NA
HETATM   10  C7  UNL     1      21.983   2.085  52.589  1.00  0.00     0.079 A 
HETATM   11  C8  UNL     1      23.288   1.597  52.744  1.00  0.00     0.041 A 
HETATM   12  C9  UNL     1      24.141   0.497  53.131  1.00  0.00     0.042 C 
HETATM   13  C10 UNL     1      23.815  -0.577  53.854  1.00  0.00     0.137 C 
HETATM   14  O1  UNL     1      22.781  -1.218  54.533  1.00  0.00    -0.344 OA
HETATM   15  C11 UNL     1      21.380  -1.089  54.387  1.00  0.00     0.233 C 
HETATM   16  S1  UNL     1      20.344   0.070  53.796  1.00  0.00    -0.103 SA
HETATM   17  C12 UNL     1      20.728   1.395  52.860  1.00  0.00     0.080 C 
HETATM   18  C13 UNL     1      22.733   5.507  51.370  1.00  0.00     0.058 C 
HETATM   19  C14 UNL     1      21.346   5.784  50.759  1.00  0.00     0.018 C 
HETATM   20  C15 UNL     1      23.773   5.822  50.357  1.00  0.00     0.011 C 
HETATM   21  C16 UNL     1      24.850   5.002  50.345  1.00  0.00     0.028 C 
HETATM   22  H7  UNL     1      25.689   2.271  53.487  1.00  0.00     0.161 HD
ENDROOT
TORSDOF 0
ENDMDL
MODEL 6
REMARK VINA RESULT:      -8.0      1.784      3.698
REMARK  0 active torsions:
REMARK  status: ('A' for Active; 'I' for Inactive)
ROOT
HETATM    1  C1  UNL     1      17.144  -0.282  52.700  1.00  0.00     0.043 C 
HETATM    2  C2  UNL     1      18.651  -0.323  52.458  1.00  0.00    -0.081 C 
HETATM    3  C3  UNL     1      19.342  -1.023  53.388  1.00  0.00    -0.005 C 
HETATM    4  C4  UNL     1      20.445  -1.654  54.125  1.00  0.00     0.148 C 
HETATM    5  N1  UNL     1      21.746  -1.515  53.471  1.00  0.00    -0.371 N 
HETATM    6  C5  UNL     1      22.475  -0.469  52.886  1.00  0.00     0.138 A 
HETATM    7  N2  UNL     1      21.737  -0.127  51.839  1.00  0.00    -0.215 NA
HETATM    8  C6  UNL     1      22.204   0.873  51.080  1.00  0.00     0.133 A 
HETATM    9  N3  UNL     1      23.366   1.539  51.321  1.00  0.00    -0.232 NA
HETATM   10  C7  UNL     1      24.074   1.152  52.391  1.00  0.00     0.079 A 
HETATM   11  C8  UNL     1      23.667   0.117  53.244  1.00  0.00     0.041 A 
HETATM   12  C9  UNL     1      23.950  -0.684  54.411  1.00  0.00     0.042 C 
HETATM   13  C10 UNL     1      25.119  -0.830  55.040  1.00  0.00     0.137 C 
HETATM   14  O1  UNL     1      26.461  -0.455  55.045  1.00  0.00    -0.344 OA
HETATM   15  C11 UNL     1      27.091   0.676  54.475  1.00  0.00     0.233 C 
HETATM   16  S1  UNL     1      26.742   1.745  53.248  1.00  0.00    -0.103 SA
HETATM   17  C12 UNL     1      25.280   1.968  52.480  1.00  0.00     0.080 C 
HETATM   18  C13 UNL     1      21.263   1.115  49.970  1.00  0.00     0.058 C 
HETATM   19  C14 UNL     1      21.497   2.532  49.409  1.00  0.00     0.018 C 
HETATM   20  C15 UNL     1      19.834   0.983  50.354  1.00  0.00     0.011 C 
HETATM   21  C16 UNL     1      19.590   0.255  51.470  1.00  0.00     0.028 C 
HETATM   22  H7  UNL     1      22.525  -2.221  53.282  1.00  0.00     0.161 HD
ENDROOT
TORSDOF 0
ENDMDL
MODEL 7
REMARK VINA RESULT:      -7.9      2.882      4.572
REMARK  0 active torsions:
REMARK  status: ('A' for Active; 'I' for Inactive)
ROOT
HETATM    1  C1  UNL     1      21.537  -1.646  53.833  1.00  0.00     0.043 C 
HETATM    2  C2  UNL     1      22.422  -0.442  53.518  1.00  0.00    -0.081 C 
HETATM    3  C3  UNL     1      21.739   0.658  53.124  1.00  0.00    -0.005 C 
HETATM    4  C4  UNL     1      21.429   2.023  52.675  1.00  0.00     0.148 C 
HETATM    5  N1  UNL     1      22.600   2.894  52.587  1.00  0.00    -0.371 N 
HETATM    6  C5  UNL     1      23.892   2.800  52.047  1.00  0.00     0.138 A 
HETATM    7  N2  UNL     1      24.460   1.846  52.771  1.00  0.00    -0.215 NA
HETATM    8  C6  UNL     1      25.727   1.539  52.465  1.00  0.00     0.133 A 
HETATM    9  N3  UNL     1      26.442   2.138  51.474  1.00  0.00    -0.232 NA
HETATM   10  C7  UNL     1      25.821   3.095  50.773  1.00  0.00     0.079 A 
HETATM   11  C8  UNL     1      24.497   3.486  51.020  1.00  0.00     0.041 A 
HETATM   12  C9  UNL     1      23.395   4.351  50.669  1.00  0.00     0.042 C 
HETATM   13  C10 UNL     1      23.434   5.476  49.951  1.00  0.00     0.137 C 
HETATM   14  O1  UNL     1      24.265   6.349  49.251  1.00  0.00    -0.344 OA
HETATM   15  C11 UNL     1      25.538   6.127  48.677  1.00  0.00     0.233 C 
HETATM   16  S1  UNL     1      26.782   5.049  48.913  1.00  0.00    -0.103 SA
HETATM   17  C12 UNL     1      26.741   3.621  49.772  1.00  0.00     0.080 C 
HETATM   18  C13 UNL     1      26.194   0.468  53.366  1.00  0.00     0.058 C 
HETATM   19  C14 UNL     1      27.410  -0.234  52.731  1.00  0.00     0.018 C 
HETATM   20  C15 UNL     1      25.160  -0.552  53.674  1.00  0.00     0.011 C 
HETATM   21  C16 UNL     1      23.876  -0.164  53.487  1.00  0.00     0.028 C 
HETATM   22  H7  UNL     1      22.767   3.896  52.920  1.00  0.00     0.161 HD
ENDROOT
TORSDOF 0
ENDMDL
MODEL 8
REMARK VINA RESULT:      -7.8      1.631      2.049
REMARK  0 active torsions:
REMARK  status: ('A' for Active; 'I' for Inactive)
ROOT
HETATM    1  C1  UNL     1      17.171  -0.371  50.734  1.00  0.00     0.043 C 
HETATM    2  C2  UNL     1      18.473   0.225  51.265  1.00  0.00    -0.081 C 
HETATM    3  C3  UNL     1      18.957   1.247  50.521  1.00  0.00    -0.005 C 
HETATM    4  C4  UNL     1      19.809   2.345  50.043  1.00  0.00     0.148 C 
HETATM    5  N1  UNL     1      20.934   2.645  50.928  1.00  0.00    -0.371 N 
HETATM    6  C5  UNL     1      21.923   1.904  51.591  1.00  0.00     0.138 A 
HETATM    7  N2  UNL     1      21.234   1.175  52.457  1.00  0.00    -0.215 NA
HETATM    8  C6  UNL     1      21.942   0.352  53.242  1.00  0.00     0.133 A 
HETATM    9  N3  UNL     1      23.296   0.228  53.197  1.00  0.00    -0.232 NA
HETATM   10  C7  UNL     1      23.944   0.989  52.305  1.00  0.00     0.079 A 
HETATM   11  C8  UNL     1      23.290   1.879  51.441  1.00  0.00     0.041 A 
HETATM   12  C9  UNL     1      23.403   2.864  50.392  1.00  0.00     0.042 C 
HETATM   13  C10 UNL     1      24.495   3.531  50.008  1.00  0.00     0.137 C 
HETATM   14  O1  UNL     1      25.856   3.713  50.244  1.00  0.00    -0.344 OA
HETATM   15  C11 UNL     1      26.793   2.857  50.868  1.00  0.00     0.233 C 
HETATM   16  S1  UNL     1      26.721   1.596  51.950  1.00  0.00    -0.103 SA
HETATM   17  C12 UNL     1      25.375   0.727  52.410  1.00  0.00     0.080 C 
HETATM   18  C13 UNL     1      21.019  -0.373  54.136  1.00  0.00     0.058 C 
HETATM   19  C14 UNL     1      21.717  -1.643  54.662  1.00  0.00     0.018 C 
HETATM   20  C15 UNL     1      19.740  -0.764  53.490  1.00  0.00     0.011 C 
HETATM   21  C16 UNL     1      19.398  -0.058  52.386  1.00  0.00     0.028 C 
HETATM   22  H7  UNL     1      21.318   3.571  51.299  1.00  0.00     0.161 HD
ENDROOT
TORSDOF 0
ENDMDL
MODEL 9
REMARK VINA RESULT:      -7.7      3.045      5.567
REMARK  0 active torsions:
REMARK  status: ('A' for Active; 'I' for Inactive)
ROOT
HETATM    1  C1  UNL     1      25.620   5.878  48.978  1.00  0.00     0.043 C 
HETATM    2  C2  UNL     1      25.122   4.525  49.479  1.00  0.00    -0.081 C 
HETATM    3  C3  UNL     1      23.833   4.259  49.165  1.00  0.00    -0.005 C 
HETATM    4  C4  UNL     1      22.536   3.578  49.052  1.00  0.00     0.148 C 
HETATM    5  N1  UNL     1      22.529   2.226  49.609  1.00  0.00    -0.371 N 
HETATM    6  C5  UNL     1      22.964   1.620  50.797  1.00  0.00     0.138 A 
HETATM    7  N2  UNL     1      24.281   1.765  50.753  1.00  0.00    -0.215 NA
HETATM    8  C6  UNL     1      24.971   1.268  51.788  1.00  0.00     0.133 A 
HETATM    9  N3  UNL     1      24.406   0.640  52.855  1.00  0.00    -0.232 NA
HETATM   10  C7  UNL     1      23.071   0.520  52.849  1.00  0.00     0.079 A 
HETATM   11  C8  UNL     1      22.265   1.008  51.811  1.00  0.00     0.041 A 
HETATM   12  C9  UNL     1      20.935   1.167  51.272  1.00  0.00     0.042 C 
HETATM   13  C10 UNL     1      19.825   0.511  51.623  1.00  0.00     0.137 C 
HETATM   14  O1  UNL     1      19.302  -0.466  52.468  1.00  0.00    -0.344 OA
HETATM   15  C11 UNL     1      19.792  -0.958  53.700  1.00  0.00     0.233 C 
HETATM   16  S1  UNL     1      21.272  -1.022  54.457  1.00  0.00    -0.103 SA
HETATM   17  C12 UNL     1      22.655  -0.181  54.057  1.00  0.00     0.080 C 
HETATM   18  C13 UNL     1      26.409   1.516  51.571  1.00  0.00     0.058 C 
HETATM   19  C14 UNL     1      27.148   1.426  52.921  1.00  0.00     0.018 C 
HETATM   20  C15 UNL     1      26.705   2.832  50.951  1.00  0.00     0.011 C 
HETATM   21  C16 UNL     1      25.681   3.411  50.280  1.00  0.00     0.028 C 
HETATM   22  H7  UNL     1      22.148   1.303  49.228  1.00  0.00     0.161 HD
ENDROOT
TORSDOF 0
ENDMDL
