MODEL 1
REMARK VINA RESULT:      -8.0      0.000      0.000
REMARK  7 active torsions:
REMARK  status: ('A' for Active; 'I' for Inactive)
REMARK    1  A    between atoms: O1_1  and  C1_2 
REMARK    2  A    between atoms: C1_2  and  C2_3 
REMARK    3  A    between atoms: C2_3  and  C3_4 
REMARK    4  A    between atoms: C3_4  and  O2_5 
REMARK    5  A    between atoms: O2_5  and  C4_6 
REMARK    6  A    between atoms: C8_12  and  N3_13 
REMARK    7  A    between atoms: N3_13  and  C9_14 
ROOT
HETATM    1  C4  UNL     1      26.350  -0.180  52.921  1.00  0.00     0.107 A 
HETATM    2  C5  UNL     1      25.407  -0.799  53.706  1.00  0.00     0.072 A 
HETATM    3  C6  UNL     1      24.087  -0.435  53.809  1.00  0.00     0.077 A 
HETATM    4  N1  UNL     1      23.172  -1.034  54.579  1.00  0.00    -0.241 NA
HETATM    5  C7  UNL     1      21.907  -0.615  54.628  1.00  0.00     0.236 A 
HETATM    6  N2  UNL     1      21.523   0.441  53.884  1.00  0.00    -0.223 NA
HETATM    7  C8  UNL     1      22.421   1.085  53.083  1.00  0.00     0.144 A 
HETATM    8  C15 UNL     1      23.725   0.661  53.031  1.00  0.00     0.075 A 
HETATM    9  C16 UNL     1      24.575   1.363  52.207  1.00  0.00     0.121 A 
HETATM   10  C17 UNL     1      25.907   0.923  52.164  1.00  0.00     0.136 A 
HETATM   11  O3  UNL     1      26.753   1.658  51.315  1.00  0.00    -0.344 OA
HETATM   12  C18 UNL     1      26.382   2.803  50.618  1.00  0.00     0.202 C 
HETATM   13  C19 UNL     1      25.054   3.389  50.985  1.00  0.00     0.202 C 
HETATM   14  O4  UNL     1      24.142   2.445  51.465  1.00  0.00    -0.345 OA
ENDROOT
BRANCH   7  15
HETATM   15  N3  UNL     1      21.815   2.142  52.365  1.00  0.00    -0.340 N 
HETATM   16  H10 UNL     1      22.218   3.093  52.244  1.00  0.00     0.167 HD
BRANCH  15  17
HETATM   17  C9  UNL     1      20.573   2.038  51.683  1.00  0.00     0.035 A 
HETATM   18  C10 UNL     1      20.270   1.100  50.716  1.00  0.00     0.032 A 
HETATM   19  C11 UNL     1      19.088   0.982  50.032  1.00  0.00     0.046 A 
HETATM   20  C12 UNL     1      18.091   1.903  50.343  1.00  0.00     0.138 A 
HETATM   21  F1  UNL     1      16.936   1.750  49.641  1.00  0.00    -0.204 F 
HETATM   22  C13 UNL     1      18.343   2.860  51.302  1.00  0.00     0.074 A 
HETATM   23 CL1  UNL     1      17.049   3.992  51.651  1.00  0.00    -0.081 Cl
HETATM   24  C14 UNL     1      19.558   2.921  51.953  1.00  0.00     0.056 A 
ENDBRANCH  15  17
ENDBRANCH   7  15
BRANCH   1  25
HETATM   25  O2  UNL     1      27.650  -0.437  52.729  1.00  0.00    -0.348 OA
BRANCH  25  26
HETATM   26  C3  UNL     1      28.676  -0.962  53.460  1.00  0.00     0.178 C 
BRANCH  26  27
HETATM   27  C2  UNL     1      29.773   0.067  53.608  1.00  0.00     0.053 C 
BRANCH  27  28
HETATM   28  C1  UNL     1      29.247   1.366  54.181  1.00  0.00     0.166 C 
BRANCH  28  29
HETATM   29  O1  UNL     1      29.085   2.253  53.127  1.00  0.00    -0.401 OA
HETATM   30  H1  UNL     1      29.225   1.760  52.281  1.00  0.00     0.209 HD
ENDBRANCH  28  29
ENDBRANCH  27  28
ENDBRANCH  26  27
ENDBRANCH  25  26
ENDBRANCH   1  25
TORSDOF 7
ENDMDL
MODEL 2
REMARK VINA RESULT:      -7.9      4.519      8.115
REMARK  7 active torsions:
REMARK  status: ('A' for Active; 'I' for Inactive)
REMARK    1  A    between atoms: O1_1  and  C1_2 
REMARK    2  A    between atoms: C1_2  and  C2_3 
REMARK    3  A    between atoms: C2_3  and  C3_4 
REMARK    4  A    between atoms: C3_4  and  O2_5 
REMARK    5  A    between atoms: O2_5  and  C4_6 
REMARK    6  A    between atoms: C8_12  and  N3_13 
REMARK    7  A    between atoms: N3_13  and  C9_14 
ROOT
HETATM    1  C4  UNL     1      19.528  -0.357  52.781  1.00  0.00     0.107 A 
HETATM    2  C5  UNL     1      20.117  -0.953  53.869  1.00  0.00     0.072 A 
HETATM    3  C6  UNL     1      21.458  -0.936  54.163  1.00  0.00     0.077 A 
HETATM    4  N1  UNL     1      22.032  -1.523  55.218  1.00  0.00    -0.241 NA
HETATM    5  C7  UNL     1      23.348  -1.465  55.431  1.00  0.00     0.236 A 
HETATM    6  N2  UNL     1      24.136  -0.796  54.565  1.00  0.00    -0.223 NA
HETATM    7  C8  UNL     1      23.596  -0.181  53.473  1.00  0.00     0.144 A 
HETATM    8  C15 UNL     1      22.244  -0.241  53.247  1.00  0.00     0.075 A 
HETATM    9  C16 UNL     1      21.773   0.396  52.122  1.00  0.00     0.121 A 
HETATM   10  C17 UNL     1      20.389   0.326  51.899  1.00  0.00     0.136 A 
HETATM   11  O3  UNL     1      19.935   0.985  50.743  1.00  0.00    -0.344 OA
HETATM   12  C18 UNL     1      20.755   1.596  49.801  1.00  0.00     0.202 C 
HETATM   13  C19 UNL     1      22.222   1.330  49.941  1.00  0.00     0.202 C 
HETATM   14  O4  UNL     1      22.616   1.066  51.256  1.00  0.00    -0.345 OA
ENDROOT
BRANCH   7  15
HETATM   15  N3  UNL     1      24.582   0.487  52.711  1.00  0.00    -0.340 N 
HETATM   16  H10 UNL     1      24.401   1.040  51.849  1.00  0.00     0.167 HD
BRANCH  15  17
HETATM   17  C9  UNL     1      25.964   0.516  53.040  1.00  0.00     0.035 A 
HETATM   18  C10 UNL     1      26.656   1.626  53.484  1.00  0.00     0.032 A 
HETATM   19  C11 UNL     1      27.989   1.689  53.796  1.00  0.00     0.046 A 
HETATM   20  C12 UNL     1      28.721   0.514  53.650  1.00  0.00     0.138 A 
HETATM   21  F1  UNL     1      30.039   0.622  53.970  1.00  0.00    -0.204 F 
HETATM   22  C13 UNL     1      28.079  -0.623  53.210  1.00  0.00     0.074 A 
HETATM   23 CL1  UNL     1      29.053  -2.071  53.045  1.00  0.00    -0.081 Cl
HETATM   24  C14 UNL     1      26.731  -0.615  52.913  1.00  0.00     0.056 A 
ENDBRANCH  15  17
ENDBRANCH   7  15
BRANCH   1  25
HETATM   25  O2  UNL     1      18.249  -0.296  52.389  1.00  0.00    -0.348 OA
BRANCH  25  26
HETATM   26  C3  UNL     1      17.137  -1.080  52.503  1.00  0.00     0.178 C 
BRANCH  26  27
HETATM   27  C2  UNL     1      16.128  -0.686  51.449  1.00  0.00     0.053 C 
BRANCH  27  28
HETATM   28  C1  UNL     1      16.591   0.516  50.652  1.00  0.00     0.166 C 
BRANCH  28  29
HETATM   29  O1  UNL     1      17.406   0.050  49.630  1.00  0.00    -0.401 OA
HETATM   30  H1  UNL     1      18.345   0.089  49.938  1.00  0.00     0.209 HD
ENDBRANCH  28  29
ENDBRANCH  27  28
ENDBRANCH  26  27
ENDBRANCH  25  26
ENDBRANCH   1  25
TORSDOF 7
ENDMDL
MODEL 3
REMARK VINA RESULT:      -7.8      1.348      1.592
REMARK  7 active torsions:
REMARK  status: ('A' for Active; 'I' for Inactive)
REMARK    1  A    between atoms: O1_1  and  C1_2 
REMARK    2  A    between atoms: C1_2  and  C2_3 
REMARK    3  A    between atoms: C2_3  and  C3_4 
REMARK    4  A    between atoms: C3_4  and  O2_5 
REMARK    5  A    between atoms: O2_5  and  C4_6 
REMARK    6  A    between atoms: C8_12  and  N3_13 
REMARK    7  A    between atoms: N3_13  and  C9_14 
ROOT
HETATM    1  C4  UNL     1      25.971   0.212  54.289  1.00  0.00     0.107 A 
HETATM    2  C5  UNL     1      25.035  -0.561  54.931  1.00  0.00     0.072 A 
HETATM    3  C6  UNL     1      23.742  -0.765  54.513  1.00  0.00     0.077 A 
HETATM    4  N1  UNL     1      22.829  -1.512  55.143  1.00  0.00    -0.241 NA
HETATM    5  C7  UNL     1      21.589  -1.657  54.673  1.00  0.00     0.236 A 
HETATM    6  N2  UNL     1      21.231  -1.039  53.530  1.00  0.00    -0.223 NA
HETATM    7  C8  UNL     1      22.128  -0.265  52.852  1.00  0.00     0.144 A 
HETATM    8  C15 UNL     1      23.405  -0.110  53.332  1.00  0.00     0.075 A 
HETATM    9  C16 UNL     1      24.251   0.690  52.600  1.00  0.00     0.121 A 
HETATM   10  C17 UNL     1      25.553   0.844  53.101  1.00  0.00     0.136 A 
HETATM   11  O3  UNL     1      26.396   1.667  52.334  1.00  0.00    -0.344 OA
HETATM   12  C18 UNL     1      26.003   2.379  51.205  1.00  0.00     0.202 C 
HETATM   13  C19 UNL     1      24.530   2.425  50.943  1.00  0.00     0.202 C 
HETATM   14  O4  UNL     1      23.842   1.312  51.436  1.00  0.00    -0.345 OA
ENDROOT
BRANCH   7  15
HETATM   15  N3  UNL     1      21.567   0.268  51.668  1.00  0.00    -0.340 N 
HETATM   16  H10 UNL     1      21.846   0.004  50.702  1.00  0.00     0.167 HD
BRANCH  15  17
HETATM   17  C9  UNL     1      20.518   1.225  51.640  1.00  0.00     0.035 A 
HETATM   18  C10 UNL     1      20.657   2.570  51.917  1.00  0.00     0.032 A 
HETATM   19  C11 UNL     1      19.662   3.514  51.910  1.00  0.00     0.046 A 
HETATM   20  C12 UNL     1      18.381   3.071  51.594  1.00  0.00     0.138 A 
HETATM   21  F1  UNL     1      17.427   4.040  51.599  1.00  0.00    -0.204 F 
HETATM   22  C13 UNL     1      18.188   1.737  51.309  1.00  0.00     0.074 A 
HETATM   23 CL1  UNL     1      16.553   1.238  50.917  1.00  0.00    -0.081 Cl
HETATM   24  C14 UNL     1      19.236   0.839  51.333  1.00  0.00     0.056 A 
ENDBRANCH  15  17
ENDBRANCH   7  15
BRANCH   1  25
HETATM   25  O2  UNL     1      27.249   0.485  54.585  1.00  0.00    -0.348 OA
BRANCH  25  26
HETATM   26  C3  UNL     1      28.437  -0.186  54.564  1.00  0.00     0.178 C 
BRANCH  26  27
HETATM   27  C2  UNL     1      29.473   0.639  53.836  1.00  0.00     0.053 C 
BRANCH  27  28
HETATM   28  C1  UNL     1      29.384   2.104  54.209  1.00  0.00     0.166 C 
BRANCH  28  29
HETATM   29  O1  UNL     1      28.972   2.798  53.081  1.00  0.00    -0.401 OA
HETATM   30  H1  UNL     1      29.327   2.334  52.283  1.00  0.00     0.209 HD
ENDBRANCH  28  29
ENDBRANCH  27  28
ENDBRANCH  26  27
ENDBRANCH  25  26
ENDBRANCH   1  25
TORSDOF 7
ENDMDL
MODEL 4
REMARK VINA RESULT:      -7.7      2.265      3.457
REMARK  7 active torsions:
REMARK  status: ('A' for Active; 'I' for Inactive)
REMARK    1  A    between atoms: O1_1  and  C1_2 
REMARK    2  A    between atoms: C1_2  and  C2_3 
REMARK    3  A    between atoms: C2_3  and  C3_4 
REMARK    4  A    between atoms: C3_4  and  O2_5 
REMARK    5  A    between atoms: O2_5  and  C4_6 
REMARK    6  A    between atoms: C8_12  and  N3_13 
REMARK    7  A    between atoms: N3_13  and  C9_14 
ROOT
HETATM    1  C4  UNL     1      26.113  -0.059  52.993  1.00  0.00     0.107 A 
HETATM    2  C5  UNL     1      25.902   0.821  51.959  1.00  0.00     0.072 A 
HETATM    3  C6  UNL     1      24.707   1.427  51.656  1.00  0.00     0.077 A 
HETATM    4  N1  UNL     1      24.500   2.277  50.645  1.00  0.00    -0.241 NA
HETATM    5  C7  UNL     1      23.305   2.821  50.413  1.00  0.00     0.236 A 
HETATM    6  N2  UNL     1      22.263   2.515  51.214  1.00  0.00    -0.223 NA
HETATM    7  C8  UNL     1      22.427   1.651  52.257  1.00  0.00     0.144 A 
HETATM    8  C15 UNL     1      23.653   1.085  52.500  1.00  0.00     0.075 A 
HETATM    9  C16 UNL     1      23.740   0.218  53.564  1.00  0.00     0.121 A 
HETATM   10  C17 UNL     1      24.998  -0.356  53.800  1.00  0.00     0.136 A 
HETATM   11  O3  UNL     1      25.058  -1.238  54.893  1.00  0.00    -0.344 OA
HETATM   12  C18 UNL     1      23.966  -1.627  55.664  1.00  0.00     0.202 C 
HETATM   13  C19 UNL     1      22.622  -1.235  55.135  1.00  0.00     0.202 C 
HETATM   14  O4  UNL     1      22.646  -0.074  54.357  1.00  0.00    -0.345 OA
ENDROOT
BRANCH   7  15
HETATM   15  N3  UNL     1      21.227   1.486  52.989  1.00  0.00    -0.340 N 
HETATM   16  H10 UNL     1      21.060   1.837  53.953  1.00  0.00     0.167 HD
BRANCH  15  17
HETATM   17  C9  UNL     1      20.068   0.835  52.489  1.00  0.00     0.035 A 
HETATM   18  C10 UNL     1      19.380   1.195  51.347  1.00  0.00     0.032 A 
HETATM   19  C11 UNL     1      18.252   0.597  50.847  1.00  0.00     0.046 A 
HETATM   20  C12 UNL     1      17.749  -0.485  51.563  1.00  0.00     0.138 A 
HETATM   21  F1  UNL     1      16.631  -1.049  51.031  1.00  0.00    -0.204 F 
HETATM   22  C13 UNL     1      18.399  -0.887  52.710  1.00  0.00     0.074 A 
HETATM   23 CL1  UNL     1      17.719  -2.256  53.570  1.00  0.00    -0.081 Cl
HETATM   24  C14 UNL     1      19.532  -0.238  53.157  1.00  0.00     0.056 A 
ENDBRANCH  15  17
ENDBRANCH   7  15
BRANCH   1  25
HETATM   25  O2  UNL     1      27.216  -0.706  53.393  1.00  0.00    -0.348 OA
BRANCH  25  26
HETATM   26  C3  UNL     1      28.529  -0.396  53.600  1.00  0.00     0.178 C 
BRANCH  26  27
HETATM   27  C2  UNL     1      28.633   0.728  54.605  1.00  0.00     0.053 C 
BRANCH  27  28
HETATM   28  C1  UNL     1      28.925   2.053  53.933  1.00  0.00     0.166 C 
BRANCH  28  29
HETATM   29  O1  UNL     1      27.822   2.871  54.124  1.00  0.00    -0.401 OA
HETATM   30  H1  UNL     1      27.108   2.336  54.551  1.00  0.00     0.209 HD
ENDBRANCH  28  29
ENDBRANCH  27  28
ENDBRANCH  26  27
ENDBRANCH  25  26
ENDBRANCH   1  25
TORSDOF 7
ENDMDL
MODEL 5
REMARK VINA RESULT:      -7.7      4.509      8.119
REMARK  7 active torsions:
REMARK  status: ('A' for Active; 'I' for Inactive)
REMARK    1  A    between atoms: O1_1  and  C1_2 
REMARK    2  A    between atoms: C1_2  and  C2_3 
REMARK    3  A    between atoms: C2_3  and  C3_4 
REMARK    4  A    between atoms: C3_4  and  O2_5 
REMARK    5  A    between atoms: O2_5  and  C4_6 
REMARK    6  A    between atoms: C8_12  and  N3_13 
REMARK    7  A    between atoms: N3_13  and  C9_14 
ROOT
HETATM    1  C4  UNL     1      19.474  -0.167  52.387  1.00  0.00     0.107 A 
HETATM    2  C5  UNL     1      19.918  -0.832  53.505  1.00  0.00     0.072 A 
HETATM    3  C6  UNL     1      21.213  -0.859  53.959  1.00  0.00     0.077 A 
HETATM    4  N1  UNL     1      21.646  -1.512  55.042  1.00  0.00    -0.241 NA
HETATM    5  C7  UNL     1      22.926  -1.493  55.415  1.00  0.00     0.236 A 
HETATM    6  N2  UNL     1      23.824  -0.796  54.688  1.00  0.00    -0.223 NA
HETATM    7  C8  UNL     1      23.429  -0.114  53.574  1.00  0.00     0.144 A 
HETATM    8  C15 UNL     1      22.114  -0.133  53.183  1.00  0.00     0.075 A 
HETATM    9  C16 UNL     1      21.793   0.572  52.046  1.00  0.00     0.121 A 
HETATM   10  C17 UNL     1      20.445   0.543  51.655  1.00  0.00     0.136 A 
HETATM   11  O3  UNL     1      20.145   1.270  50.490  1.00  0.00    -0.344 OA
HETATM   12  C18 UNL     1      21.083   1.913  49.688  1.00  0.00     0.202 C 
HETATM   13  C19 UNL     1      22.517   1.609  49.990  1.00  0.00     0.202 C 
HETATM   14  O4  UNL     1      22.744   1.268  51.326  1.00  0.00    -0.345 OA
ENDROOT
BRANCH   7  15
HETATM   15  N3  UNL     1      24.510   0.573  52.974  1.00  0.00    -0.340 N 
HETATM   16  H10 UNL     1      24.429   1.442  52.409  1.00  0.00     0.167 HD
BRANCH  15  17
HETATM   17  C9  UNL     1      25.871   0.179  53.088  1.00  0.00     0.035 A 
HETATM   18  C10 UNL     1      26.383  -1.043  52.701  1.00  0.00     0.032 A 
HETATM   19  C11 UNL     1      27.685  -1.457  52.809  1.00  0.00     0.046 A 
HETATM   20  C12 UNL     1      28.584  -0.553  53.368  1.00  0.00     0.138 A 
HETATM   21  F1  UNL     1      29.864  -1.004  53.456  1.00  0.00    -0.204 F 
HETATM   22  C13 UNL     1      28.124   0.683  53.770  1.00  0.00     0.074 A 
HETATM   23 CL1  UNL     1      29.303   1.780  54.465  1.00  0.00    -0.081 Cl
HETATM   24  C14 UNL     1      26.797   1.034  53.631  1.00  0.00     0.056 A 
ENDBRANCH  15  17
ENDBRANCH   7  15
BRANCH   1  25
HETATM   25  O2  UNL     1      18.253  -0.059  51.847  1.00  0.00    -0.348 OA
BRANCH  25  26
HETATM   26  C3  UNL     1      17.287   0.902  51.761  1.00  0.00     0.178 C 
BRANCH  26  27
HETATM   27  C2  UNL     1      15.969   0.264  51.385  1.00  0.00     0.053 C 
BRANCH  27  28
HETATM   28  C1  UNL     1      15.712  -0.998  52.181  1.00  0.00     0.166 C 
BRANCH  28  29
HETATM   29  O1  UNL     1      15.993  -0.719  53.511  1.00  0.00    -0.401 OA
HETATM   30  H1  UNL     1      16.974  -0.662  53.617  1.00  0.00     0.209 HD
ENDBRANCH  28  29
ENDBRANCH  27  28
ENDBRANCH  26  27
ENDBRANCH  25  26
ENDBRANCH   1  25
TORSDOF 7
ENDMDL
MODEL 6
REMARK VINA RESULT:      -7.6      1.473      2.047
REMARK  7 active torsions:
REMARK  status: ('A' for Active; 'I' for Inactive)
REMARK    1  A    between atoms: O1_1  and  C1_2 
REMARK    2  A    between atoms: C1_2  and  C2_3 
REMARK    3  A    between atoms: C2_3  and  C3_4 
REMARK    4  A    between atoms: C3_4  and  O2_5 
REMARK    5  A    between atoms: O2_5  and  C4_6 
REMARK    6  A    between atoms: C8_12  and  N3_13 
REMARK    7  A    between atoms: N3_13  and  C9_14 
ROOT
HETATM    1  C4  UNL     1      26.856   0.738  54.200  1.00  0.00     0.107 A 
HETATM    2  C5  UNL     1      26.022  -0.070  54.934  1.00  0.00     0.072 A 
HETATM    3  C6  UNL     1      24.731  -0.400  54.602  1.00  0.00     0.077 A 
HETATM    4  N1  UNL     1      23.917  -1.180  55.321  1.00  0.00    -0.241 NA
HETATM    5  C7  UNL     1      22.671  -1.450  54.931  1.00  0.00     0.236 A 
HETATM    6  N2  UNL     1      22.203  -0.930  53.779  1.00  0.00    -0.223 NA
HETATM    7  C8  UNL     1      22.996  -0.127  53.011  1.00  0.00     0.144 A 
HETATM    8  C15 UNL     1      24.279   0.157  53.409  1.00  0.00     0.075 A 
HETATM    9  C16 UNL     1      25.017   0.979  52.588  1.00  0.00     0.121 A 
HETATM   10  C17 UNL     1      26.325   1.265  53.006  1.00  0.00     0.136 A 
HETATM   11  O3  UNL     1      27.056   2.107  52.150  1.00  0.00    -0.344 OA
HETATM   12  C18 UNL     1      26.547   2.719  51.009  1.00  0.00     0.202 C 
HETATM   13  C19 UNL     1      25.063   2.631  50.828  1.00  0.00     0.202 C 
HETATM   14  O4  UNL     1      24.497   1.497  51.418  1.00  0.00    -0.345 OA
ENDROOT
BRANCH   7  15
HETATM   15  N3  UNL     1      22.332   0.290  51.834  1.00  0.00    -0.340 N 
HETATM   16  H10 UNL     1      22.597   0.015  50.867  1.00  0.00     0.167 HD
BRANCH  15  17
HETATM   17  C9  UNL     1      21.185   1.127  51.817  1.00  0.00     0.035 A 
HETATM   18  C10 UNL     1      21.150   2.443  52.234  1.00  0.00     0.032 A 
HETATM   19  C11 UNL     1      20.058   3.271  52.241  1.00  0.00     0.046 A 
HETATM   20  C12 UNL     1      18.860   2.730  51.782  1.00  0.00     0.138 A 
HETATM   21  F1  UNL     1      17.803   3.587  51.807  1.00  0.00    -0.204 F 
HETATM   22  C13 UNL     1      18.840   1.421  51.353  1.00  0.00     0.074 A 
HETATM   23 CL1  UNL     1      17.303   0.796  50.786  1.00  0.00    -0.081 Cl
HETATM   24  C14 UNL     1      19.980   0.642  51.373  1.00  0.00     0.056 A 
ENDBRANCH  15  17
ENDBRANCH   7  15
BRANCH   1  25
HETATM   25  O2  UNL     1      28.120   1.128  54.408  1.00  0.00    -0.348 OA
BRANCH  25  26
HETATM   26  C3  UNL     1      29.364   0.708  54.033  1.00  0.00     0.178 C 
BRANCH  26  27
HETATM   27  C2  UNL     1      29.495  -0.776  54.284  1.00  0.00     0.053 C 
BRANCH  27  28
HETATM   28  C1  UNL     1      29.200  -1.583  53.037  1.00  0.00     0.166 C 
BRANCH  28  29
HETATM   29  O1  UNL     1      29.104  -2.915  53.413  1.00  0.00    -0.401 OA
HETATM   30  H1  UNL     1      30.012  -3.307  53.407  1.00  0.00     0.209 HD
ENDBRANCH  28  29
ENDBRANCH  27  28
ENDBRANCH  26  27
ENDBRANCH  25  26
ENDBRANCH   1  25
TORSDOF 7
ENDMDL
MODEL 7
REMARK VINA RESULT:      -7.5      1.690      3.239
REMARK  7 active torsions:
REMARK  status: ('A' for Active; 'I' for Inactive)
REMARK    1  A    between atoms: O1_1  and  C1_2 
REMARK    2  A    between atoms: C1_2  and  C2_3 
REMARK    3  A    between atoms: C2_3  and  C3_4 
REMARK    4  A    between atoms: C3_4  and  O2_5 
REMARK    5  A    between atoms: O2_5  and  C4_6 
REMARK    6  A    between atoms: C8_12  and  N3_13 
REMARK    7  A    between atoms: N3_13  and  C9_14 
ROOT
HETATM    1  C4  UNL     1      26.186  -0.002  53.410  1.00  0.00     0.107 A 
HETATM    2  C5  UNL     1      26.138   0.882  52.360  1.00  0.00     0.072 A 
HETATM    3  C6  UNL     1      25.005   1.486  51.872  1.00  0.00     0.077 A 
HETATM    4  N1  UNL     1      24.958   2.341  50.845  1.00  0.00    -0.241 NA
HETATM    5  C7  UNL     1      23.813   2.882  50.428  1.00  0.00     0.236 A 
HETATM    6  N2  UNL     1      22.659   2.569  51.051  1.00  0.00    -0.223 NA
HETATM    7  C8  UNL     1      22.657   1.701  52.104  1.00  0.00     0.144 A 
HETATM    8  C15 UNL     1      23.832   1.138  52.536  1.00  0.00     0.075 A 
HETATM    9  C16 UNL     1      23.750   0.266  53.597  1.00  0.00     0.121 A 
HETATM   10  C17 UNL     1      24.957  -0.306  54.028  1.00  0.00     0.136 A 
HETATM   11  O3  UNL     1      24.845  -1.193  55.113  1.00  0.00    -0.344 OA
HETATM   12  C18 UNL     1      23.646  -1.589  55.698  1.00  0.00     0.202 C 
HETATM   13  C19 UNL     1      22.402  -1.198  54.964  1.00  0.00     0.202 C 
HETATM   14  O4  UNL     1      22.546  -0.034  54.204  1.00  0.00    -0.345 OA
ENDROOT
BRANCH   7  15
HETATM   15  N3  UNL     1      21.357   1.529  52.634  1.00  0.00    -0.340 N 
HETATM   16  H10 UNL     1      21.136   1.361  53.636  1.00  0.00     0.167 HD
BRANCH  15  17
HETATM   17  C9  UNL     1      20.164   1.591  51.865  1.00  0.00     0.035 A 
HETATM   18  C10 UNL     1      19.724   0.613  50.995  1.00  0.00     0.032 A 
HETATM   19  C11 UNL     1      18.586   0.649  50.231  1.00  0.00     0.046 A 
HETATM   20  C12 UNL     1      17.794   1.788  50.342  1.00  0.00     0.138 A 
HETATM   21  F1  UNL     1      16.676   1.781  49.567  1.00  0.00    -0.204 F 
HETATM   22  C13 UNL     1      18.188   2.794  51.198  1.00  0.00     0.074 A 
HETATM   23 CL1  UNL     1      17.150   4.204  51.296  1.00  0.00    -0.081 Cl
HETATM   24  C14 UNL     1      19.348   2.691  51.939  1.00  0.00     0.056 A 
ENDBRANCH  15  17
ENDBRANCH   7  15
BRANCH   1  25
HETATM   25  O2  UNL     1      27.212  -0.648  53.978  1.00  0.00    -0.348 OA
BRANCH  25  26
HETATM   26  C3  UNL     1      28.531  -0.394  54.225  1.00  0.00     0.178 C 
BRANCH  26  27
HETATM   27  C2  UNL     1      29.387  -1.136  53.225  1.00  0.00     0.053 C 
BRANCH  27  28
HETATM   28  C1  UNL     1      29.407  -2.625  53.501  1.00  0.00     0.166 C 
BRANCH  28  29
HETATM   29  O1  UNL     1      28.319  -3.186  52.847  1.00  0.00    -0.401 OA
HETATM   30  H1  UNL     1      28.472  -3.117  51.873  1.00  0.00     0.209 HD
ENDBRANCH  28  29
ENDBRANCH  27  28
ENDBRANCH  26  27
ENDBRANCH  25  26
ENDBRANCH   1  25
TORSDOF 7
ENDMDL
MODEL 8
REMARK VINA RESULT:      -7.4      3.059      4.877
REMARK  7 active torsions:
REMARK  status: ('A' for Active; 'I' for Inactive)
REMARK    1  A    between atoms: O1_1  and  C1_2 
REMARK    2  A    between atoms: C1_2  and  C2_3 
REMARK    3  A    between atoms: C2_3  and  C3_4 
REMARK    4  A    between atoms: C3_4  and  O2_5 
REMARK    5  A    between atoms: O2_5  and  C4_6 
REMARK    6  A    between atoms: C8_12  and  N3_13 
REMARK    7  A    between atoms: N3_13  and  C9_14 
ROOT
HETATM    1  C4  UNL     1      26.153   4.027  49.768  1.00  0.00     0.107 A 
HETATM    2  C5  UNL     1      26.681   2.844  50.227  1.00  0.00     0.072 A 
HETATM    3  C6  UNL     1      26.107   2.023  51.166  1.00  0.00     0.077 A 
HETATM    4  N1  UNL     1      26.624   0.876  51.618  1.00  0.00    -0.241 NA
HETATM    5  C7  UNL     1      26.005   0.136  52.538  1.00  0.00     0.236 A 
HETATM    6  N2  UNL     1      24.820   0.542  53.037  1.00  0.00    -0.223 NA
HETATM    7  C8  UNL     1      24.253   1.706  52.607  1.00  0.00     0.144 A 
HETATM    8  C15 UNL     1      24.887   2.474  51.663  1.00  0.00     0.075 A 
HETATM    9  C16 UNL     1      24.258   3.638  51.284  1.00  0.00     0.121 A 
HETATM   10  C17 UNL     1      24.917   4.416  50.320  1.00  0.00     0.136 A 
HETATM   11  O3  UNL     1      24.253   5.600  49.951  1.00  0.00    -0.344 OA
HETATM   12  C18 UNL     1      23.078   6.067  50.530  1.00  0.00     0.202 C 
HETATM   13  C19 UNL     1      22.633   5.356  51.770  1.00  0.00     0.202 C 
HETATM   14  O4  UNL     1      23.046   4.022  51.824  1.00  0.00    -0.345 OA
ENDROOT
BRANCH   7  15
HETATM   15  N3  UNL     1      23.003   1.937  53.228  1.00  0.00    -0.340 N 
HETATM   16  H10 UNL     1      22.714   2.827  53.681  1.00  0.00     0.167 HD
BRANCH  15  17
HETATM   17  C9  UNL     1      21.953   0.982  53.292  1.00  0.00     0.035 A 
HETATM   18  C10 UNL     1      21.826  -0.001  54.254  1.00  0.00     0.032 A 
HETATM   19  C11 UNL     1      20.833  -0.943  54.336  1.00  0.00     0.046 A 
HETATM   20  C12 UNL     1      19.854  -0.906  53.348  1.00  0.00     0.138 A 
HETATM   21  F1  UNL     1      18.890  -1.858  53.468  1.00  0.00    -0.204 F 
HETATM   22  C13 UNL     1      19.934   0.056  52.364  1.00  0.00     0.074 A 
HETATM   23 CL1  UNL     1      18.671   0.052  51.147  1.00  0.00    -0.081 Cl
HETATM   24  C14 UNL     1      20.962   0.976  52.343  1.00  0.00     0.056 A 
ENDBRANCH  15  17
ENDBRANCH   7  15
BRANCH   1  25
HETATM   25  O2  UNL     1      26.604   4.906  48.863  1.00  0.00    -0.348 OA
BRANCH  25  26
HETATM   26  C3  UNL     1      27.813   5.427  48.502  1.00  0.00     0.178 C 
BRANCH  26  27
HETATM   27  C2  UNL     1      27.614   6.797  47.896  1.00  0.00     0.053 C 
BRANCH  27  28
HETATM   28  C1  UNL     1      27.585   7.879  48.956  1.00  0.00     0.166 C 
BRANCH  28  29
HETATM   29  O1  UNL     1      26.807   7.414  50.006  1.00  0.00    -0.401 OA
HETATM   30  H1  UNL     1      26.586   8.179  50.592  1.00  0.00     0.209 HD
ENDBRANCH  28  29
ENDBRANCH  27  28
ENDBRANCH  26  27
ENDBRANCH  25  26
ENDBRANCH   1  25
TORSDOF 7
ENDMDL
MODEL 9
REMARK VINA RESULT:      -7.0      2.032      3.521
REMARK  7 active torsions:
REMARK  status: ('A' for Active; 'I' for Inactive)
REMARK    1  A    between atoms: O1_1  and  C1_2 
REMARK    2  A    between atoms: C1_2  and  C2_3 
REMARK    3  A    between atoms: C2_3  and  C3_4 
REMARK    4  A    between atoms: C3_4  and  O2_5 
REMARK    5  A    between atoms: O2_5  and  C4_6 
REMARK    6  A    between atoms: C8_12  and  N3_13 
REMARK    7  A    between atoms: N3_13  and  C9_14 
ROOT
HETATM    1  C4  UNL     1      25.014   0.634  52.672  1.00  0.00     0.107 A 
HETATM    2  C5  UNL     1      24.926   1.641  51.742  1.00  0.00     0.072 A 
HETATM    3  C6  UNL     1      23.786   2.338  51.422  1.00  0.00     0.077 A 
HETATM    4  N1  UNL     1      23.699   3.313  50.512  1.00  0.00    -0.241 NA
HETATM    5  C7  UNL     1      22.550   3.940  50.255  1.00  0.00     0.236 A 
HETATM    6  N2  UNL     1      21.434   3.592  50.928  1.00  0.00    -0.223 NA
HETATM    7  C8  UNL     1      21.474   2.602  51.866  1.00  0.00     0.144 A 
HETATM    8  C15 UNL     1      22.652   1.951  52.132  1.00  0.00     0.075 A 
HETATM    9  C16 UNL     1      22.614   0.960  53.085  1.00  0.00     0.121 A 
HETATM   10  C17 UNL     1      23.824   0.299  53.346  1.00  0.00     0.136 A 
HETATM   11  O3  UNL     1      23.756  -0.710  54.324  1.00  0.00    -0.344 OA
HETATM   12  C18 UNL     1      22.589  -1.133  54.952  1.00  0.00     0.202 C 
HETATM   13  C19 UNL     1      21.310  -0.614  54.372  1.00  0.00     0.202 C 
HETATM   14  O4  UNL     1      21.447   0.629  53.747  1.00  0.00    -0.345 OA
ENDROOT
BRANCH   7  15
HETATM   15  N3  UNL     1      20.212   2.411  52.475  1.00  0.00    -0.340 N 
HETATM   16  H10 UNL     1      20.048   2.313  53.497  1.00  0.00     0.167 HD
BRANCH  15  17
HETATM   17  C9  UNL     1      18.982   2.354  51.766  1.00  0.00     0.035 A 
HETATM   18  C10 UNL     1      18.090   3.400  51.630  1.00  0.00     0.032 A 
HETATM   19  C11 UNL     1      16.891   3.372  50.964  1.00  0.00     0.046 A 
HETATM   20  C12 UNL     1      16.536   2.166  50.367  1.00  0.00     0.138 A 
HETATM   21  F1  UNL     1      15.341   2.184  49.718  1.00  0.00    -0.204 F 
HETATM   22  C13 UNL     1      17.392   1.091  50.473  1.00  0.00     0.074 A 
HETATM   23 CL1  UNL     1      16.890  -0.401  49.699  1.00  0.00    -0.081 Cl
HETATM   24  C14 UNL     1      18.585   1.189  51.158  1.00  0.00     0.056 A 
ENDBRANCH  15  17
ENDBRANCH   7  15
BRANCH   1  25
HETATM   25  O2  UNL     1      26.052  -0.111  53.075  1.00  0.00    -0.348 OA
BRANCH  25  26
HETATM   26  C3  UNL     1      27.372  -0.233  52.750  1.00  0.00     0.178 C 
BRANCH  26  27
HETATM   27  C2  UNL     1      28.221   0.387  53.835  1.00  0.00     0.053 C 
BRANCH  27  28
HETATM   28  C1  UNL     1      28.585   1.821  53.510  1.00  0.00     0.166 C 
BRANCH  28  29
HETATM   29  O1  UNL     1      27.594   2.635  54.038  1.00  0.00    -0.401 OA
HETATM   30  H1  UNL     1      27.974   3.536  54.182  1.00  0.00     0.209 HD
ENDBRANCH  28  29
ENDBRANCH  27  28
ENDBRANCH  26  27
ENDBRANCH  25  26
ENDBRANCH   1  25
TORSDOF 7
ENDMDL
