MODEL 1
REMARK VINA RESULT:      -7.8      0.000      0.000
REMARK  4 active torsions:
REMARK  status: ('A' for Active; 'I' for Inactive)
REMARK    1  A    between atoms: C2_2  and  C3_3 
REMARK       I    between atoms: C3_3  and  N1_5 
REMARK    2  A    between atoms: N1_5  and  C4_6 
REMARK    3  A    between atoms: C10_13  and  N3_14 
REMARK    4  A    between atoms: N3_14  and  C11_15 
ROOT
HETATM    1  C4  UNL     1      25.200  -0.869  54.354  1.00  0.00     0.074 C 
HETATM    2  C5  UNL     1      24.453  -1.138  55.387  1.00  0.00     0.039 C 
HETATM    3  C6  UNL     1      23.013  -1.079  55.422  1.00  0.00     0.031 C 
HETATM    4  C7  UNL     1      22.220  -0.746  54.479  1.00  0.00     0.049 A 
HETATM    5  N2  UNL     1      21.219  -0.453  53.682  1.00  0.00    -0.335 N 
HETATM    6  C8  UNL     1      19.972  -0.529  53.536  1.00  0.00     0.095 C 
HETATM    7  C9  UNL     1      20.423   0.166  52.303  1.00  0.00     0.045 C 
HETATM    8  C10 UNL     1      21.754   0.358  52.287  1.00  0.00     0.047 C 
HETATM    9  C17 UNL     1      22.726   0.081  53.318  1.00  0.00     0.219 A 
HETATM   10  S1  UNL     1      24.317  -0.581  52.834  1.00  0.00    -0.077 SA
ENDROOT
BRANCH   8  11
HETATM   11  N3  UNL     1      22.321   1.023  51.130  1.00  0.00    -0.357 N 
HETATM   12  H11 UNL     1      22.535   0.688  50.176  1.00  0.00     0.166 HD
BRANCH  11  13
HETATM   13  C11 UNL     1      22.653   2.413  51.364  1.00  0.00     0.033 A 
HETATM   14  C12 UNL     1      22.013   3.280  52.220  1.00  0.00     0.029 A 
HETATM   15  C13 UNL     1      22.521   4.580  52.328  1.00  0.00     0.004 A 
HETATM   16  C14 UNL     1      23.626   5.033  51.625  1.00  0.00     0.019 A 
HETATM   17  C15 UNL     1      24.218   4.090  50.776  1.00  0.00     0.013 A 
HETATM   18 BR1  UNL     1      25.755   4.691  49.791  1.00  0.00    -0.051 Br
HETATM   19  C16 UNL     1      23.776   2.795  50.617  1.00  0.00     0.048 A 
ENDBRANCH  11  13
ENDBRANCH   8  11
BRANCH   1  20
HETATM   20  N1  UNL     1      26.586  -0.902  54.281  1.00  0.00    -0.322 N 
HETATM   21  C3  UNL     1      27.397   0.221  54.488  1.00  0.00     0.222 C 
HETATM   22  O1  UNL     1      27.073   1.400  54.764  1.00  0.00    -0.273 OA
HETATM   23  H6  UNL     1      27.244  -1.647  54.088  1.00  0.00     0.169 HD
BRANCH  21  24
HETATM   24  C2  UNL     1      28.772   0.696  54.524  1.00  0.00     0.098 C 
HETATM   25  C1  UNL     1      29.646  -0.284  53.719  1.00  0.00     0.014 C 
ENDBRANCH  21  24
ENDBRANCH   1  20
TORSDOF 4
ENDMDL
MODEL 2
REMARK VINA RESULT:      -7.6      2.687      4.082
REMARK  4 active torsions:
REMARK  status: ('A' for Active; 'I' for Inactive)
REMARK    1  A    between atoms: C2_2  and  C3_3 
REMARK       I    between atoms: C3_3  and  N1_5 
REMARK    2  A    between atoms: N1_5  and  C4_6 
REMARK    3  A    between atoms: C10_13  and  N3_14 
REMARK    4  A    between atoms: N3_14  and  C11_15 
ROOT
HETATM    1  C4  UNL     1      25.206   1.117  53.431  1.00  0.00     0.074 C 
HETATM    2  C5  UNL     1      24.195   0.355  53.121  1.00  0.00     0.039 C 
HETATM    3  C6  UNL     1      23.247   0.606  52.064  1.00  0.00     0.031 C 
HETATM    4  C7  UNL     1      23.210   1.601  51.265  1.00  0.00     0.049 A 
HETATM    5  N2  UNL     1      22.967   2.503  50.342  1.00  0.00    -0.335 N 
HETATM    6  C8  UNL     1      22.316   2.742  49.293  1.00  0.00     0.095 C 
HETATM    7  C9  UNL     1      23.081   3.996  49.520  1.00  0.00     0.045 C 
HETATM    8  C10 UNL     1      23.837   3.934  50.630  1.00  0.00     0.047 C 
HETATM    9  C17 UNL     1      23.904   2.893  51.629  1.00  0.00     0.219 A 
HETATM   10  S1  UNL     1      25.503   2.475  52.317  1.00  0.00    -0.077 SA
ENDROOT
BRANCH   8  11
HETATM   11  N3  UNL     1      24.639   5.096  50.960  1.00  0.00    -0.357 N 
HETATM   12  H11 UNL     1      24.573   5.786  51.727  1.00  0.00     0.166 HD
BRANCH  11  13
HETATM   13  C11 UNL     1      25.730   5.331  50.036  1.00  0.00     0.033 A 
HETATM   14  C12 UNL     1      26.566   4.384  49.491  1.00  0.00     0.029 A 
HETATM   15  C13 UNL     1      27.537   4.821  48.583  1.00  0.00     0.004 A 
HETATM   16  C14 UNL     1      27.696   6.146  48.207  1.00  0.00     0.019 A 
HETATM   17  C15 UNL     1      26.807   7.045  48.808  1.00  0.00     0.013 A 
HETATM   18 BR1  UNL     1      27.003   8.889  48.302  1.00  0.00    -0.051 Br
HETATM   19  C16 UNL     1      25.827   6.691  49.710  1.00  0.00     0.048 A 
ENDBRANCH  11  13
ENDBRANCH   8  11
BRANCH   1  20
HETATM   20  N1  UNL     1      26.133   0.919  54.445  1.00  0.00    -0.322 N 
HETATM   21  C3  UNL     1      27.418   0.405  54.227  1.00  0.00     0.222 C 
HETATM   22  O1  UNL     1      27.964   0.044  53.157  1.00  0.00    -0.273 OA
HETATM   23  H6  UNL     1      26.101   1.081  55.443  1.00  0.00     0.169 HD
BRANCH  21  24
HETATM   24  C2  UNL     1      28.668   0.030  54.872  1.00  0.00     0.098 C 
HETATM   25  C1  UNL     1      29.558  -0.675  53.832  1.00  0.00     0.014 C 
ENDBRANCH  21  24
ENDBRANCH   1  20
TORSDOF 4
ENDMDL
MODEL 3
REMARK VINA RESULT:      -7.5      3.298      6.121
REMARK  4 active torsions:
REMARK  status: ('A' for Active; 'I' for Inactive)
REMARK    1  A    between atoms: C2_2  and  C3_3 
REMARK       I    between atoms: C3_3  and  N1_5 
REMARK    2  A    between atoms: N1_5  and  C4_6 
REMARK    3  A    between atoms: C10_13  and  N3_14 
REMARK    4  A    between atoms: N3_14  and  C11_15 
ROOT
HETATM    1  C4  UNL     1      24.562   4.136  49.562  1.00  0.00     0.074 C 
HETATM    2  C5  UNL     1      23.590   3.636  48.852  1.00  0.00     0.039 C 
HETATM    3  C6  UNL     1      22.696   2.586  49.273  1.00  0.00     0.031 C 
HETATM    4  C7  UNL     1      22.697   1.953  50.382  1.00  0.00     0.049 A 
HETATM    5  N2  UNL     1      22.494   1.181  51.423  1.00  0.00    -0.335 N 
HETATM    6  C8  UNL     1      21.680   0.389  51.965  1.00  0.00     0.095 C 
HETATM    7  C9  UNL     1      22.823   0.417  52.916  1.00  0.00     0.045 C 
HETATM    8  C10 UNL     1      23.818   1.213  52.488  1.00  0.00     0.047 C 
HETATM    9  C17 UNL     1      23.947   1.916  51.233  1.00  0.00     0.219 A 
HETATM   10  S1  UNL     1      24.642   3.566  51.248  1.00  0.00    -0.077 SA
ENDROOT
BRANCH   8  11
HETATM   11  N3  UNL     1      24.992   1.330  53.331  1.00  0.00    -0.357 N 
HETATM   12  H11 UNL     1      25.278   2.046  54.021  1.00  0.00     0.166 HD
BRANCH  11  13
HETATM   13  C11 UNL     1      25.936   0.245  53.168  1.00  0.00     0.033 A 
HETATM   14  C12 UNL     1      25.661  -1.026  52.716  1.00  0.00     0.029 A 
HETATM   15  C13 UNL     1      26.732  -1.918  52.593  1.00  0.00     0.004 A 
HETATM   16  C14 UNL     1      28.043  -1.590  52.901  1.00  0.00     0.019 A 
HETATM   17  C15 UNL     1      28.238  -0.280  53.355  1.00  0.00     0.013 A 
HETATM   18 BR1  UNL     1      30.048   0.203  53.784  1.00  0.00    -0.051 Br
HETATM   19  C16 UNL     1      27.235   0.654  53.501  1.00  0.00     0.048 A 
ENDBRANCH  11  13
ENDBRANCH   8  11
BRANCH   1  20
HETATM   20  N1  UNL     1      25.450   5.136  49.193  1.00  0.00    -0.322 N 
HETATM   21  C3  UNL     1      26.800   4.901  48.901  1.00  0.00     0.222 C 
HETATM   22  O1  UNL     1      27.443   3.825  48.908  1.00  0.00    -0.273 OA
HETATM   23  H6  UNL     1      25.343   6.134  49.064  1.00  0.00     0.169 HD
BRANCH  21  24
HETATM   24  C2  UNL     1      28.052   5.529  48.503  1.00  0.00     0.098 C 
HETATM   25  C1  UNL     1      27.738   6.938  47.966  1.00  0.00     0.014 C 
ENDBRANCH  21  24
ENDBRANCH   1  20
TORSDOF 4
ENDMDL
MODEL 4
REMARK VINA RESULT:      -7.3      2.002      2.688
REMARK  4 active torsions:
REMARK  status: ('A' for Active; 'I' for Inactive)
REMARK    1  A    between atoms: C2_2  and  C3_3 
REMARK       I    between atoms: C3_3  and  N1_5 
REMARK    2  A    between atoms: N1_5  and  C4_6 
REMARK    3  A    between atoms: C10_13  and  N3_14 
REMARK    4  A    between atoms: N3_14  and  C11_15 
ROOT
HETATM    1  C4  UNL     1      25.317  -0.055  53.048  1.00  0.00     0.074 C 
HETATM    2  C5  UNL     1      24.319  -0.737  53.533  1.00  0.00     0.039 C 
HETATM    3  C6  UNL     1      22.938  -0.323  53.530  1.00  0.00     0.031 C 
HETATM    4  C7  UNL     1      22.448   0.766  53.079  1.00  0.00     0.049 A 
HETATM    5  N2  UNL     1      21.718   1.786  52.691  1.00  0.00    -0.335 N 
HETATM    6  C8  UNL     1      20.542   2.178  52.475  1.00  0.00     0.095 C 
HETATM    7  C9  UNL     1      21.371   3.367  52.146  1.00  0.00     0.045 C 
HETATM    8  C10 UNL     1      22.682   3.140  52.337  1.00  0.00     0.047 C 
HETATM    9  C17 UNL     1      23.333   1.979  52.898  1.00  0.00     0.219 A 
HETATM   10  S1  UNL     1      24.868   1.424  52.163  1.00  0.00    -0.077 SA
ENDROOT
BRANCH   8  11
HETATM   11  N3  UNL     1      23.600   4.224  52.045  1.00  0.00    -0.357 N 
HETATM   12  H11 UNL     1      24.307   4.705  52.625  1.00  0.00     0.166 HD
BRANCH  11  13
HETATM   13  C11 UNL     1      23.497   4.723  50.689  1.00  0.00     0.033 A 
HETATM   14  C12 UNL     1      23.572   3.984  49.531  1.00  0.00     0.029 A 
HETATM   15  C13 UNL     1      23.407   4.660  48.317  1.00  0.00     0.004 A 
HETATM   16  C14 UNL     1      23.173   6.023  48.224  1.00  0.00     0.019 A 
HETATM   17  C15 UNL     1      23.112   6.702  49.446  1.00  0.00     0.013 A 
HETATM   18 BR1  UNL     1      22.784   8.592  49.346  1.00  0.00    -0.051 Br
HETATM   19  C16 UNL     1      23.265   6.105  50.680  1.00  0.00     0.048 A 
ENDBRANCH  11  13
ENDBRANCH   8  11
BRANCH   1  20
HETATM   20  N1  UNL     1      26.659  -0.410  53.041  1.00  0.00    -0.322 N 
HETATM   21  C3  UNL     1      27.581   0.034  53.998  1.00  0.00     0.222 C 
HETATM   22  O1  UNL     1      27.406   0.784  54.988  1.00  0.00    -0.273 OA
HETATM   23  H6  UNL     1      27.209  -0.995  52.425  1.00  0.00     0.169 HD
BRANCH  21  24
HETATM   24  C2  UNL     1      28.973  -0.027  54.417  1.00  0.00     0.098 C 
HETATM   25  C1  UNL     1      29.722  -0.988  53.474  1.00  0.00     0.014 C 
ENDBRANCH  21  24
ENDBRANCH   1  20
TORSDOF 4
ENDMDL
MODEL 5
REMARK VINA RESULT:      -7.2      2.639      3.875
REMARK  4 active torsions:
REMARK  status: ('A' for Active; 'I' for Inactive)
REMARK    1  A    between atoms: C2_2  and  C3_3 
REMARK       I    between atoms: C3_3  and  N1_5 
REMARK    2  A    between atoms: N1_5  and  C4_6 
REMARK    3  A    between atoms: C10_13  and  N3_14 
REMARK    4  A    between atoms: N3_14  and  C11_15 
ROOT
HETATM    1  C4  UNL     1      25.684   1.379  53.273  1.00  0.00     0.074 C 
HETATM    2  C5  UNL     1      24.510   0.822  53.375  1.00  0.00     0.039 C 
HETATM    3  C6  UNL     1      23.435   0.947  52.423  1.00  0.00     0.031 C 
HETATM    4  C7  UNL     1      23.424   1.620  51.338  1.00  0.00     0.049 A 
HETATM    5  N2  UNL     1      23.173   2.218  50.197  1.00  0.00    -0.335 N 
HETATM    6  C8  UNL     1      22.383   2.265  49.219  1.00  0.00     0.095 C 
HETATM    7  C9  UNL     1      23.394   3.306  48.899  1.00  0.00     0.045 C 
HETATM    8  C10 UNL     1      24.329   3.417  49.858  1.00  0.00     0.047 C 
HETATM    9  C17 UNL     1      24.400   2.758  51.141  1.00  0.00     0.219 A 
HETATM   10  S1  UNL     1      25.999   2.208  51.729  1.00  0.00    -0.077 SA
ENDROOT
BRANCH   8  11
HETATM   11  N3  UNL     1      25.379   4.398  49.661  1.00  0.00    -0.357 N 
HETATM   12  H11 UNL     1      26.389   4.299  49.465  1.00  0.00     0.166 HD
BRANCH  11  13
HETATM   13  C11 UNL     1      24.921   5.768  49.766  1.00  0.00     0.033 A 
HETATM   14  C12 UNL     1      24.316   6.354  50.855  1.00  0.00     0.029 A 
HETATM   15  C13 UNL     1      23.985   7.710  50.762  1.00  0.00     0.004 A 
HETATM   16  C14 UNL     1      24.234   8.486  49.641  1.00  0.00     0.019 A 
HETATM   17  C15 UNL     1      24.849   7.816  48.578  1.00  0.00     0.013 A 
HETATM   18 BR1  UNL     1      25.209   8.869  47.012  1.00  0.00    -0.051 Br
HETATM   19  C16 UNL     1      25.204   6.484  48.595  1.00  0.00     0.048 A 
ENDBRANCH  11  13
ENDBRANCH   8  11
BRANCH   1  20
HETATM   20  N1  UNL     1      26.740   1.294  54.170  1.00  0.00    -0.322 N 
HETATM   21  C3  UNL     1      27.800   0.389  54.031  1.00  0.00     0.222 C 
HETATM   22  O1  UNL     1      28.007  -0.469  53.141  1.00  0.00    -0.273 OA
HETATM   23  H6  UNL     1      26.961   1.801  55.018  1.00  0.00     0.169 HD
BRANCH  21  24
HETATM   24  C2  UNL     1      29.044  -0.077  54.628  1.00  0.00     0.098 C 
HETATM   25  C1  UNL     1      29.857  -0.809  53.543  1.00  0.00     0.014 C 
ENDBRANCH  21  24
ENDBRANCH   1  20
TORSDOF 4
ENDMDL
MODEL 6
REMARK VINA RESULT:      -7.1      2.586      5.339
REMARK  4 active torsions:
REMARK  status: ('A' for Active; 'I' for Inactive)
REMARK    1  A    between atoms: C2_2  and  C3_3 
REMARK       I    between atoms: C3_3  and  N1_5 
REMARK    2  A    between atoms: N1_5  and  C4_6 
REMARK    3  A    between atoms: C10_13  and  N3_14 
REMARK    4  A    between atoms: N3_14  and  C11_15 
ROOT
HETATM    1  C4  UNL     1      20.613  -0.564  53.849  1.00  0.00     0.074 C 
HETATM    2  C5  UNL     1      21.359  -1.310  54.614  1.00  0.00     0.039 C 
HETATM    3  C6  UNL     1      22.796  -1.238  54.714  1.00  0.00     0.031 C 
HETATM    4  C7  UNL     1      23.588  -0.464  54.079  1.00  0.00     0.049 A 
HETATM    5  N2  UNL     1      24.586   0.215  53.564  1.00  0.00    -0.335 N 
HETATM    6  C8  UNL     1      25.807   0.489  53.688  1.00  0.00     0.095 C 
HETATM    7  C9  UNL     1      25.400   1.257  52.482  1.00  0.00     0.045 C 
HETATM    8  C10 UNL     1      24.104   1.071  52.177  1.00  0.00     0.047 C 
HETATM    9  C17 UNL     1      23.145   0.177  52.783  1.00  0.00     0.219 A 
HETATM   10  S1  UNL     1      21.466   0.756  53.010  1.00  0.00    -0.077 SA
ENDROOT
BRANCH   8  11
HETATM   11  N3  UNL     1      23.580   1.772  51.021  1.00  0.00    -0.357 N 
HETATM   12  H11 UNL     1      23.087   1.439  50.175  1.00  0.00     0.166 HD
BRANCH  11  13
HETATM   13  C11 UNL     1      23.796   3.204  51.063  1.00  0.00     0.033 A 
HETATM   14  C12 UNL     1      23.175   4.107  51.895  1.00  0.00     0.029 A 
HETATM   15  C13 UNL     1      23.560   5.449  51.800  1.00  0.00     0.004 A 
HETATM   16  C14 UNL     1      24.526   5.910  50.919  1.00  0.00     0.019 A 
HETATM   17  C15 UNL     1      25.107   4.929  50.107  1.00  0.00     0.013 A 
HETATM   18 BR1  UNL     1      26.452   5.541  48.879  1.00  0.00    -0.051 Br
HETATM   19  C16 UNL     1      24.781   3.590  50.143  1.00  0.00     0.048 A 
ENDBRANCH  11  13
ENDBRANCH   8  11
BRANCH   1  20
HETATM   20  N1  UNL     1      19.232  -0.607  53.714  1.00  0.00    -0.322 N 
HETATM   21  C3  UNL     1      18.568  -0.398  52.499  1.00  0.00     0.222 C 
HETATM   22  O1  UNL     1      19.039  -0.149  51.363  1.00  0.00    -0.273 OA
HETATM   23  H6  UNL     1      18.485  -0.778  54.375  1.00  0.00     0.169 HD
BRANCH  21  24
HETATM   24  C2  UNL     1      17.262  -0.334  51.859  1.00  0.00     0.098 C 
HETATM   25  C1  UNL     1      17.471  -0.098  50.352  1.00  0.00     0.014 C 
ENDBRANCH  21  24
ENDBRANCH   1  20
TORSDOF 4
ENDMDL
MODEL 7
REMARK VINA RESULT:      -7.1      3.014      5.318
REMARK  4 active torsions:
REMARK  status: ('A' for Active; 'I' for Inactive)
REMARK    1  A    between atoms: C2_2  and  C3_3 
REMARK       I    between atoms: C3_3  and  N1_5 
REMARK    2  A    between atoms: N1_5  and  C4_6 
REMARK    3  A    between atoms: C10_13  and  N3_14 
REMARK    4  A    between atoms: N3_14  and  C11_15 
ROOT
HETATM    1  C4  UNL     1      25.157   0.392  53.349  1.00  0.00     0.074 C 
HETATM    2  C5  UNL     1      26.293   0.103  52.779  1.00  0.00     0.039 C 
HETATM    3  C6  UNL     1      26.931   0.872  51.740  1.00  0.00     0.031 C 
HETATM    4  C7  UNL     1      26.510   1.943  51.187  1.00  0.00     0.049 A 
HETATM    5  N2  UNL     1      26.298   3.031  50.484  1.00  0.00    -0.335 N 
HETATM    6  C8  UNL     1      26.830   3.871  49.713  1.00  0.00     0.095 C 
HETATM    7  C9  UNL     1      25.429   4.350  49.834  1.00  0.00     0.045 C 
HETATM    8  C10 UNL     1      24.686   3.552  50.620  1.00  0.00     0.047 C 
HETATM    9  C17 UNL     1      25.041   2.296  51.237  1.00  0.00     0.219 A 
HETATM   10  S1  UNL     1      24.462   1.969  52.899  1.00  0.00    -0.077 SA
ENDROOT
BRANCH   8  11
HETATM   11  N3  UNL     1      23.297   3.916  50.823  1.00  0.00    -0.357 N 
HETATM   12  H11 UNL     1      22.853   4.666  51.380  1.00  0.00     0.166 HD
BRANCH  11  13
HETATM   13  C11 UNL     1      22.363   3.063  50.117  1.00  0.00     0.033 A 
HETATM   14  C12 UNL     1      22.388   2.745  48.778  1.00  0.00     0.029 A 
HETATM   15  C13 UNL     1      21.410   1.866  48.301  1.00  0.00     0.004 A 
HETATM   16  C14 UNL     1      20.427   1.304  49.101  1.00  0.00     0.019 A 
HETATM   17  C15 UNL     1      20.470   1.679  50.449  1.00  0.00     0.013 A 
HETATM   18 BR1  UNL     1      19.121   0.912  51.581  1.00  0.00    -0.051 Br
HETATM   19  C16 UNL     1      21.402   2.539  50.991  1.00  0.00     0.048 A 
ENDBRANCH  11  13
ENDBRANCH   8  11
BRANCH   1  20
HETATM   20  N1  UNL     1      24.503  -0.325  54.341  1.00  0.00    -0.322 N 
HETATM   21  C3  UNL     1      23.225  -0.876  54.181  1.00  0.00     0.222 C 
HETATM   22  O1  UNL     1      22.460  -0.844  53.188  1.00  0.00    -0.273 OA
HETATM   23  H6  UNL     1      24.764  -0.583  55.285  1.00  0.00     0.169 HD
BRANCH  21  24
HETATM   24  C2  UNL     1      22.177  -1.643  54.837  1.00  0.00     0.098 C 
HETATM   25  C1  UNL     1      20.835  -1.311  54.157  1.00  0.00     0.014 C 
ENDBRANCH  21  24
ENDBRANCH   1  20
TORSDOF 4
ENDMDL
MODEL 8
REMARK VINA RESULT:      -7.0      3.143      5.138
REMARK  4 active torsions:
REMARK  status: ('A' for Active; 'I' for Inactive)
REMARK    1  A    between atoms: C2_2  and  C3_3 
REMARK       I    between atoms: C3_3  and  N1_5 
REMARK    2  A    between atoms: N1_5  and  C4_6 
REMARK    3  A    between atoms: C10_13  and  N3_14 
REMARK    4  A    between atoms: N3_14  and  C11_15 
ROOT
HETATM    1  C4  UNL     1      23.175   1.406  52.034  1.00  0.00     0.074 C 
HETATM    2  C5  UNL     1      22.169   0.962  51.335  1.00  0.00     0.039 C 
HETATM    3  C6  UNL     1      21.701   1.517  50.090  1.00  0.00     0.031 C 
HETATM    4  C7  UNL     1      22.160   2.530  49.462  1.00  0.00     0.049 A 
HETATM    5  N2  UNL     1      22.448   3.515  48.644  1.00  0.00    -0.335 N 
HETATM    6  C8  UNL     1      22.247   3.980  47.492  1.00  0.00     0.095 C 
HETATM    7  C9  UNL     1      23.171   4.967  48.109  1.00  0.00     0.045 C 
HETATM    8  C10 UNL     1      23.491   4.642  49.373  1.00  0.00     0.047 C 
HETATM    9  C17 UNL     1      22.984   3.566  50.193  1.00  0.00     0.219 A 
HETATM   10  S1  UNL     1      24.128   2.696  51.260  1.00  0.00    -0.077 SA
ENDROOT
BRANCH   8  11
HETATM   11  N3  UNL     1      24.393   5.526  50.085  1.00  0.00    -0.357 N 
HETATM   12  H11 UNL     1      24.265   6.113  50.926  1.00  0.00     0.166 HD
BRANCH  11  13
HETATM   13  C11 UNL     1      25.716   5.600  49.500  1.00  0.00     0.033 A 
HETATM   14  C12 UNL     1      26.549   4.544  49.210  1.00  0.00     0.029 A 
HETATM   15  C13 UNL     1      27.778   4.833  48.605  1.00  0.00     0.004 A 
HETATM   16  C14 UNL     1      28.194   6.116  48.287  1.00  0.00     0.019 A 
HETATM   17  C15 UNL     1      27.290   7.133  48.616  1.00  0.00     0.013 A 
HETATM   18 BR1  UNL     1      27.841   8.922  48.183  1.00  0.00    -0.051 Br
HETATM   19  C16 UNL     1      26.064   6.927  49.211  1.00  0.00     0.048 A 
ENDBRANCH  11  13
ENDBRANCH   8  11
BRANCH   1  20
HETATM   20  N1  UNL     1      23.650   0.910  53.241  1.00  0.00    -0.322 N 
HETATM   21  C3  UNL     1      24.854   0.205  53.365  1.00  0.00     0.222 C 
HETATM   22  O1  UNL     1      25.694  -0.104  52.486  1.00  0.00    -0.273 OA
HETATM   23  H6  UNL     1      23.287   0.940  54.185  1.00  0.00     0.169 HD
BRANCH  21  24
HETATM   24  C2  UNL     1      25.737  -0.475  54.303  1.00  0.00     0.098 C 
HETATM   25  C1  UNL     1      27.023   0.359  54.448  1.00  0.00     0.014 C 
ENDBRANCH  21  24
ENDBRANCH   1  20
TORSDOF 4
ENDMDL
MODEL 9
REMARK VINA RESULT:      -7.0      3.220      5.901
REMARK  4 active torsions:
REMARK  status: ('A' for Active; 'I' for Inactive)
REMARK    1  A    between atoms: C2_2  and  C3_3 
REMARK       I    between atoms: C3_3  and  N1_5 
REMARK    2  A    between atoms: N1_5  and  C4_6 
REMARK    3  A    between atoms: C10_13  and  N3_14 
REMARK    4  A    between atoms: N3_14  and  C11_15 
ROOT
HETATM    1  C4  UNL     1      20.301  -0.699  53.781  1.00  0.00     0.074 C 
HETATM    2  C5  UNL     1      21.303  -1.474  54.088  1.00  0.00     0.039 C 
HETATM    3  C6  UNL     1      22.697  -1.129  53.977  1.00  0.00     0.031 C 
HETATM    4  C7  UNL     1      23.202  -0.036  53.552  1.00  0.00     0.049 A 
HETATM    5  N2  UNL     1      23.947   0.975  53.169  1.00  0.00    -0.335 N 
HETATM    6  C8  UNL     1      25.111   1.453  53.188  1.00  0.00     0.095 C 
HETATM    7  C9  UNL     1      24.332   2.467  52.430  1.00  0.00     0.045 C 
HETATM    8  C10 UNL     1      23.042   2.114  52.289  1.00  0.00     0.047 C 
HETATM    9  C17 UNL     1      22.388   0.884  52.670  1.00  0.00     0.219 A 
HETATM   10  S1  UNL     1      20.738   0.975  53.359  1.00  0.00    -0.077 SA
ENDROOT
BRANCH   8  11
HETATM   11  N3  UNL     1      22.173   3.025  51.571  1.00  0.00    -0.357 N 
HETATM   12  H11 UNL     1      21.543   3.779  51.895  1.00  0.00     0.166 HD
BRANCH  11  13
HETATM   13  C11 UNL     1      22.191   2.836  50.135  1.00  0.00     0.033 A 
HETATM   14  C12 UNL     1      22.098   1.640  49.461  1.00  0.00     0.029 A 
HETATM   15  C13 UNL     1      22.095   1.681  48.062  1.00  0.00     0.004 A 
HETATM   16  C14 UNL     1      22.179   2.854  47.329  1.00  0.00     0.019 A 
HETATM   17  C15 UNL     1      22.272   4.026  48.089  1.00  0.00     0.013 A 
HETATM   18 BR1  UNL     1      22.386   5.668  47.098  1.00  0.00    -0.051 Br
HETATM   19  C16 UNL     1      22.281   4.065  49.467  1.00  0.00     0.048 A 
ENDBRANCH  11  13
ENDBRANCH   8  11
BRANCH   1  20
HETATM   20  N1  UNL     1      18.947  -0.995  53.862  1.00  0.00    -0.322 N 
HETATM   21  C3  UNL     1      18.073  -0.919  52.770  1.00  0.00     0.222 C 
HETATM   22  O1  UNL     1      18.306  -0.595  51.582  1.00  0.00    -0.273 OA
HETATM   23  H6  UNL     1      18.357  -1.297  54.627  1.00  0.00     0.169 HD
BRANCH  21  24
HETATM   24  C2  UNL     1      16.693  -1.099  52.345  1.00  0.00     0.098 C 
HETATM   25  C1  UNL     1      16.557  -0.572  50.903  1.00  0.00     0.014 C 
ENDBRANCH  21  24
ENDBRANCH   1  20
TORSDOF 4
ENDMDL
