MODEL 1
REMARK VINA RESULT:      -8.2      0.000      0.000
REMARK  5 active torsions:
REMARK  status: ('A' for Active; 'I' for Inactive)
REMARK    1  A    between atoms: C4_4  and  C5_5 
REMARK    2  A    between atoms: C6_6  and  C7_7 
REMARK    3  A    between atoms: C7_7  and  C8_8 
REMARK    4  A    between atoms: C8_8  and  C9_9 
REMARK    5  A    between atoms: N2_14  and  C13_15 
ROOT
HETATM    1  C1  UNL     1      28.945   6.574  47.913  1.00  0.00     0.017 C 
HETATM    2  C2  UNL     1      27.767   6.701  48.011  1.00  0.00    -0.089 C 
HETATM    3  C3  UNL     1      26.354   6.874  48.116  1.00  0.00     0.063 C 
HETATM    4  C4  UNL     1      25.650   6.023  48.825  1.00  0.00     0.009 C 
ENDROOT
BRANCH   4   5
HETATM    5  C5  UNL     1      25.629   4.829  49.667  1.00  0.00    -0.003 C 
HETATM    6  C6  UNL     1      25.825   3.518  49.910  1.00  0.00    -0.026 C 
BRANCH   6   7
HETATM    7  C7  UNL     1      25.495   3.023  51.263  1.00  0.00     0.031 C 
BRANCH   7   8
HETATM    8  C8  UNL     1      26.574   2.123  51.794  1.00  0.00     0.050 C 
BRANCH   8   9
HETATM    9  C9  UNL     1      26.523   2.052  53.268  1.00  0.00     0.184 C 
HETATM   10  N1  UNL     1      27.730   2.584  53.866  1.00  0.00    -0.378 N 
HETATM   11  C10 UNL     1      28.923   1.786  53.723  1.00  0.00     0.082 C 
HETATM   12  H11 UNL     1      27.781   3.496  54.390  1.00  0.00     0.161 HD
HETATM   13  C11 UNL     1      28.751   0.469  53.919  1.00  0.00     0.010 C 
HETATM   14  C12 UNL     1      27.454  -0.164  54.259  1.00  0.00     0.153 C 
HETATM   15  N2  UNL     1      26.389   0.704  53.785  1.00  0.00    -0.356 N 
BRANCH  15  16
HETATM   16  C13 UNL     1      25.085   0.143  53.845  1.00  0.00     0.033 A 
HETATM   17  C14 UNL     1      24.665  -0.684  54.867  1.00  0.00     0.029 A 
HETATM   18  C15 UNL     1      23.416  -1.252  54.967  1.00  0.00     0.004 A 
HETATM   19  C16 UNL     1      22.490  -0.992  53.983  1.00  0.00     0.021 A 
HETATM   20  C17 UNL     1      22.833  -0.173  52.926  1.00  0.00     0.019 A 
HETATM   21  C18 UNL     1      21.888   0.129  51.865  1.00  0.00    -0.078 C 
HETATM   22  C20 UNL     1      24.104   0.356  52.899  1.00  0.00     0.050 A 
HETATM   23  C19 UNL     1      21.091   0.382  50.992  1.00  0.00     0.018 C 
ENDBRANCH  15  16
ENDBRANCH   8   9
ENDBRANCH   7   8
ENDBRANCH   6   7
ENDBRANCH   4   5
TORSDOF 5
ENDMDL
MODEL 2
REMARK VINA RESULT:      -8.1      1.559      2.366
REMARK  5 active torsions:
REMARK  status: ('A' for Active; 'I' for Inactive)
REMARK    1  A    between atoms: C4_4  and  C5_5 
REMARK    2  A    between atoms: C6_6  and  C7_7 
REMARK    3  A    between atoms: C7_7  and  C8_8 
REMARK    4  A    between atoms: C8_8  and  C9_9 
REMARK    5  A    between atoms: N2_14  and  C13_15 
ROOT
HETATM    1  C1  UNL     1      21.714   2.918  47.895  1.00  0.00     0.017 C 
HETATM    2  C2  UNL     1      22.386   3.885  48.070  1.00  0.00    -0.089 C 
HETATM    3  C3  UNL     1      23.176   5.057  48.267  1.00  0.00     0.063 C 
HETATM    4  C4  UNL     1      24.312   4.968  48.917  1.00  0.00     0.009 C 
ENDROOT
BRANCH   4   5
HETATM    5  C5  UNL     1      25.273   4.126  49.625  1.00  0.00    -0.003 C 
HETATM    6  C6  UNL     1      26.021   3.016  49.783  1.00  0.00    -0.026 C 
BRANCH   6   7
HETATM    7  C7  UNL     1      26.873   2.939  50.988  1.00  0.00     0.031 C 
BRANCH   7   8
HETATM    8  C8  UNL     1      26.665   1.646  51.724  1.00  0.00     0.050 C 
BRANCH   8   9
HETATM    9  C9  UNL     1      26.412   1.890  53.158  1.00  0.00     0.184 C 
HETATM   10  N1  UNL     1      27.528   2.570  53.784  1.00  0.00    -0.378 N 
HETATM   11  C10 UNL     1      28.727   1.791  53.977  1.00  0.00     0.082 C 
HETATM   12  H11 UNL     1      27.510   3.573  54.101  1.00  0.00     0.161 HD
HETATM   13  C11 UNL     1      28.526   0.543  54.427  1.00  0.00     0.010 C 
HETATM   14  C12 UNL     1      27.193  -0.036  54.718  1.00  0.00     0.153 C 
HETATM   15  N2  UNL     1      26.205   0.681  53.930  1.00  0.00    -0.356 N 
BRANCH  15  16
HETATM   16  C13 UNL     1      24.903   0.111  53.935  1.00  0.00     0.033 A 
HETATM   17  C14 UNL     1      24.462  -0.757  54.912  1.00  0.00     0.029 A 
HETATM   18  C15 UNL     1      23.214  -1.335  54.957  1.00  0.00     0.004 A 
HETATM   19  C16 UNL     1      22.313  -1.040  53.960  1.00  0.00     0.021 A 
HETATM   20  C17 UNL     1      22.677  -0.179  52.946  1.00  0.00     0.019 A 
HETATM   21  C18 UNL     1      21.758   0.161  51.874  1.00  0.00    -0.078 C 
HETATM   22  C20 UNL     1      23.945   0.358  52.973  1.00  0.00     0.050 A 
HETATM   23  C19 UNL     1      20.982   0.445  50.992  1.00  0.00     0.018 C 
ENDBRANCH  15  16
ENDBRANCH   8   9
ENDBRANCH   7   8
ENDBRANCH   6   7
ENDBRANCH   4   5
TORSDOF 5
ENDMDL
MODEL 3
REMARK VINA RESULT:      -7.9      2.786      6.041
REMARK  5 active torsions:
REMARK  status: ('A' for Active; 'I' for Inactive)
REMARK    1  A    between atoms: C4_4  and  C5_5 
REMARK    2  A    between atoms: C6_6  and  C7_7 
REMARK    3  A    between atoms: C7_7  and  C8_8 
REMARK    4  A    between atoms: C8_8  and  C9_9 
REMARK    5  A    between atoms: N2_14  and  C13_15 
ROOT
HETATM    1  C1  UNL     1      26.792  -1.543  52.354  1.00  0.00     0.017 C 
HETATM    2  C2  UNL     1      26.659  -0.487  52.886  1.00  0.00    -0.089 C 
HETATM    3  C3  UNL     1      26.499   0.768  53.545  1.00  0.00     0.063 C 
HETATM    4  C4  UNL     1      26.415   1.866  52.832  1.00  0.00     0.009 C 
ENDROOT
BRANCH   4   5
HETATM    5  C5  UNL     1      26.405   2.488  51.509  1.00  0.00    -0.003 C 
HETATM    6  C6  UNL     1      26.568   2.487  50.172  1.00  0.00    -0.026 C 
BRANCH   6   7
HETATM    7  C7  UNL     1      26.306   3.753  49.455  1.00  0.00     0.031 C 
BRANCH   7   8
HETATM    8  C8  UNL     1      25.304   4.598  50.188  1.00  0.00     0.050 C 
BRANCH   8   9
HETATM    9  C9  UNL     1      24.064   4.746  49.400  1.00  0.00     0.184 C 
HETATM   10  N1  UNL     1      23.915   6.095  48.895  1.00  0.00    -0.378 N 
HETATM   11  C10 UNL     1      23.593   7.112  49.866  1.00  0.00     0.082 C 
HETATM   12  H11 UNL     1      24.021   6.365  47.883  1.00  0.00     0.161 HD
HETATM   13  C11 UNL     1      22.663   6.761  50.768  1.00  0.00     0.010 C 
HETATM   14  C12 UNL     1      21.989   5.441  50.804  1.00  0.00     0.153 C 
HETATM   15  N2  UNL     1      22.855   4.472  50.154  1.00  0.00    -0.356 N 
BRANCH  15  16
HETATM   16  C13 UNL     1      22.450   3.117  50.289  1.00  0.00     0.033 A 
HETATM   17  C14 UNL     1      21.726   2.446  49.326  1.00  0.00     0.029 A 
HETATM   18  C15 UNL     1      21.309   1.137  49.413  1.00  0.00     0.004 A 
HETATM   19  C16 UNL     1      21.627   0.416  50.541  1.00  0.00     0.021 A 
HETATM   20  C17 UNL     1      22.351   1.016  51.551  1.00  0.00     0.019 A 
HETATM   21  C18 UNL     1      22.710   0.292  52.758  1.00  0.00    -0.078 C 
HETATM   22  C20 UNL     1      22.730   2.329  51.387  1.00  0.00     0.050 A 
HETATM   23  C19 UNL     1      23.011  -0.322  53.755  1.00  0.00     0.018 C 
ENDBRANCH  15  16
ENDBRANCH   8   9
ENDBRANCH   7   8
ENDBRANCH   6   7
ENDBRANCH   4   5
TORSDOF 5
ENDMDL
MODEL 4
REMARK VINA RESULT:      -7.7      3.464      6.227
REMARK  5 active torsions:
REMARK  status: ('A' for Active; 'I' for Inactive)
REMARK    1  A    between atoms: C4_4  and  C5_5 
REMARK    2  A    between atoms: C6_6  and  C7_7 
REMARK    3  A    between atoms: C7_7  and  C8_8 
REMARK    4  A    between atoms: C8_8  and  C9_9 
REMARK    5  A    between atoms: N2_14  and  C13_15 
ROOT
HETATM    1  C1  UNL     1      26.754  -1.709  52.521  1.00  0.00     0.017 C 
HETATM    2  C2  UNL     1      26.901  -0.773  53.242  1.00  0.00    -0.089 C 
HETATM    3  C3  UNL     1      27.090   0.335  54.120  1.00  0.00     0.063 C 
HETATM    4  C4  UNL     1      26.487   1.472  53.864  1.00  0.00     0.009 C 
ENDROOT
BRANCH   4   5
HETATM    5  C5  UNL     1      25.597   2.235  52.992  1.00  0.00    -0.003 C 
HETATM    6  C6  UNL     1      24.992   2.501  51.818  1.00  0.00    -0.026 C 
BRANCH   6   7
HETATM    7  C7  UNL     1      24.075   3.660  51.775  1.00  0.00     0.031 C 
BRANCH   7   8
HETATM    8  C8  UNL     1      22.743   3.325  52.383  1.00  0.00     0.050 C 
BRANCH   8   9
HETATM    9  C9  UNL     1      21.925   2.523  51.451  1.00  0.00     0.184 C 
HETATM   10  N1  UNL     1      21.527   3.298  50.294  1.00  0.00    -0.378 N 
HETATM   11  C10 UNL     1      20.534   4.319  50.517  1.00  0.00     0.082 C 
HETATM   12  H11 UNL     1      21.910   3.156  49.324  1.00  0.00     0.161 HD
HETATM   13  C11 UNL     1      19.512   3.955  51.307  1.00  0.00     0.010 C 
HETATM   14  C12 UNL     1      19.371   2.615  51.927  1.00  0.00     0.153 C 
HETATM   15  N2  UNL     1      20.694   2.024  52.032  1.00  0.00    -0.356 N 
BRANCH  15  16
HETATM   16  C13 UNL     1      20.759   0.827  52.796  1.00  0.00     0.033 A 
HETATM   17  C14 UNL     1      19.712  -0.067  52.888  1.00  0.00     0.029 A 
HETATM   18  C15 UNL     1      19.726  -1.235  53.616  1.00  0.00     0.004 A 
HETATM   19  C16 UNL     1      20.864  -1.563  54.317  1.00  0.00     0.021 A 
HETATM   20  C17 UNL     1      21.955  -0.721  54.276  1.00  0.00     0.019 A 
HETATM   21  C18 UNL     1      23.177  -1.027  55.000  1.00  0.00    -0.078 C 
HETATM   22  C20 UNL     1      21.861   0.430  53.524  1.00  0.00     0.050 A 
HETATM   23  C19 UNL     1      24.192  -1.296  55.599  1.00  0.00     0.018 C 
ENDBRANCH  15  16
ENDBRANCH   8   9
ENDBRANCH   7   8
ENDBRANCH   6   7
ENDBRANCH   4   5
TORSDOF 5
ENDMDL
MODEL 5
REMARK VINA RESULT:      -7.6      3.390      6.799
REMARK  5 active torsions:
REMARK  status: ('A' for Active; 'I' for Inactive)
REMARK    1  A    between atoms: C4_4  and  C5_5 
REMARK    2  A    between atoms: C6_6  and  C7_7 
REMARK    3  A    between atoms: C7_7  and  C8_8 
REMARK    4  A    between atoms: C8_8  and  C9_9 
REMARK    5  A    between atoms: N2_14  and  C13_15 
ROOT
HETATM    1  C1  UNL     1      27.988   8.282  45.994  1.00  0.00     0.017 C 
HETATM    2  C2  UNL     1      28.759   7.651  46.645  1.00  0.00    -0.089 C 
HETATM    3  C3  UNL     1      29.700   6.908  47.418  1.00  0.00     0.063 C 
HETATM    4  C4  UNL     1      29.286   5.894  48.140  1.00  0.00     0.009 C 
ENDROOT
BRANCH   4   5
HETATM    5  C5  UNL     1      28.170   5.059  48.582  1.00  0.00    -0.003 C 
HETATM    6  C6  UNL     1      26.872   4.820  48.848  1.00  0.00    -0.026 C 
BRANCH   6   7
HETATM    7  C7  UNL     1      26.519   3.475  49.351  1.00  0.00     0.031 C 
BRANCH   7   8
HETATM    8  C8  UNL     1      25.118   3.444  49.891  1.00  0.00     0.050 C 
BRANCH   8   9
HETATM    9  C9  UNL     1      25.019   4.216  51.146  1.00  0.00     0.184 C 
HETATM   10  N1  UNL     1      24.833   3.345  52.289  1.00  0.00    -0.378 N 
HETATM   11  C10 UNL     1      23.544   2.709  52.408  1.00  0.00     0.082 C 
HETATM   12  H11 UNL     1      25.566   3.161  53.021  1.00  0.00     0.161 HD
HETATM   13  C11 UNL     1      22.493   3.504  52.149  1.00  0.00     0.010 C 
HETATM   14  C12 UNL     1      22.599   4.932  51.767  1.00  0.00     0.153 C 
HETATM   15  N2  UNL     1      23.909   5.147  51.175  1.00  0.00    -0.356 N 
BRANCH  15  16
HETATM   16  C13 UNL     1      24.092   6.417  50.565  1.00  0.00     0.033 A 
HETATM   17  C14 UNL     1      23.068   7.122  49.966  1.00  0.00     0.029 A 
HETATM   18  C15 UNL     1      23.197   8.351  49.360  1.00  0.00     0.004 A 
HETATM   19  C16 UNL     1      24.436   8.949  49.337  1.00  0.00     0.021 A 
HETATM   20  C17 UNL     1      25.512   8.309  49.916  1.00  0.00     0.019 A 
HETATM   21  C18 UNL     1      26.837   8.903  49.914  1.00  0.00    -0.078 C 
HETATM   22  C20 UNL     1      25.300   7.080  50.501  1.00  0.00     0.050 A 
HETATM   23  C19 UNL     1      27.935   9.411  49.916  1.00  0.00     0.018 C 
ENDBRANCH  15  16
ENDBRANCH   8   9
ENDBRANCH   7   8
ENDBRANCH   6   7
ENDBRANCH   4   5
TORSDOF 5
ENDMDL
MODEL 6
REMARK VINA RESULT:      -7.5      1.683      2.304
REMARK  5 active torsions:
REMARK  status: ('A' for Active; 'I' for Inactive)
REMARK    1  A    between atoms: C4_4  and  C5_5 
REMARK    2  A    between atoms: C6_6  and  C7_7 
REMARK    3  A    between atoms: C7_7  and  C8_8 
REMARK    4  A    between atoms: C8_8  and  C9_9 
REMARK    5  A    between atoms: N2_14  and  C13_15 
ROOT
HETATM    1  C1  UNL     1      24.262   8.347  48.127  1.00  0.00     0.017 C 
HETATM    2  C2  UNL     1      25.013   7.435  48.273  1.00  0.00    -0.089 C 
HETATM    3  C3  UNL     1      25.929   6.353  48.434  1.00  0.00     0.063 C 
HETATM    4  C4  UNL     1      25.586   5.319  49.165  1.00  0.00     0.009 C 
ENDROOT
BRANCH   4   5
HETATM    5  C5  UNL     1      24.575   4.669  49.997  1.00  0.00    -0.003 C 
HETATM    6  C6  UNL     1      23.599   4.659  50.926  1.00  0.00    -0.026 C 
BRANCH   6   7
HETATM    7  C7  UNL     1      22.984   3.354  51.249  1.00  0.00     0.031 C 
BRANCH   7   8
HETATM    8  C8  UNL     1      24.007   2.254  51.253  1.00  0.00     0.050 C 
BRANCH   8   9
HETATM    9  C9  UNL     1      24.505   2.003  52.620  1.00  0.00     0.184 C 
HETATM   10  N1  UNL     1      25.851   2.511  52.794  1.00  0.00    -0.378 N 
HETATM   11  C10 UNL     1      26.901   1.788  52.121  1.00  0.00     0.082 C 
HETATM   12  H11 UNL     1      26.096   3.354  53.375  1.00  0.00     0.161 HD
HETATM   13  C11 UNL     1      26.808   0.452  52.195  1.00  0.00     0.010 C 
HETATM   14  C12 UNL     1      25.728  -0.273  52.905  1.00  0.00     0.153 C 
HETATM   15  N2  UNL     1      24.567   0.598  52.972  1.00  0.00    -0.356 N 
BRANCH  15  16
HETATM   16  C13 UNL     1      23.375  -0.022  53.436  1.00  0.00     0.033 A 
HETATM   17  C14 UNL     1      23.342  -0.883  54.513  1.00  0.00     0.029 A 
HETATM   18  C15 UNL     1      22.216  -1.509  54.997  1.00  0.00     0.004 A 
HETATM   19  C16 UNL     1      21.011  -1.274  54.375  1.00  0.00     0.021 A 
HETATM   20  C17 UNL     1      20.960  -0.425  53.289  1.00  0.00     0.019 A 
HETATM   21  C18 UNL     1      19.710  -0.148  52.602  1.00  0.00    -0.078 C 
HETATM   22  C20 UNL     1      22.132   0.162  52.866  1.00  0.00     0.050 A 
HETATM   23  C19 UNL     1      18.663   0.082  52.043  1.00  0.00     0.018 C 
ENDBRANCH  15  16
ENDBRANCH   8   9
ENDBRANCH   7   8
ENDBRANCH   6   7
ENDBRANCH   4   5
TORSDOF 5
ENDMDL
MODEL 7
REMARK VINA RESULT:      -7.5      2.545      7.413
REMARK  5 active torsions:
REMARK  status: ('A' for Active; 'I' for Inactive)
REMARK    1  A    between atoms: C4_4  and  C5_5 
REMARK    2  A    between atoms: C6_6  and  C7_7 
REMARK    3  A    between atoms: C7_7  and  C8_8 
REMARK    4  A    between atoms: C8_8  and  C9_9 
REMARK    5  A    between atoms: N2_14  and  C13_15 
ROOT
HETATM    1  C1  UNL     1      29.319  -1.601  53.166  1.00  0.00     0.017 C 
HETATM    2  C2  UNL     1      28.998  -0.709  53.884  1.00  0.00    -0.089 C 
HETATM    3  C3  UNL     1      28.633   0.360  54.757  1.00  0.00     0.063 C 
HETATM    4  C4  UNL     1      27.474   0.953  54.602  1.00  0.00     0.009 C 
ENDROOT
BRANCH   4   5
HETATM    5  C5  UNL     1      26.217   1.047  53.862  1.00  0.00    -0.003 C 
HETATM    6  C6  UNL     1      25.280   0.588  53.011  1.00  0.00    -0.026 C 
BRANCH   6   7
HETATM    7  C7  UNL     1      24.108   1.454  52.761  1.00  0.00     0.031 C 
BRANCH   7   8
HETATM    8  C8  UNL     1      23.496   1.173  51.418  1.00  0.00     0.050 C 
BRANCH   8   9
HETATM    9  C9  UNL     1      22.778   2.357  50.908  1.00  0.00     0.184 C 
HETATM   10  N1  UNL     1      21.346   2.136  50.877  1.00  0.00    -0.378 N 
HETATM   11  C10 UNL     1      20.860   1.225  49.870  1.00  0.00     0.082 C 
HETATM   12  H11 UNL     1      20.660   2.595  51.529  1.00  0.00     0.161 HD
HETATM   13  C11 UNL     1      21.417   1.370  48.657  1.00  0.00     0.010 C 
HETATM   14  C12 UNL     1      22.455   2.375  48.328  1.00  0.00     0.153 C 
HETATM   15  N2  UNL     1      23.148   2.729  49.556  1.00  0.00    -0.356 N 
BRANCH  15  16
HETATM   16  C13 UNL     1      24.312   3.526  49.382  1.00  0.00     0.033 A 
HETATM   17  C14 UNL     1      25.587   3.063  49.632  1.00  0.00     0.029 A 
HETATM   18  C15 UNL     1      26.742   3.796  49.482  1.00  0.00     0.004 A 
HETATM   19  C16 UNL     1      26.646   5.098  49.047  1.00  0.00     0.021 A 
HETATM   20  C17 UNL     1      25.405   5.635  48.774  1.00  0.00     0.019 A 
HETATM   21  C18 UNL     1      25.257   7.005  48.313  1.00  0.00    -0.078 C 
HETATM   22  C20 UNL     1      24.298   4.836  48.951  1.00  0.00     0.050 A 
HETATM   23  C19 UNL     1      25.146   8.143  47.920  1.00  0.00     0.018 C 
ENDBRANCH  15  16
ENDBRANCH   8   9
ENDBRANCH   7   8
ENDBRANCH   6   7
ENDBRANCH   4   5
TORSDOF 5
ENDMDL
MODEL 8
REMARK VINA RESULT:      -7.4      3.769      6.838
REMARK  5 active torsions:
REMARK  status: ('A' for Active; 'I' for Inactive)
REMARK    1  A    between atoms: C4_4  and  C5_5 
REMARK    2  A    between atoms: C6_6  and  C7_7 
REMARK    3  A    between atoms: C7_7  and  C8_8 
REMARK    4  A    between atoms: C8_8  and  C9_9 
REMARK    5  A    between atoms: N2_14  and  C13_15 
ROOT
HETATM    1  C1  UNL     1      24.135   3.277  53.112  1.00  0.00     0.017 C 
HETATM    2  C2  UNL     1      24.753   2.796  52.216  1.00  0.00    -0.089 C 
HETATM    3  C3  UNL     1      25.493   2.199  51.152  1.00  0.00     0.063 C 
HETATM    4  C4  UNL     1      25.858   2.933  50.127  1.00  0.00     0.009 C 
ENDROOT
BRANCH   4   5
HETATM    5  C5  UNL     1      25.866   4.244  49.481  1.00  0.00    -0.003 C 
HETATM    6  C6  UNL     1      26.467   5.342  48.984  1.00  0.00    -0.026 C 
BRANCH   6   7
HETATM    7  C7  UNL     1      25.597   6.386  48.402  1.00  0.00     0.031 C 
BRANCH   7   8
HETATM    8  C8  UNL     1      24.433   6.691  49.300  1.00  0.00     0.050 C 
BRANCH   8   9
HETATM    9  C9  UNL     1      23.165   6.675  48.544  1.00  0.00     0.184 C 
HETATM   10  N1  UNL     1      22.595   8.003  48.436  1.00  0.00    -0.378 N 
HETATM   11  C10 UNL     1      22.038   8.561  49.643  1.00  0.00     0.082 C 
HETATM   12  H11 UNL     1      22.563   8.565  47.547  1.00  0.00     0.161 HD
HETATM   13  C11 UNL     1      21.304   7.710  50.376  1.00  0.00     0.010 C 
HETATM   14  C12 UNL     1      21.055   6.294  50.013  1.00  0.00     0.153 C 
HETATM   15  N2  UNL     1      22.134   5.853  49.146  1.00  0.00    -0.356 N 
BRANCH  15  16
HETATM   16  C13 UNL     1      22.157   4.457  48.878  1.00  0.00     0.033 A 
HETATM   17  C14 UNL     1      22.328   3.934  47.613  1.00  0.00     0.029 A 
HETATM   18  C15 UNL     1      22.354   2.594  47.303  1.00  0.00     0.004 A 
HETATM   19  C16 UNL     1      22.202   1.678  48.319  1.00  0.00     0.021 A 
HETATM   20  C17 UNL     1      22.027   2.121  49.614  1.00  0.00     0.019 A 
HETATM   21  C18 UNL     1      21.863   1.190  50.718  1.00  0.00    -0.078 C 
HETATM   22  C20 UNL     1      22.012   3.479  49.841  1.00  0.00     0.050 A 
HETATM   23  C19 UNL     1      21.737   0.407  51.630  1.00  0.00     0.018 C 
ENDBRANCH  15  16
ENDBRANCH   8   9
ENDBRANCH   7   8
ENDBRANCH   6   7
ENDBRANCH   4   5
TORSDOF 5
ENDMDL
MODEL 9
REMARK VINA RESULT:      -7.4      3.259      6.229
REMARK  5 active torsions:
REMARK  status: ('A' for Active; 'I' for Inactive)
REMARK    1  A    between atoms: C4_4  and  C5_5 
REMARK    2  A    between atoms: C6_6  and  C7_7 
REMARK    3  A    between atoms: C7_7  and  C8_8 
REMARK    4  A    between atoms: C8_8  and  C9_9 
REMARK    5  A    between atoms: N2_14  and  C13_15 
ROOT
HETATM    1  C1  UNL     1      24.824   4.566  49.455  1.00  0.00     0.017 C 
HETATM    2  C2  UNL     1      24.451   4.459  50.580  1.00  0.00    -0.089 C 
HETATM    3  C3  UNL     1      24.025   4.336  51.936  1.00  0.00     0.063 C 
HETATM    4  C4  UNL     1      22.771   4.053  52.197  1.00  0.00     0.009 C 
ENDROOT
BRANCH   4   5
HETATM    5  C5  UNL     1      21.432   3.768  51.685  1.00  0.00    -0.003 C 
HETATM    6  C6  UNL     1      20.384   3.970  50.863  1.00  0.00    -0.026 C 
BRANCH   6   7
HETATM    7  C7  UNL     1      19.208   3.091  51.035  1.00  0.00     0.031 C 
BRANCH   7   8
HETATM    8  C8  UNL     1      19.412   2.118  52.161  1.00  0.00     0.050 C 
BRANCH   8   9
HETATM    9  C9  UNL     1      19.637   0.753  51.644  1.00  0.00     0.184 C 
HETATM   10  N1  UNL     1      18.526   0.307  50.828  1.00  0.00    -0.378 N 
HETATM   11  C10 UNL     1      17.301  -0.001  51.524  1.00  0.00     0.082 C 
HETATM   12  H11 UNL     1      18.565   0.193  49.782  1.00  0.00     0.161 HD
HETATM   13  C11 UNL     1      17.455  -0.693  52.663  1.00  0.00     0.010 C 
HETATM   14  C12 UNL     1      18.763  -1.132  53.205  1.00  0.00     0.153 C 
HETATM   15  N2  UNL     1      19.790  -0.248  52.681  1.00  0.00    -0.356 N 
BRANCH  15  16
HETATM   16  C13 UNL     1      21.075  -0.403  53.269  1.00  0.00     0.033 A 
HETATM   17  C14 UNL     1      21.286  -1.070  54.458  1.00  0.00     0.029 A 
HETATM   18  C15 UNL     1      22.508  -1.243  55.067  1.00  0.00     0.004 A 
HETATM   19  C16 UNL     1      23.627  -0.719  54.462  1.00  0.00     0.021 A 
HETATM   20  C17 UNL     1      23.500  -0.037  53.269  1.00  0.00     0.019 A 
HETATM   21  C18 UNL     1      24.654   0.532  52.595  1.00  0.00    -0.078 C 
HETATM   22  C20 UNL     1      22.242   0.093  52.725  1.00  0.00     0.050 A 
HETATM   23  C19 UNL     1      25.623   0.994  52.038  1.00  0.00     0.018 C 
ENDBRANCH  15  16
ENDBRANCH   8   9
ENDBRANCH   7   8
ENDBRANCH   6   7
ENDBRANCH   4   5
TORSDOF 5
ENDMDL
