MODEL 1
REMARK VINA RESULT:     -10.2      0.000      0.000
REMARK  5 active torsions:
REMARK  status: ('A' for Active; 'I' for Inactive)
REMARK    1  A    between atoms: C6_6  and  N1_7 
REMARK    2  A    between atoms: N1_7  and  C7_8 
REMARK    3  A    between atoms: N4_18  and  C15_19 
REMARK    4  A    between atoms: C15_19  and  C16_20 
REMARK    5  A    between atoms: C16_20  and  C17_21 
ROOT
HETATM    1  C7  UNL     1      22.097  -0.417  52.908  1.00  0.00     0.142 A 
HETATM    2  N2  UNL     1      21.216  -1.074  53.630  1.00  0.00    -0.224 NA
HETATM    3  C8  UNL     1      21.456  -1.655  54.808  1.00  0.00     0.236 A 
HETATM    4  N3  UNL     1      22.695  -1.577  55.325  1.00  0.00    -0.241 NA
HETATM    5  C9  UNL     1      23.652  -0.918  54.639  1.00  0.00     0.075 A 
HETATM    6  C10 UNL     1      24.872  -0.904  55.260  1.00  0.00     0.071 A 
HETATM    7  C11 UNL     1      25.917  -0.254  54.639  1.00  0.00     0.098 A 
HETATM    8  C12 UNL     1      25.697   0.360  53.410  1.00  0.00     0.071 A 
HETATM    9  C13 UNL     1      24.440   0.301  52.851  1.00  0.00     0.050 A 
HETATM   10  C14 UNL     1      23.359  -0.332  53.425  1.00  0.00     0.041 A 
HETATM   11  N4  UNL     1      26.759   1.041  52.742  1.00  0.00    -0.314 N 
HETATM   12  C22 UNL     1      28.044   1.051  53.401  1.00  0.00     0.248 C 
HETATM   13  O1  UNL     1      28.922   1.906  53.118  1.00  0.00    -0.271 OA
HETATM   14  C23 UNL     1      28.339   0.016  54.452  1.00  0.00     0.279 C 
HETATM   15  O2  UNL     1      27.171  -0.219  55.237  1.00  0.00    -0.340 OA
ENDROOT
BRANCH   1  16
HETATM   16  N1  UNL     1      21.835   0.190  51.671  1.00  0.00    -0.340 N 
HETATM   17  H7  UNL     1      21.575  -0.353  50.824  1.00  0.00     0.167 HD
BRANCH  16  18
HETATM   18  C6  UNL     1      21.861   1.562  51.313  1.00  0.00     0.034 A 
HETATM   19  C5  UNL     1      21.579   2.632  52.162  1.00  0.00     0.029 A 
HETATM   20  C4  UNL     1      21.611   3.946  51.802  1.00  0.00     0.003 A 
HETATM   21  C3  UNL     1      21.942   4.293  50.515  1.00  0.00     0.007 A 
HETATM   22  C2  UNL     1      22.237   3.279  49.609  1.00  0.00    -0.060 A 
HETATM   23  C1  UNL     1      22.580   3.729  48.258  1.00  0.00     0.048 C 
HETATM   24  C24 UNL     1      22.185   1.971  50.044  1.00  0.00     0.036 A 
ENDBRANCH  16  18
ENDBRANCH   1  16
BRANCH  11  25
HETATM   25  C15 UNL     1      26.612   1.701  51.459  1.00  0.00     0.134 C 
BRANCH  25  26
HETATM   26  C16 UNL     1      25.739   2.884  51.463  1.00  0.00     0.056 C 
BRANCH  26  27
HETATM   27  C17 UNL     1      25.675   3.743  50.262  1.00  0.00     0.222 C 
HETATM   28  C18 UNL     1      26.704   3.531  49.227  1.00  0.00     0.036 C 
HETATM   29  C19 UNL     1      27.421   4.844  48.912  1.00  0.00     0.004 C 
HETATM   30  C20 UNL     1      26.405   5.905  48.512  1.00  0.00     0.030 C 
HETATM   31  C21 UNL     1      25.321   6.009  49.558  1.00  0.00     0.270 C 
HETATM   32  N5  UNL     1      25.681   5.146  50.654  1.00  0.00     0.088 N 
HETATM   33  H24 UNL     1      26.554   5.448  51.123  1.00  0.00     0.316 HD
ENDBRANCH  26  27
ENDBRANCH  25  26
ENDBRANCH  11  25
TORSDOF 5
ENDMDL
MODEL 2
REMARK VINA RESULT:      -9.7      2.215      5.859
REMARK  5 active torsions:
REMARK  status: ('A' for Active; 'I' for Inactive)
REMARK    1  A    between atoms: C6_6  and  N1_7 
REMARK    2  A    between atoms: N1_7  and  C7_8 
REMARK    3  A    between atoms: N4_18  and  C15_19 
REMARK    4  A    between atoms: C15_19  and  C16_20 
REMARK    5  A    between atoms: C16_20  and  C17_21 
ROOT
HETATM    1  C7  UNL     1      23.296   2.721  50.014  1.00  0.00     0.142 A 
HETATM    2  N2  UNL     1      22.528   3.197  49.059  1.00  0.00    -0.224 NA
HETATM    3  C8  UNL     1      21.241   2.892  48.872  1.00  0.00     0.236 A 
HETATM    4  N3  UNL     1      20.655   2.025  49.717  1.00  0.00    -0.241 NA
HETATM    5  C9  UNL     1      21.383   1.494  50.722  1.00  0.00     0.075 A 
HETATM    6  C10 UNL     1      20.684   0.626  51.516  1.00  0.00     0.071 A 
HETATM    7  C11 UNL     1      21.339   0.029  52.572  1.00  0.00     0.098 A 
HETATM    8  C12 UNL     1      22.680   0.329  52.792  1.00  0.00     0.071 A 
HETATM    9  C13 UNL     1      23.313   1.213  51.947  1.00  0.00     0.050 A 
HETATM   10  C14 UNL     1      22.710   1.839  50.877  1.00  0.00     0.041 A 
HETATM   11  N4  UNL     1      23.387  -0.272  53.877  1.00  0.00    -0.314 N 
HETATM   12  C22 UNL     1      22.645  -1.188  54.711  1.00  0.00     0.248 C 
HETATM   13  O1  UNL     1      23.025  -1.473  55.876  1.00  0.00    -0.271 OA
HETATM   14  C23 UNL     1      21.387  -1.815  54.175  1.00  0.00     0.279 C 
HETATM   15  O2  UNL     1      20.664  -0.859  53.401  1.00  0.00    -0.340 OA
ENDROOT
BRANCH   1  16
HETATM   16  N1  UNL     1      24.646   3.048  50.202  1.00  0.00    -0.340 N 
HETATM   17  H7  UNL     1      25.310   2.425  50.703  1.00  0.00     0.167 HD
BRANCH  16  18
HETATM   18  C6  UNL     1      25.364   4.201  49.792  1.00  0.00     0.034 A 
HETATM   19  C5  UNL     1      24.920   5.518  49.898  1.00  0.00     0.029 A 
HETATM   20  C4  UNL     1      25.624   6.616  49.502  1.00  0.00     0.003 A 
HETATM   21  C3  UNL     1      26.872   6.463  48.949  1.00  0.00     0.007 A 
HETATM   22  C2  UNL     1      27.383   5.176  48.811  1.00  0.00    -0.060 A 
HETATM   23  C1  UNL     1      28.718   5.095  48.213  1.00  0.00     0.048 C 
HETATM   24  C24 UNL     1      26.614   4.112  49.234  1.00  0.00     0.036 A 
ENDBRANCH  16  18
ENDBRANCH   1  16
BRANCH  11  25
HETATM   25  C15 UNL     1      24.784  -0.016  54.169  1.00  0.00     0.134 C 
BRANCH  25  26
HETATM   26  C16 UNL     1      25.728  -0.998  53.614  1.00  0.00     0.056 C 
BRANCH  26  27
HETATM   27  C17 UNL     1      27.122  -0.591  53.341  1.00  0.00     0.222 C 
HETATM   28  C18 UNL     1      27.964  -1.536  52.585  1.00  0.00     0.036 C 
HETATM   29  C19 UNL     1      29.250  -1.838  53.355  1.00  0.00     0.004 C 
HETATM   30  C20 UNL     1      29.978  -0.539  53.674  1.00  0.00     0.030 C 
HETATM   31  C21 UNL     1      29.041   0.429  54.356  1.00  0.00     0.270 C 
HETATM   32  N5  UNL     1      27.794  -0.252  54.588  1.00  0.00     0.088 N 
HETATM   33  H24 UNL     1      27.897  -1.051  55.240  1.00  0.00     0.316 HD
ENDBRANCH  26  27
ENDBRANCH  25  26
ENDBRANCH  11  25
TORSDOF 5
ENDMDL
MODEL 3
REMARK VINA RESULT:      -9.6      2.808      5.678
REMARK  5 active torsions:
REMARK  status: ('A' for Active; 'I' for Inactive)
REMARK    1  A    between atoms: C6_6  and  N1_7 
REMARK    2  A    between atoms: N1_7  and  C7_8 
REMARK    3  A    between atoms: N4_18  and  C15_19 
REMARK    4  A    between atoms: C15_19  and  C16_20 
REMARK    5  A    between atoms: C16_20  and  C17_21 
ROOT
HETATM    1  C7  UNL     1      24.193   0.092  53.267  1.00  0.00     0.142 A 
HETATM    2  N2  UNL     1      24.177  -0.788  54.244  1.00  0.00    -0.224 NA
HETATM    3  C8  UNL     1      23.107  -1.126  54.968  1.00  0.00     0.236 A 
HETATM    4  N3  UNL     1      21.931  -0.531  54.696  1.00  0.00    -0.241 NA
HETATM    5  C9  UNL     1      21.872   0.384  53.706  1.00  0.00     0.075 A 
HETATM    6  C10 UNL     1      20.627   0.923  53.520  1.00  0.00     0.071 A 
HETATM    7  C11 UNL     1      20.462   1.869  52.531  1.00  0.00     0.098 A 
HETATM    8  C12 UNL     1      21.559   2.241  51.761  1.00  0.00     0.071 A 
HETATM    9  C13 UNL     1      22.779   1.652  52.011  1.00  0.00     0.050 A 
HETATM   10  C14 UNL     1      23.004   0.702  52.984  1.00  0.00     0.041 A 
HETATM   11  N4  UNL     1      21.422   3.218  50.729  1.00  0.00    -0.314 N 
HETATM   12  C22 UNL     1      20.106   3.783  50.539  1.00  0.00     0.248 C 
HETATM   13  O1  UNL     1      19.780   4.341  49.460  1.00  0.00    -0.271 OA
HETATM   14  C23 UNL     1      19.103   3.702  51.656  1.00  0.00     0.279 C 
HETATM   15  O2  UNL     1      19.214   2.439  52.313  1.00  0.00    -0.340 OA
ENDROOT
BRANCH   1  16
HETATM   16  N1  UNL     1      25.323   0.441  52.513  1.00  0.00    -0.340 N 
HETATM   17  H7  UNL     1      25.306   0.506  51.477  1.00  0.00     0.167 HD
BRANCH  16  18
HETATM   18  C6  UNL     1      26.637   0.757  52.944  1.00  0.00     0.034 A 
HETATM   19  C5  UNL     1      27.106   2.032  53.258  1.00  0.00     0.029 A 
HETATM   20  C4  UNL     1      28.372   2.320  53.674  1.00  0.00     0.003 A 
HETATM   21  C3  UNL     1      29.292   1.308  53.809  1.00  0.00     0.007 A 
HETATM   22  C2  UNL     1      28.895   0.008  53.514  1.00  0.00    -0.060 A 
HETATM   23  C1  UNL     1      29.931  -1.014  53.683  1.00  0.00     0.048 C 
HETATM   24  C24 UNL     1      27.598  -0.208  53.099  1.00  0.00     0.036 A 
ENDBRANCH  16  18
ENDBRANCH   1  16
BRANCH  11  25
HETATM   25  C15 UNL     1      22.516   3.662  49.888  1.00  0.00     0.134 C 
BRANCH  25  26
HETATM   26  C16 UNL     1      23.316   4.766  50.439  1.00  0.00     0.056 C 
BRANCH  26  27
HETATM   27  C17 UNL     1      24.790   4.722  50.323  1.00  0.00     0.222 C 
HETATM   28  C18 UNL     1      25.468   5.957  49.888  1.00  0.00     0.036 C 
HETATM   29  C19 UNL     1      26.356   5.679  48.675  1.00  0.00     0.004 C 
HETATM   30  C20 UNL     1      27.337   4.560  48.999  1.00  0.00     0.030 C 
HETATM   31  C21 UNL     1      26.598   3.357  49.533  1.00  0.00     0.270 C 
HETATM   32  N5  UNL     1      25.187   3.630  49.444  1.00  0.00     0.088 N 
HETATM   33  H24 UNL     1      24.869   3.743  48.464  1.00  0.00     0.316 HD
ENDBRANCH  26  27
ENDBRANCH  25  26
ENDBRANCH  11  25
TORSDOF 5
ENDMDL
MODEL 4
REMARK VINA RESULT:      -9.6      1.783      5.059
REMARK  5 active torsions:
REMARK  status: ('A' for Active; 'I' for Inactive)
REMARK    1  A    between atoms: C6_6  and  N1_7 
REMARK    2  A    between atoms: N1_7  and  C7_8 
REMARK    3  A    between atoms: N4_18  and  C15_19 
REMARK    4  A    between atoms: C15_19  and  C16_20 
REMARK    5  A    between atoms: C16_20  and  C17_21 
ROOT
HETATM    1  C7  UNL     1      26.822   2.144  51.938  1.00  0.00     0.142 A 
HETATM    2  N2  UNL     1      28.038   2.475  52.313  1.00  0.00    -0.224 NA
HETATM    3  C8  UNL     1      28.649   2.060  53.425  1.00  0.00     0.236 A 
HETATM    4  N3  UNL     1      27.987   1.231  54.252  1.00  0.00    -0.241 NA
HETATM    5  C9  UNL     1      26.732   0.848  53.933  1.00  0.00     0.075 A 
HETATM    6  C10 UNL     1      26.158   0.007  54.847  1.00  0.00     0.071 A 
HETATM    7  C11 UNL     1      24.876  -0.442  54.611  1.00  0.00     0.098 A 
HETATM    8  C12 UNL     1      24.215  -0.026  53.459  1.00  0.00     0.071 A 
HETATM    9  C13 UNL     1      24.862   0.823  52.589  1.00  0.00     0.050 A 
HETATM   10  C14 UNL     1      26.141   1.302  52.772  1.00  0.00     0.041 A 
HETATM   11  N4  UNL     1      22.886  -0.472  53.186  1.00  0.00    -0.314 N 
HETATM   12  C22 UNL     1      22.285  -1.359  54.155  1.00  0.00     0.248 C 
HETATM   13  O1  UNL     1      21.313  -2.098  53.855  1.00  0.00    -0.271 OA
HETATM   14  C23 UNL     1      22.835  -1.401  55.554  1.00  0.00     0.279 C 
HETATM   15  O2  UNL     1      24.258  -1.297  55.516  1.00  0.00    -0.340 OA
ENDROOT
BRANCH   1  16
HETATM   16  N1  UNL     1      26.190   2.586  50.767  1.00  0.00    -0.340 N 
HETATM   17  H7  UNL     1      25.582   1.970  50.192  1.00  0.00     0.167 HD
BRANCH  16  18
HETATM   18  C6  UNL     1      26.225   3.860  50.145  1.00  0.00     0.034 A 
HETATM   19  C5  UNL     1      27.124   4.260  49.157  1.00  0.00     0.029 A 
HETATM   20  C4  UNL     1      27.142   5.489  48.567  1.00  0.00     0.003 A 
HETATM   21  C3  UNL     1      26.224   6.439  48.941  1.00  0.00     0.007 A 
HETATM   22  C2  UNL     1      25.293   6.112  49.922  1.00  0.00    -0.060 A 
HETATM   23  C1  UNL     1      24.348   7.177  50.265  1.00  0.00     0.048 C 
HETATM   24  C24 UNL     1      25.334   4.850  50.475  1.00  0.00     0.036 A 
ENDBRANCH  16  18
ENDBRANCH   1  16
BRANCH  11  25
HETATM   25  C15 UNL     1      22.130  -0.081  52.013  1.00  0.00     0.134 C 
BRANCH  25  26
HETATM   26  C16 UNL     1      21.463   1.227  52.109  1.00  0.00     0.056 C 
BRANCH  26  27
HETATM   27  C17 UNL     1      21.356   2.077  50.905  1.00  0.00     0.222 C 
HETATM   28  C18 UNL     1      21.888   1.528  49.643  1.00  0.00     0.036 C 
HETATM   29  C19 UNL     1      22.897   2.496  49.025  1.00  0.00     0.004 C 
HETATM   30  C20 UNL     1      22.253   3.863  48.837  1.00  0.00     0.030 C 
HETATM   31  C21 UNL     1      21.638   4.331  50.134  1.00  0.00     0.270 C 
HETATM   32  N5  UNL     1      21.974   3.372  51.154  1.00  0.00     0.088 N 
HETATM   33  H24 UNL     1      22.995   3.324  51.329  1.00  0.00     0.316 HD
ENDBRANCH  26  27
ENDBRANCH  25  26
ENDBRANCH  11  25
TORSDOF 5
ENDMDL
MODEL 5
REMARK VINA RESULT:      -9.5      2.889      5.787
REMARK  5 active torsions:
REMARK  status: ('A' for Active; 'I' for Inactive)
REMARK    1  A    between atoms: C6_6  and  N1_7 
REMARK    2  A    between atoms: N1_7  and  C7_8 
REMARK    3  A    between atoms: N4_18  and  C15_19 
REMARK    4  A    between atoms: C15_19  and  C16_20 
REMARK    5  A    between atoms: C16_20  and  C17_21 
ROOT
HETATM    1  C7  UNL     1      24.230  -0.212  53.717  1.00  0.00     0.142 A 
HETATM    2  N2  UNL     1      24.506  -0.881  54.815  1.00  0.00    -0.224 NA
HETATM    3  C8  UNL     1      23.612  -1.483  55.603  1.00  0.00     0.236 A 
HETATM    4  N3  UNL     1      22.311  -1.415  55.270  1.00  0.00    -0.241 NA
HETATM    5  C9  UNL     1      21.952  -0.744  54.156  1.00  0.00     0.075 A 
HETATM    6  C10 UNL     1      20.604  -0.742  53.917  1.00  0.00     0.071 A 
HETATM    7  C11 UNL     1      20.136  -0.083  52.801  1.00  0.00     0.098 A 
HETATM    8  C12 UNL     1      21.044   0.554  51.961  1.00  0.00     0.071 A 
HETATM    9  C13 UNL     1      22.385   0.505  52.271  1.00  0.00     0.050 A 
HETATM   10  C14 UNL     1      22.911  -0.138  53.370  1.00  0.00     0.041 A 
HETATM   11  N4  UNL     1      20.591   1.246  50.797  1.00  0.00    -0.314 N 
HETATM   12  C22 UNL     1      19.167   1.246  50.552  1.00  0.00     0.248 C 
HETATM   13  O1  UNL     1      18.698   1.477  49.409  1.00  0.00    -0.271 OA
HETATM   14  C23 UNL     1      18.226   0.962  51.689  1.00  0.00     0.279 C 
HETATM   15  O2  UNL     1      18.774  -0.057  52.526  1.00  0.00    -0.340 OA
ENDROOT
BRANCH   1  16
HETATM   16  N1  UNL     1      25.176   0.417  52.895  1.00  0.00    -0.340 N 
HETATM   17  H7  UNL     1      24.957   0.741  51.933  1.00  0.00     0.167 HD
BRANCH  16  18
HETATM   18  C6  UNL     1      26.534   0.734  53.157  1.00  0.00     0.034 A 
HETATM   19  C5  UNL     1      27.053   2.017  53.332  1.00  0.00     0.029 A 
HETATM   20  C4  UNL     1      28.361   2.304  53.585  1.00  0.00     0.003 A 
HETATM   21  C3  UNL     1      29.276   1.285  53.685  1.00  0.00     0.007 A 
HETATM   22  C2  UNL     1      28.832  -0.024  53.521  1.00  0.00    -0.060 A 
HETATM   23  C1  UNL     1      29.867  -1.053  53.642  1.00  0.00     0.048 C 
HETATM   24  C24 UNL     1      27.494  -0.239  53.268  1.00  0.00     0.036 A 
ENDBRANCH  16  18
ENDBRANCH   1  16
BRANCH  11  25
HETATM   25  C15 UNL     1      21.472   1.937  49.876  1.00  0.00     0.134 C 
BRANCH  25  26
HETATM   26  C16 UNL     1      21.783   3.328  50.237  1.00  0.00     0.056 C 
BRANCH  26  27
HETATM   27  C17 UNL     1      23.054   3.930  49.779  1.00  0.00     0.222 C 
HETATM   28  C18 UNL     1      24.099   3.009  49.294  1.00  0.00     0.036 C 
HETATM   29  C19 UNL     1      25.408   3.244  50.048  1.00  0.00     0.004 C 
HETATM   30  C20 UNL     1      25.819   4.705  49.925  1.00  0.00     0.030 C 
HETATM   31  C21 UNL     1      24.679   5.604  50.338  1.00  0.00     0.270 C 
HETATM   32  N5  UNL     1      23.614   4.768  50.830  1.00  0.00     0.088 N 
HETATM   33  H24 UNL     1      23.885   4.247  51.684  1.00  0.00     0.316 HD
ENDBRANCH  26  27
ENDBRANCH  25  26
ENDBRANCH  11  25
TORSDOF 5
ENDMDL
MODEL 6
REMARK VINA RESULT:      -9.2      2.168      5.373
REMARK  5 active torsions:
REMARK  status: ('A' for Active; 'I' for Inactive)
REMARK    1  A    between atoms: C6_6  and  N1_7 
REMARK    2  A    between atoms: N1_7  and  C7_8 
REMARK    3  A    between atoms: N4_18  and  C15_19 
REMARK    4  A    between atoms: C15_19  and  C16_20 
REMARK    5  A    between atoms: C16_20  and  C17_21 
ROOT
HETATM    1  C7  UNL     1      25.704   2.419  51.819  1.00  0.00     0.142 A 
HETATM    2  N2  UNL     1      26.986   2.229  52.041  1.00  0.00    -0.224 NA
HETATM    3  C8  UNL     1      27.510   1.240  52.768  1.00  0.00     0.236 A 
HETATM    4  N3  UNL     1      26.679   0.346  53.334  1.00  0.00    -0.241 NA
HETATM    5  C9  UNL     1      25.349   0.478  53.149  1.00  0.00     0.075 A 
HETATM    6  C10 UNL     1      24.603  -0.487  53.771  1.00  0.00     0.071 A 
HETATM    7  C11 UNL     1      23.231  -0.440  53.643  1.00  0.00     0.098 A 
HETATM    8  C12 UNL     1      22.656   0.580  52.891  1.00  0.00     0.071 A 
HETATM    9  C13 UNL     1      23.477   1.513  52.297  1.00  0.00     0.050 A 
HETATM   10  C14 UNL     1      24.852   1.516  52.389  1.00  0.00     0.041 A 
HETATM   11  N4  UNL     1      21.239   0.656  52.739  1.00  0.00    -0.314 N 
HETATM   12  C22 UNL     1      20.457  -0.364  53.399  1.00  0.00     0.248 C 
HETATM   13  O1  UNL     1      19.280  -0.624  53.041  1.00  0.00    -0.271 OA
HETATM   14  C23 UNL     1      21.065  -1.134  54.538  1.00  0.00     0.279 C 
HETATM   15  O2  UNL     1      22.439  -1.401  54.260  1.00  0.00    -0.340 OA
ENDROOT
BRANCH   1  16
HETATM   16  N1  UNL     1      25.163   3.462  51.053  1.00  0.00    -0.340 N 
HETATM   17  H7  UNL     1      24.147   3.682  51.044  1.00  0.00     0.167 HD
BRANCH  16  18
HETATM   18  C6  UNL     1      25.811   4.381  50.189  1.00  0.00     0.034 A 
HETATM   19  C5  UNL     1      26.914   4.102  49.382  1.00  0.00     0.029 A 
HETATM   20  C4  UNL     1      27.524   4.997  48.554  1.00  0.00     0.003 A 
HETATM   21  C3  UNL     1      27.052   6.284  48.473  1.00  0.00     0.007 A 
HETATM   22  C2  UNL     1      25.952   6.636  49.250  1.00  0.00    -0.060 A 
HETATM   23  C1  UNL     1      25.508   8.025  49.108  1.00  0.00     0.048 C 
HETATM   24  C24 UNL     1      25.386   5.679  50.065  1.00  0.00     0.036 A 
ENDBRANCH  16  18
ENDBRANCH   1  16
BRANCH  11  25
HETATM   25  C15 UNL     1      20.564   1.689  51.977  1.00  0.00     0.134 C 
BRANCH  25  26
HETATM   26  C16 UNL     1      20.319   1.362  50.565  1.00  0.00     0.056 C 
BRANCH  26  27
HETATM   27  C17 UNL     1      20.799   2.284  49.513  1.00  0.00     0.222 C 
HETATM   28  C18 UNL     1      21.711   1.728  48.496  1.00  0.00     0.036 C 
HETATM   29  C19 UNL     1      22.992   2.558  48.420  1.00  0.00     0.004 C 
HETATM   30  C20 UNL     1      22.648   4.018  48.155  1.00  0.00     0.030 C 
HETATM   31  C21 UNL     1      21.635   4.505  49.164  1.00  0.00     0.270 C 
HETATM   32  N5  UNL     1      21.424   3.450  50.122  1.00  0.00     0.088 N 
HETATM   33  H24 UNL     1      22.280   3.234  50.664  1.00  0.00     0.316 HD
ENDBRANCH  26  27
ENDBRANCH  25  26
ENDBRANCH  11  25
TORSDOF 5
ENDMDL
MODEL 7
REMARK VINA RESULT:      -8.7      4.151      7.838
REMARK  5 active torsions:
REMARK  status: ('A' for Active; 'I' for Inactive)
REMARK    1  A    between atoms: C6_6  and  N1_7 
REMARK    2  A    between atoms: N1_7  and  C7_8 
REMARK    3  A    between atoms: N4_18  and  C15_19 
REMARK    4  A    between atoms: C15_19  and  C16_20 
REMARK    5  A    between atoms: C16_20  and  C17_21 
ROOT
HETATM    1  C7  UNL     1      25.631   3.655  50.354  1.00  0.00     0.142 A 
HETATM    2  N2  UNL     1      24.424   3.683  50.875  1.00  0.00    -0.224 NA
HETATM    3  C8  UNL     1      23.573   4.709  50.807  1.00  0.00     0.236 A 
HETATM    4  N3  UNL     1      23.956   5.823  50.156  1.00  0.00    -0.241 NA
HETATM    5  C9  UNL     1      25.183   5.866  49.597  1.00  0.00     0.075 A 
HETATM    6  C10 UNL     1      25.464   7.047  48.963  1.00  0.00     0.071 A 
HETATM    7  C11 UNL     1      26.694   7.191  48.358  1.00  0.00     0.098 A 
HETATM    8  C12 UNL     1      27.602   6.138  48.413  1.00  0.00     0.071 A 
HETATM    9  C13 UNL     1      27.243   4.982  49.070  1.00  0.00     0.050 A 
HETATM   10  C14 UNL     1      26.030   4.781  49.691  1.00  0.00     0.041 A 
HETATM   11  N4  UNL     1      28.885   6.256  47.796  1.00  0.00    -0.314 N 
HETATM   12  C22 UNL     1      29.175   7.505  47.131  1.00  0.00     0.248 C 
HETATM   13  O1  UNL     1      30.076   7.590  46.257  1.00  0.00    -0.271 OA
HETATM   14  C23 UNL     1      28.382   8.731  47.490  1.00  0.00     0.279 C 
HETATM   15  O2  UNL     1      27.017   8.375  47.706  1.00  0.00    -0.340 OA
ENDROOT
BRANCH   1  16
HETATM   16  N1  UNL     1      26.518   2.572  50.431  1.00  0.00    -0.340 N 
HETATM   17  H7  UNL     1      27.032   2.208  49.604  1.00  0.00     0.167 HD
BRANCH  16  18
HETATM   18  C6  UNL     1      26.893   1.786  51.551  1.00  0.00     0.034 A 
HETATM   19  C5  UNL     1      27.478   2.263  52.723  1.00  0.00     0.029 A 
HETATM   20  C4  UNL     1      27.830   1.495  53.792  1.00  0.00     0.003 A 
HETATM   21  C3  UNL     1      27.610   0.139  53.759  1.00  0.00     0.007 A 
HETATM   22  C2  UNL     1      27.028  -0.411  52.621  1.00  0.00    -0.060 A 
HETATM   23  C1  UNL     1      26.826  -1.861  52.662  1.00  0.00     0.048 C 
HETATM   24  C24 UNL     1      26.698   0.428  51.578  1.00  0.00     0.036 A 
ENDBRANCH  16  18
ENDBRANCH   1  16
BRANCH  11  25
HETATM   25  C15 UNL     1      29.886   5.208  47.813  1.00  0.00     0.134 C 
BRANCH  25  26
HETATM   26  C16 UNL     1      31.168   5.581  48.430  1.00  0.00     0.056 C 
BRANCH  26  27
HETATM   27  C17 UNL     1      32.429   5.076  47.846  1.00  0.00     0.222 C 
HETATM   28  C18 UNL     1      32.371   3.787  47.132  1.00  0.00     0.036 C 
HETATM   29  C19 UNL     1      33.405   2.816  47.702  1.00  0.00     0.004 C 
HETATM   30  C20 UNL     1      34.790   3.446  47.651  1.00  0.00     0.030 C 
HETATM   31  C21 UNL     1      34.767   4.806  48.308  1.00  0.00     0.270 C 
HETATM   32  N5  UNL     1      33.458   5.001  48.875  1.00  0.00     0.088 N 
HETATM   33  H24 UNL     1      33.249   4.321  49.629  1.00  0.00     0.316 HD
ENDBRANCH  26  27
ENDBRANCH  25  26
ENDBRANCH  11  25
TORSDOF 5
ENDMDL
MODEL 8
REMARK VINA RESULT:      -8.7      2.772      5.753
REMARK  5 active torsions:
REMARK  status: ('A' for Active; 'I' for Inactive)
REMARK    1  A    between atoms: C6_6  and  N1_7 
REMARK    2  A    between atoms: N1_7  and  C7_8 
REMARK    3  A    between atoms: N4_18  and  C15_19 
REMARK    4  A    between atoms: C15_19  and  C16_20 
REMARK    5  A    between atoms: C16_20  and  C17_21 
ROOT
HETATM    1  C7  UNL     1      24.475   0.510  53.405  1.00  0.00     0.142 A 
HETATM    2  N2  UNL     1      24.064  -0.468  54.182  1.00  0.00    -0.224 NA
HETATM    3  C8  UNL     1      22.911  -1.130  54.055  1.00  0.00     0.236 A 
HETATM    4  N3  UNL     1      22.080  -0.789  53.054  1.00  0.00    -0.241 NA
HETATM    5  C9  UNL     1      22.435   0.207  52.216  1.00  0.00     0.075 A 
HETATM    6  C10 UNL     1      21.512   0.467  51.239  1.00  0.00     0.071 A 
HETATM    7  C11 UNL     1      21.783   1.469  50.330  1.00  0.00     0.098 A 
HETATM    8  C12 UNL     1      22.976   2.175  50.438  1.00  0.00     0.071 A 
HETATM    9  C13 UNL     1      23.852   1.853  51.450  1.00  0.00     0.050 A 
HETATM   10  C14 UNL     1      23.637   0.863  52.385  1.00  0.00     0.041 A 
HETATM   11  N4  UNL     1      23.285   3.218  49.513  1.00  0.00    -0.314 N 
HETATM   12  C22 UNL     1      22.307   3.489  48.485  1.00  0.00     0.248 C 
HETATM   13  O1  UNL     1      22.618   4.090  47.425  1.00  0.00    -0.271 OA
HETATM   14  C23 UNL     1      20.887   3.040  48.687  1.00  0.00     0.279 C 
HETATM   15  O2  UNL     1      20.870   1.763  49.324  1.00  0.00    -0.340 OA
ENDROOT
BRANCH   1  16
HETATM   16  N1  UNL     1      25.688   1.199  53.547  1.00  0.00    -0.340 N 
HETATM   17  H7  UNL     1      25.736   2.230  53.666  1.00  0.00     0.167 HD
BRANCH  16  18
HETATM   18  C6  UNL     1      27.016   0.701  53.560  1.00  0.00     0.034 A 
HETATM   19  C5  UNL     1      28.163   1.447  53.828  1.00  0.00     0.029 A 
HETATM   20  C4  UNL     1      29.433   0.952  53.840  1.00  0.00     0.003 A 
HETATM   21  C3  UNL     1      29.650  -0.378  53.574  1.00  0.00     0.007 A 
HETATM   22  C2  UNL     1      28.551  -1.186  53.297  1.00  0.00    -0.060 A 
HETATM   23  C1  UNL     1      28.864  -2.591  53.024  1.00  0.00     0.048 C 
HETATM   24  C24 UNL     1      27.295  -0.617  53.303  1.00  0.00     0.036 A 
ENDBRANCH  16  18
ENDBRANCH   1  16
BRANCH  11  25
HETATM   25  C15 UNL     1      24.504   4.003  49.562  1.00  0.00     0.134 C 
BRANCH  25  26
HETATM   26  C16 UNL     1      24.458   5.170  50.455  1.00  0.00     0.056 C 
BRANCH  26  27
HETATM   27  C17 UNL     1      24.841   6.499  49.933  1.00  0.00     0.222 C 
HETATM   28  C18 UNL     1      24.500   6.796  48.529  1.00  0.00     0.036 C 
HETATM   29  C19 UNL     1      25.746   7.232  47.759  1.00  0.00     0.004 C 
HETATM   30  C20 UNL     1      26.398   8.417  48.460  1.00  0.00     0.030 C 
HETATM   31  C21 UNL     1      26.634   8.094  49.916  1.00  0.00     0.270 C 
HETATM   32  N5  UNL     1      26.269   6.717  50.128  1.00  0.00     0.088 N 
HETATM   33  H24 UNL     1      26.870   6.063  49.595  1.00  0.00     0.316 HD
ENDBRANCH  26  27
ENDBRANCH  25  26
ENDBRANCH  11  25
TORSDOF 5
ENDMDL
MODEL 9
REMARK VINA RESULT:      -8.7      1.987      5.716
REMARK  5 active torsions:
REMARK  status: ('A' for Active; 'I' for Inactive)
REMARK    1  A    between atoms: C6_6  and  N1_7 
REMARK    2  A    between atoms: N1_7  and  C7_8 
REMARK    3  A    between atoms: N4_18  and  C15_19 
REMARK    4  A    between atoms: C15_19  and  C16_20 
REMARK    5  A    between atoms: C16_20  and  C17_21 
ROOT
HETATM    1  C7  UNL     1      22.972   2.761  49.608  1.00  0.00     0.142 A 
HETATM    2  N2  UNL     1      22.817   3.813  48.834  1.00  0.00    -0.224 NA
HETATM    3  C8  UNL     1      23.729   4.766  48.626  1.00  0.00     0.236 A 
HETATM    4  N3  UNL     1      24.916   4.668  49.250  1.00  0.00    -0.241 NA
HETATM    5  C9  UNL     1      25.147   3.615  50.062  1.00  0.00     0.075 A 
HETATM    6  C10 UNL     1      26.387   3.621  50.641  1.00  0.00     0.071 A 
HETATM    7  C11 UNL     1      26.721   2.586  51.489  1.00  0.00     0.098 A 
HETATM    8  C12 UNL     1      25.791   1.579  51.724  1.00  0.00     0.071 A 
HETATM    9  C13 UNL     1      24.564   1.646  51.102  1.00  0.00     0.050 A 
HETATM   10  C14 UNL     1      24.176   2.653  50.246  1.00  0.00     0.041 A 
HETATM   11  N4  UNL     1      26.105   0.493  52.597  1.00  0.00    -0.314 N 
HETATM   12  C22 UNL     1      27.415   0.506  53.207  1.00  0.00     0.248 C 
HETATM   13  O1  UNL     1      27.935  -0.542  53.668  1.00  0.00    -0.271 OA
HETATM   14  C23 UNL     1      28.173   1.801  53.291  1.00  0.00     0.279 C 
HETATM   15  O2  UNL     1      27.969   2.558  52.097  1.00  0.00    -0.340 OA
ENDROOT
BRANCH   1  16
HETATM   16  N1  UNL     1      22.008   1.765  49.820  1.00  0.00    -0.340 N 
HETATM   17  H7  UNL     1      22.163   0.771  49.560  1.00  0.00     0.167 HD
BRANCH  16  18
HETATM   18  C6  UNL     1      20.712   1.866  50.387  1.00  0.00     0.034 A 
HETATM   19  C5  UNL     1      20.194   2.981  51.044  1.00  0.00     0.029 A 
HETATM   20  C4  UNL     1      18.944   3.062  51.582  1.00  0.00     0.003 A 
HETATM   21  C3  UNL     1      18.092   1.989  51.493  1.00  0.00     0.007 A 
HETATM   22  C2  UNL     1      18.539   0.839  50.849  1.00  0.00    -0.060 A 
HETATM   23  C1  UNL     1      17.574  -0.262  50.795  1.00  0.00     0.048 C 
HETATM   24  C24 UNL     1      19.816   0.828  50.329  1.00  0.00     0.036 A 
ENDBRANCH  16  18
ENDBRANCH   1  16
BRANCH  11  25
HETATM   25  C15 UNL     1      25.190  -0.591  52.897  1.00  0.00     0.134 C 
BRANCH  25  26
HETATM   26  C16 UNL     1      24.161  -0.279  53.900  1.00  0.00     0.056 C 
BRANCH  26  27
HETATM   27  C17 UNL     1      22.737  -0.505  53.573  1.00  0.00     0.222 C 
HETATM   28  C18 UNL     1      21.905   0.688  53.330  1.00  0.00     0.036 C 
HETATM   29  C19 UNL     1      20.674   0.671  54.237  1.00  0.00     0.004 C 
HETATM   30  C20 UNL     1      19.902  -0.626  54.036  1.00  0.00     0.030 C 
HETATM   31  C21 UNL     1      20.824  -1.811  54.197  1.00  0.00     0.270 C 
HETATM   32  N5  UNL     1      22.112  -1.315  54.609  1.00  0.00     0.088 N 
HETATM   33  H24 UNL     1      22.079  -0.857  55.538  1.00  0.00     0.316 HD
ENDBRANCH  26  27
ENDBRANCH  25  26
ENDBRANCH  11  25
TORSDOF 5
ENDMDL
