MODEL 1
REMARK VINA RESULT:      -7.6      0.000      0.000
REMARK  8 active torsions:
REMARK  status: ('A' for Active; 'I' for Inactive)
REMARK    1  A    between atoms: O1_2  and  C2_3 
REMARK    2  A    between atoms: C2_3  and  C3_4 
REMARK    3  A    between atoms: C2_3  and  C11_14 
REMARK    4  A    between atoms: C3_4  and  O2_5 
REMARK    5  A    between atoms: O2_5  and  C4_6 
REMARK    6  A    between atoms: C4_6  and  C5_7 
REMARK    7  A    between atoms: C13_16  and  N2_17 
REMARK    8  A    between atoms: N2_17  and  C14_18 
ROOT
HETATM    1  C11 UNL     1      23.258   4.230  50.936  1.00  0.00     0.025 A 
HETATM    2  C12 UNL     1      23.841   3.636  52.124  1.00  0.00     0.066 A 
HETATM    3  C13 UNL     1      25.127   3.347  52.174  1.00  0.00     0.122 A 
HETATM    4  N3  UNL     1      25.993   3.601  51.077  1.00  0.00    -0.262 N 
HETATM    5  N4  UNL     1      25.440   4.171  49.931  1.00  0.00    -0.177 NA
HETATM    6  C20 UNL     1      24.186   4.463  49.857  1.00  0.00     0.063 A 
HETATM    7  C21 UNL     1      23.724   5.065  48.592  1.00  0.00     0.073 C 
HETATM    8  H25 UNL     1      27.011   3.396  51.054  1.00  0.00     0.191 HD
ENDROOT
BRANCH   1   9
HETATM    9  C2  UNL     1      21.973   4.493  50.985  1.00  0.00     0.081 C 
BRANCH   9  10
HETATM   10  O1  UNL     1      21.535   5.695  51.469  1.00  0.00    -0.357 OA
HETATM   11  C1  UNL     1      21.579   6.936  50.853  1.00  0.00     0.209 C 
ENDBRANCH   9  10
BRANCH   9  12
HETATM   12  C3  UNL     1      20.683   3.870  50.669  1.00  0.00     0.233 C 
BRANCH  12  13
HETATM   13  O2  UNL     1      20.768   2.480  50.639  1.00  0.00    -0.384 OA
BRANCH  13  14
HETATM   14  C4  UNL     1      20.165   1.972  51.765  1.00  0.00     0.172 C 
BRANCH  14  15
HETATM   15  C5  UNL     1      21.092   1.185  52.665  1.00  0.00     0.013 C 
HETATM   16  C6  UNL     1      20.170   0.405  53.615  1.00  0.00     0.037 C 
HETATM   17  C7  UNL     1      21.072  -0.041  54.751  1.00  0.00     0.272 C 
HETATM   18  N1  UNL     1      22.417  -0.288  54.279  1.00  0.00     0.084 N 
HETATM   19  C8  UNL     1      22.972  -1.306  55.166  1.00  0.00     0.309 C 
HETATM   20  C9  UNL     1      22.485  -0.781  52.936  1.00  0.00     0.272 C 
HETATM   21  C10 UNL     1      22.028   0.279  51.947  1.00  0.00     0.037 C 
ENDBRANCH  14  15
ENDBRANCH  13  14
ENDBRANCH  12  13
ENDBRANCH   9  12
ENDBRANCH   1   9
BRANCH   3  22
HETATM   22  N2  UNL     1      25.803   2.764  53.286  1.00  0.00    -0.339 N 
HETATM   23  H21 UNL     1      25.618   3.367  54.123  1.00  0.00     0.167 HD
BRANCH  22  24
HETATM   24  C14 UNL     1      26.575   1.595  53.263  1.00  0.00     0.072 A 
HETATM   25  C15 UNL     1      25.984   0.411  52.961  1.00  0.00     0.034 A 
HETATM   26  C16 UNL     1      26.762  -0.739  52.942  1.00  0.00     0.021 A 
HETATM   27  C17 UNL     1      28.131  -0.684  53.228  1.00  0.00     0.014 A 
HETATM   28 BR1  UNL     1      29.187  -2.267  53.198  1.00  0.00    -0.051 Br
HETATM   29  C18 UNL     1      28.687   0.559  53.531  1.00  0.00     0.063 A 
HETATM   30  C19 UNL     1      27.907   1.720  53.552  1.00  0.00     0.144 A 
HETATM   31  F1  UNL     1      28.510   2.896  53.854  1.00  0.00    -0.204 F 
ENDBRANCH  22  24
ENDBRANCH   3  22
TORSDOF 8
ENDMDL
MODEL 2
REMARK VINA RESULT:      -7.5      3.481      6.161
REMARK  8 active torsions:
REMARK  status: ('A' for Active; 'I' for Inactive)
REMARK    1  A    between atoms: O1_2  and  C2_3 
REMARK    2  A    between atoms: C2_3  and  C3_4 
REMARK    3  A    between atoms: C2_3  and  C11_14 
REMARK    4  A    between atoms: C3_4  and  O2_5 
REMARK    5  A    between atoms: O2_5  and  C4_6 
REMARK    6  A    between atoms: C4_6  and  C5_7 
REMARK    7  A    between atoms: C13_16  and  N2_17 
REMARK    8  A    between atoms: N2_17  and  C14_18 
ROOT
HETATM    1  C11 UNL     1      26.220   0.732  52.964  1.00  0.00     0.025 A 
HETATM    2  C12 UNL     1      25.601   1.364  51.814  1.00  0.00     0.066 A 
HETATM    3  C13 UNL     1      26.171   2.396  51.223  1.00  0.00     0.122 A 
HETATM    4  N3  UNL     1      27.405   2.932  51.681  1.00  0.00    -0.262 N 
HETATM    5  N4  UNL     1      28.005   2.329  52.786  1.00  0.00    -0.177 NA
HETATM    6  C20 UNL     1      27.468   1.319  53.381  1.00  0.00     0.063 A 
HETATM    7  C21 UNL     1      28.203   0.769  54.535  1.00  0.00     0.073 C 
HETATM    8  H25 UNL     1      27.902   3.741  51.260  1.00  0.00     0.191 HD
ENDROOT
BRANCH   1   9
HETATM    9  C2  UNL     1      25.584  -0.296  53.477  1.00  0.00     0.081 C 
BRANCH   9  10
HETATM   10  O1  UNL     1      26.161  -1.537  53.466  1.00  0.00    -0.357 OA
HETATM   11  C1  UNL     1      26.957  -2.104  52.484  1.00  0.00     0.209 C 
ENDBRANCH   9  10
BRANCH   9  12
HETATM   12  C3  UNL     1      24.312  -0.622  54.132  1.00  0.00     0.233 C 
BRANCH  12  13
HETATM   13  O2  UNL     1      23.322  -0.958  53.212  1.00  0.00    -0.384 OA
BRANCH  13  14
HETATM   14  C4  UNL     1      22.161  -0.303  53.548  1.00  0.00     0.172 C 
BRANCH  14  15
HETATM   15  C5  UNL     1      21.934   0.987  52.791  1.00  0.00     0.013 C 
HETATM   16  C6  UNL     1      21.947   0.594  51.306  1.00  0.00     0.037 C 
HETATM   17  C7  UNL     1      22.136   1.902  50.560  1.00  0.00     0.272 C 
HETATM   18  N1  UNL     1      21.517   2.999  51.271  1.00  0.00     0.084 N 
HETATM   19  C8  UNL     1      21.137   3.973  50.252  1.00  0.00     0.309 C 
HETATM   20  C9  UNL     1      20.339   2.633  52.000  1.00  0.00     0.272 C 
HETATM   21  C10 UNL     1      20.684   1.706  53.154  1.00  0.00     0.037 C 
ENDBRANCH  14  15
ENDBRANCH  13  14
ENDBRANCH  12  13
ENDBRANCH   9  12
ENDBRANCH   1   9
BRANCH   3  22
HETATM   22  N2  UNL     1      25.654   3.093  50.091  1.00  0.00    -0.339 N 
HETATM   23  H21 UNL     1      25.295   2.377  49.415  1.00  0.00     0.167 HD
BRANCH  22  24
HETATM   24  C14 UNL     1      25.632   4.483  49.916  1.00  0.00     0.072 A 
HETATM   25  C15 UNL     1      24.684   5.220  50.550  1.00  0.00     0.034 A 
HETATM   26  C16 UNL     1      24.675   6.596  50.367  1.00  0.00     0.021 A 
HETATM   27  C17 UNL     1      25.622   7.218  49.545  1.00  0.00     0.014 A 
HETATM   28 BR1  UNL     1      25.599   9.105  49.302  1.00  0.00    -0.051 Br
HETATM   29  C18 UNL     1      26.574   6.413  48.918  1.00  0.00     0.063 A 
HETATM   30  C19 UNL     1      26.587   5.025  49.099  1.00  0.00     0.144 A 
HETATM   31  F1  UNL     1      27.538   4.301  48.461  1.00  0.00    -0.204 F 
ENDBRANCH  22  24
ENDBRANCH   3  22
TORSDOF 8
ENDMDL
MODEL 3
REMARK VINA RESULT:      -7.4      2.192      2.971
REMARK  8 active torsions:
REMARK  status: ('A' for Active; 'I' for Inactive)
REMARK    1  A    between atoms: O1_2  and  C2_3 
REMARK    2  A    between atoms: C2_3  and  C3_4 
REMARK    3  A    between atoms: C2_3  and  C11_14 
REMARK    4  A    between atoms: C3_4  and  O2_5 
REMARK    5  A    between atoms: O2_5  and  C4_6 
REMARK    6  A    between atoms: C4_6  and  C5_7 
REMARK    7  A    between atoms: C13_16  and  N2_17 
REMARK    8  A    between atoms: N2_17  and  C14_18 
ROOT
HETATM    1  C11 UNL     1      21.907   4.283  49.588  1.00  0.00     0.025 A 
HETATM    2  C12 UNL     1      23.066   3.790  50.306  1.00  0.00     0.066 A 
HETATM    3  C13 UNL     1      23.410   4.304  51.471  1.00  0.00     0.122 A 
HETATM    4  N3  UNL     1      22.667   5.357  52.071  1.00  0.00    -0.262 N 
HETATM    5  N4  UNL     1      21.551   5.837  51.386  1.00  0.00    -0.177 NA
HETATM    6  C20 UNL     1      21.195   5.350  50.246  1.00  0.00     0.063 A 
HETATM    7  C21 UNL     1      19.994   5.941  49.625  1.00  0.00     0.073 C 
HETATM    8  H25 UNL     1      22.885   5.803  52.983  1.00  0.00     0.191 HD
ENDROOT
BRANCH   1   9
HETATM    9  C2  UNL     1      21.637   3.700  48.443  1.00  0.00     0.081 C 
BRANCH   9  10
HETATM   10  O1  UNL     1      22.301   4.075  47.307  1.00  0.00    -0.357 OA
HETATM   11  C1  UNL     1      21.865   3.999  45.994  1.00  0.00     0.209 C 
ENDBRANCH   9  10
BRANCH   9  12
HETATM   12  C3  UNL     1      20.760   2.665  47.886  1.00  0.00     0.233 C 
BRANCH  12  13
HETATM   13  O2  UNL     1      20.766   1.505  48.656  1.00  0.00    -0.384 OA
BRANCH  13  14
HETATM   14  C4  UNL     1      19.636   1.483  49.438  1.00  0.00     0.172 C 
BRANCH  14  15
HETATM   15  C5  UNL     1      19.888   1.107  50.882  1.00  0.00     0.013 C 
HETATM   16  C6  UNL     1      21.289   0.477  50.899  1.00  0.00     0.037 C 
HETATM   17  C7  UNL     1      21.368  -0.258  52.224  1.00  0.00     0.272 C 
HETATM   18  N1  UNL     1      20.593   0.419  53.240  1.00  0.00     0.084 N 
HETATM   19  C8  UNL     1      21.242   0.110  54.511  1.00  0.00     0.309 C 
HETATM   20  C9  UNL     1      20.554   1.844  53.094  1.00  0.00     0.272 C 
HETATM   21  C10 UNL     1      19.786   2.238  51.843  1.00  0.00     0.037 C 
ENDBRANCH  14  15
ENDBRANCH  13  14
ENDBRANCH  12  13
ENDBRANCH   9  12
ENDBRANCH   1   9
BRANCH   3  22
HETATM   22  N2  UNL     1      24.525   3.898  52.261  1.00  0.00    -0.339 N 
HETATM   23  H21 UNL     1      24.880   4.744  52.768  1.00  0.00     0.167 HD
BRANCH  22  24
HETATM   24  C14 UNL     1      25.050   2.602  52.344  1.00  0.00     0.072 A 
HETATM   25  C15 UNL     1      24.395   1.662  53.072  1.00  0.00     0.034 A 
HETATM   26  C16 UNL     1      24.927   0.382  53.145  1.00  0.00     0.021 A 
HETATM   27  C17 UNL     1      26.117   0.060  52.481  1.00  0.00     0.014 A 
HETATM   28 BR1  UNL     1      26.837  -1.698  52.588  1.00  0.00    -0.051 Br
HETATM   29  C18 UNL     1      26.748   1.064  51.746  1.00  0.00     0.063 A 
HETATM   30  C19 UNL     1      26.216   2.356  51.670  1.00  0.00     0.144 A 
HETATM   31  F1  UNL     1      26.879   3.285  50.940  1.00  0.00    -0.204 F 
ENDBRANCH  22  24
ENDBRANCH   3  22
TORSDOF 8
ENDMDL
MODEL 4
REMARK VINA RESULT:      -7.3      3.198      5.527
REMARK  8 active torsions:
REMARK  status: ('A' for Active; 'I' for Inactive)
REMARK    1  A    between atoms: O1_2  and  C2_3 
REMARK    2  A    between atoms: C2_3  and  C3_4 
REMARK    3  A    between atoms: C2_3  and  C11_14 
REMARK    4  A    between atoms: C3_4  and  O2_5 
REMARK    5  A    between atoms: O2_5  and  C4_6 
REMARK    6  A    between atoms: C4_6  and  C5_7 
REMARK    7  A    between atoms: C13_16  and  N2_17 
REMARK    8  A    between atoms: N2_17  and  C14_18 
ROOT
HETATM    1  C11 UNL     1      22.514   1.953  50.906  1.00  0.00     0.025 A 
HETATM    2  C12 UNL     1      23.464   2.954  51.352  1.00  0.00     0.066 A 
HETATM    3  C13 UNL     1      24.013   3.793  50.496  1.00  0.00     0.122 A 
HETATM    4  N3  UNL     1      23.703   3.755  49.110  1.00  0.00    -0.262 N 
HETATM    5  N4  UNL     1      22.791   2.795  48.674  1.00  0.00    -0.177 NA
HETATM    6  C20 UNL     1      22.240   1.964  49.491  1.00  0.00     0.063 A 
HETATM    7  C21 UNL     1      21.289   1.000  48.907  1.00  0.00     0.073 C 
HETATM    8  H25 UNL     1      24.101   4.387  48.387  1.00  0.00     0.191 HD
ENDROOT
BRANCH   1   9
HETATM    9  C2  UNL     1      22.012   1.171  51.833  1.00  0.00     0.081 C 
BRANCH   9  10
HETATM   10  O1  UNL     1      20.806   1.469  52.407  1.00  0.00    -0.357 OA
HETATM   11  C1  UNL     1      20.017   2.591  52.209  1.00  0.00     0.209 C 
ENDBRANCH   9  10
BRANCH   9  12
HETATM   12  C3  UNL     1      22.334  -0.059  52.565  1.00  0.00     0.233 C 
BRANCH  12  13
HETATM   13  O2  UNL     1      23.183   0.181  53.642  1.00  0.00    -0.384 OA
BRANCH  13  14
HETATM   14  C4  UNL     1      24.160  -0.785  53.665  1.00  0.00     0.172 C 
BRANCH  14  15
HETATM   15  C5  UNL     1      25.561  -0.247  53.858  1.00  0.00     0.013 C 
HETATM   16  C6  UNL     1      26.414  -0.937  52.783  1.00  0.00     0.037 C 
HETATM   17  C7  UNL     1      27.848  -0.727  53.230  1.00  0.00     0.272 C 
HETATM   18  N1  UNL     1      27.994   0.531  53.929  1.00  0.00     0.084 N 
HETATM   19  C8  UNL     1      29.371   0.959  53.699  1.00  0.00     0.309 C 
HETATM   20  C9  UNL     1      27.121   1.566  53.461  1.00  0.00     0.272 C 
HETATM   21  C10 UNL     1      25.671   1.234  53.775  1.00  0.00     0.037 C 
ENDBRANCH  14  15
ENDBRANCH  13  14
ENDBRANCH  12  13
ENDBRANCH   9  12
ENDBRANCH   1   9
BRANCH   3  22
HETATM   22  N2  UNL     1      24.955   4.813  50.822  1.00  0.00    -0.339 N 
HETATM   23  H21 UNL     1      24.807   5.073  51.826  1.00  0.00     0.167 HD
BRANCH  22  24
HETATM   24  C14 UNL     1      25.908   5.365  49.955  1.00  0.00     0.072 A 
HETATM   25  C15 UNL     1      25.870   6.694  49.681  1.00  0.00     0.034 A 
HETATM   26  C16 UNL     1      26.822   7.225  48.821  1.00  0.00     0.021 A 
HETATM   27  C17 UNL     1      27.803   6.412  48.243  1.00  0.00     0.014 A 
HETATM   28 BR1  UNL     1      29.102   7.152  47.066  1.00  0.00    -0.051 Br
HETATM   29  C18 UNL     1      27.797   5.053  48.561  1.00  0.00     0.063 A 
HETATM   30  C19 UNL     1      26.840   4.512  49.427  1.00  0.00     0.144 A 
HETATM   31  F1  UNL     1      26.889   3.184  49.693  1.00  0.00    -0.204 F 
ENDBRANCH  22  24
ENDBRANCH   3  22
TORSDOF 8
ENDMDL
MODEL 5
REMARK VINA RESULT:      -7.2      3.901      6.053
REMARK  8 active torsions:
REMARK  status: ('A' for Active; 'I' for Inactive)
REMARK    1  A    between atoms: O1_2  and  C2_3 
REMARK    2  A    between atoms: C2_3  and  C3_4 
REMARK    3  A    between atoms: C2_3  and  C11_14 
REMARK    4  A    between atoms: C3_4  and  O2_5 
REMARK    5  A    between atoms: O2_5  and  C4_6 
REMARK    6  A    between atoms: C4_6  and  C5_7 
REMARK    7  A    between atoms: C13_16  and  N2_17 
REMARK    8  A    between atoms: N2_17  and  C14_18 
ROOT
HETATM    1  C11 UNL     1      24.092   4.229  50.645  1.00  0.00     0.025 A 
HETATM    2  C12 UNL     1      24.910   4.620  49.513  1.00  0.00     0.066 A 
HETATM    3  C13 UNL     1      25.333   5.862  49.381  1.00  0.00     0.122 A 
HETATM    4  N3  UNL     1      25.011   6.866  50.334  1.00  0.00    -0.262 N 
HETATM    5  N4  UNL     1      24.225   6.498  51.426  1.00  0.00    -0.177 NA
HETATM    6  C20 UNL     1      23.799   5.289  51.576  1.00  0.00     0.063 A 
HETATM    7  C21 UNL     1      22.980   5.026  52.774  1.00  0.00     0.073 C 
HETATM    8  H25 UNL     1      25.312   7.859  50.287  1.00  0.00     0.191 HD
ENDROOT
BRANCH   1   9
HETATM    9  C2  UNL     1      23.730   2.968  50.696  1.00  0.00     0.081 C 
BRANCH   9  10
HETATM   10  O1  UNL     1      22.664   2.529  49.959  1.00  0.00    -0.357 OA
HETATM   11  C1  UNL     1      22.043   1.291  50.003  1.00  0.00     0.209 C 
ENDBRANCH   9  10
BRANCH   9  12
HETATM   12  C3  UNL     1      24.110   1.713  51.353  1.00  0.00     0.233 C 
BRANCH  12  13
HETATM   13  O2  UNL     1      24.495   1.912  52.677  1.00  0.00    -0.384 OA
BRANCH  13  14
HETATM   14  C4  UNL     1      24.770   0.693  53.249  1.00  0.00     0.172 C 
BRANCH  14  15
HETATM   15  C5  UNL     1      26.232   0.305  53.210  1.00  0.00     0.013 C 
HETATM   16  C6  UNL     1      26.668   0.216  54.680  1.00  0.00     0.037 C 
HETATM   17  C7  UNL     1      28.184   0.240  54.638  1.00  0.00     0.272 C 
HETATM   18  N1  UNL     1      28.680  -0.394  53.436  1.00  0.00     0.084 N 
HETATM   19  C8  UNL     1      29.992  -0.934  53.780  1.00  0.00     0.309 C 
HETATM   20  C9  UNL     1      27.863  -1.472  52.964  1.00  0.00     0.272 C 
HETATM   21  C10 UNL     1      26.517  -0.958  52.479  1.00  0.00     0.037 C 
ENDBRANCH  14  15
ENDBRANCH  13  14
ENDBRANCH  12  13
ENDBRANCH   9  12
ENDBRANCH   1   9
BRANCH   3  22
HETATM   22  N2  UNL     1      26.139   6.356  48.313  1.00  0.00    -0.339 N 
HETATM   23  H21 UNL     1      25.521   6.465  47.474  1.00  0.00     0.167 HD
BRANCH  22  24
HETATM   24  C14 UNL     1      27.508   6.644  48.376  1.00  0.00     0.072 A 
HETATM   25  C15 UNL     1      27.917   7.937  48.431  1.00  0.00     0.034 A 
HETATM   26  C16 UNL     1      29.277   8.206  48.494  1.00  0.00     0.021 A 
HETATM   27  C17 UNL     1      30.215   7.168  48.500  1.00  0.00     0.014 A 
HETATM   28 BR1  UNL     1      32.078   7.549  48.587  1.00  0.00    -0.051 Br
HETATM   29  C18 UNL     1      29.741   5.857  48.444  1.00  0.00     0.063 A 
HETATM   30  C19 UNL     1      28.371   5.580  48.380  1.00  0.00     0.144 A 
HETATM   31  F1  UNL     1      27.976   4.285  48.326  1.00  0.00    -0.204 F 
ENDBRANCH  22  24
ENDBRANCH   3  22
TORSDOF 8
ENDMDL
MODEL 6
REMARK VINA RESULT:      -7.1      2.449      5.817
REMARK  8 active torsions:
REMARK  status: ('A' for Active; 'I' for Inactive)
REMARK    1  A    between atoms: O1_2  and  C2_3 
REMARK    2  A    between atoms: C2_3  and  C3_4 
REMARK    3  A    between atoms: C2_3  and  C11_14 
REMARK    4  A    between atoms: C3_4  and  O2_5 
REMARK    5  A    between atoms: O2_5  and  C4_6 
REMARK    6  A    between atoms: C4_6  and  C5_7 
REMARK    7  A    between atoms: C13_16  and  N2_17 
REMARK    8  A    between atoms: N2_17  and  C14_18 
ROOT
HETATM    1  C11 UNL     1      22.616   1.825  51.509  1.00  0.00     0.025 A 
HETATM    2  C12 UNL     1      23.593   1.291  52.438  1.00  0.00     0.066 A 
HETATM    3  C13 UNL     1      23.405   0.121  53.018  1.00  0.00     0.122 A 
HETATM    4  N3  UNL     1      22.248  -0.662  52.762  1.00  0.00    -0.262 N 
HETATM    5  N4  UNL     1      21.304  -0.155  51.870  1.00  0.00    -0.177 NA
HETATM    6  C20 UNL     1      21.465   0.985  51.290  1.00  0.00     0.063 A 
HETATM    7  C21 UNL     1      20.396   1.409  50.365  1.00  0.00     0.073 C 
HETATM    8  H25 UNL     1      22.042  -1.588  53.186  1.00  0.00     0.191 HD
ENDROOT
BRANCH   1   9
HETATM    9  C2  UNL     1      22.896   2.990  50.973  1.00  0.00     0.081 C 
BRANCH   9  10
HETATM   10  O1  UNL     1      22.547   4.145  51.616  1.00  0.00    -0.357 OA
HETATM   11  C1  UNL     1      22.245   5.379  51.062  1.00  0.00     0.209 C 
ENDBRANCH   9  10
BRANCH   9  12
HETATM   12  C3  UNL     1      23.523   3.556  49.773  1.00  0.00     0.233 C 
BRANCH  12  13
HETATM   13  O2  UNL     1      24.817   3.076  49.585  1.00  0.00    -0.384 OA
BRANCH  13  14
HETATM   14  C4  UNL     1      25.710   3.989  50.094  1.00  0.00     0.172 C 
BRANCH  14  15
HETATM   15  C5  UNL     1      26.063   5.109  49.141  1.00  0.00     0.013 C 
HETATM   16  C6  UNL     1      25.754   6.405  49.906  1.00  0.00     0.037 C 
HETATM   17  C7  UNL     1      25.709   7.484  48.840  1.00  0.00     0.272 C 
HETATM   18  N1  UNL     1      26.625   7.186  47.761  1.00  0.00     0.084 N 
HETATM   19  C8  UNL     1      27.028   8.476  47.210  1.00  0.00     0.309 C 
HETATM   20  C9  UNL     1      27.807   6.488  48.173  1.00  0.00     0.272 C 
HETATM   21  C10 UNL     1      27.468   5.086  48.652  1.00  0.00     0.037 C 
ENDBRANCH  14  15
ENDBRANCH  13  14
ENDBRANCH  12  13
ENDBRANCH   9  12
ENDBRANCH   1   9
BRANCH   3  22
HETATM   22  N2  UNL     1      24.296  -0.498  53.944  1.00  0.00    -0.339 N 
HETATM   23  H21 UNL     1      23.715  -0.932  54.701  1.00  0.00     0.167 HD
BRANCH  22  24
HETATM   24  C14 UNL     1      25.694  -0.522  53.855  1.00  0.00     0.072 A 
HETATM   25  C15 UNL     1      26.286  -1.191  52.833  1.00  0.00     0.034 A 
HETATM   26  C16 UNL     1      27.672  -1.205  52.758  1.00  0.00     0.021 A 
HETATM   27  C17 UNL     1      28.450  -0.545  53.717  1.00  0.00     0.014 A 
HETATM   28 BR1  UNL     1      30.350  -0.572  53.604  1.00  0.00    -0.051 Br
HETATM   29  C18 UNL     1      27.790   0.127  54.745  1.00  0.00     0.063 A 
HETATM   30  C19 UNL     1      26.393   0.144  54.825  1.00  0.00     0.144 A 
HETATM   31  F1  UNL     1      25.814   0.815  55.850  1.00  0.00    -0.204 F 
ENDBRANCH  22  24
ENDBRANCH   3  22
TORSDOF 8
ENDMDL
MODEL 7
REMARK VINA RESULT:      -7.0      4.062      6.602
REMARK  8 active torsions:
REMARK  status: ('A' for Active; 'I' for Inactive)
REMARK    1  A    between atoms: O1_2  and  C2_3 
REMARK    2  A    between atoms: C2_3  and  C3_4 
REMARK    3  A    between atoms: C2_3  and  C11_14 
REMARK    4  A    between atoms: C3_4  and  O2_5 
REMARK    5  A    between atoms: O2_5  and  C4_6 
REMARK    6  A    between atoms: C4_6  and  C5_7 
REMARK    7  A    between atoms: C13_16  and  N2_17 
REMARK    8  A    between atoms: N2_17  and  C14_18 
ROOT
HETATM    1  C11 UNL     1      23.046   4.197  50.892  1.00  0.00     0.025 A 
HETATM    2  C12 UNL     1      24.315   4.897  50.834  1.00  0.00     0.066 A 
HETATM    3  C13 UNL     1      24.371   6.207  50.977  1.00  0.00     0.122 A 
HETATM    4  N3  UNL     1      23.202   6.986  51.191  1.00  0.00    -0.262 N 
HETATM    5  N4  UNL     1      21.978   6.319  51.247  1.00  0.00    -0.177 NA
HETATM    6  C20 UNL     1      21.898   5.039  51.111  1.00  0.00     0.063 A 
HETATM    7  C21 UNL     1      20.547   4.453  51.194  1.00  0.00     0.073 C 
HETATM    8  H25 UNL     1      23.180   8.017  51.310  1.00  0.00     0.191 HD
ENDROOT
BRANCH   1   9
HETATM    9  C2  UNL     1      23.093   2.892  50.752  1.00  0.00     0.081 C 
BRANCH   9  10
HETATM   10  O1  UNL     1      23.015   2.331  49.507  1.00  0.00    -0.357 OA
HETATM   11  C1  UNL     1      21.916   1.749  48.895  1.00  0.00     0.209 C 
ENDBRANCH   9  10
BRANCH   9  12
HETATM   12  C3  UNL     1      23.206   1.676  51.564  1.00  0.00     0.233 C 
BRANCH  12  13
HETATM   13  O2  UNL     1      24.529   1.267  51.712  1.00  0.00    -0.384 OA
BRANCH  13  14
HETATM   14  C4  UNL     1      24.995   1.698  52.931  1.00  0.00     0.172 C 
BRANCH  14  15
HETATM   15  C5  UNL     1      26.302   1.064  53.355  1.00  0.00     0.013 C 
HETATM   16  C6  UNL     1      26.606   0.005  52.284  1.00  0.00     0.037 C 
HETATM   17  C7  UNL     1      27.659  -0.889  52.910  1.00  0.00     0.272 C 
HETATM   18  N1  UNL     1      28.512  -0.138  53.806  1.00  0.00     0.084 N 
HETATM   19  C8  UNL     1      29.803  -0.819  53.794  1.00  0.00     0.309 C 
HETATM   20  C9  UNL     1      28.721   1.223  53.411  1.00  0.00     0.272 C 
HETATM   21  C10 UNL     1      27.431   2.020  53.513  1.00  0.00     0.037 C 
ENDBRANCH  14  15
ENDBRANCH  13  14
ENDBRANCH  12  13
ENDBRANCH   9  12
ENDBRANCH   1   9
BRANCH   3  22
HETATM   22  N2  UNL     1      25.559   6.996  50.938  1.00  0.00    -0.339 N 
HETATM   23  H21 UNL     1      26.024   6.915  51.874  1.00  0.00     0.167 HD
BRANCH  22  24
HETATM   24  C14 UNL     1      26.019   7.743  49.846  1.00  0.00     0.072 A 
HETATM   25  C15 UNL     1      25.832   9.087  49.830  1.00  0.00     0.034 A 
HETATM   26  C16 UNL     1      26.294   9.813  48.740  1.00  0.00     0.021 A 
HETATM   27  C17 UNL     1      26.941   9.176  47.675  1.00  0.00     0.014 A 
HETATM   28 BR1  UNL     1      27.570  10.182  46.187  1.00  0.00    -0.051 Br
HETATM   29  C18 UNL     1      27.108   7.793  47.744  1.00  0.00     0.063 A 
HETATM   30  C19 UNL     1      26.644   7.056  48.839  1.00  0.00     0.144 A 
HETATM   31  F1  UNL     1      26.837   5.715  48.844  1.00  0.00    -0.204 F 
ENDBRANCH  22  24
ENDBRANCH   3  22
TORSDOF 8
ENDMDL
MODEL 8
REMARK VINA RESULT:      -6.9      3.593      6.548
REMARK  8 active torsions:
REMARK  status: ('A' for Active; 'I' for Inactive)
REMARK    1  A    between atoms: O1_2  and  C2_3 
REMARK    2  A    between atoms: C2_3  and  C3_4 
REMARK    3  A    between atoms: C2_3  and  C11_14 
REMARK    4  A    between atoms: C3_4  and  O2_5 
REMARK    5  A    between atoms: O2_5  and  C4_6 
REMARK    6  A    between atoms: C4_6  and  C5_7 
REMARK    7  A    between atoms: C13_16  and  N2_17 
REMARK    8  A    between atoms: N2_17  and  C14_18 
ROOT
HETATM    1  C11 UNL     1      23.793   4.438  50.522  1.00  0.00     0.025 A 
HETATM    2  C12 UNL     1      24.207   3.596  51.628  1.00  0.00     0.066 A 
HETATM    3  C13 UNL     1      23.880   2.319  51.664  1.00  0.00     0.122 A 
HETATM    4  N3  UNL     1      23.114   1.715  50.631  1.00  0.00    -0.262 N 
HETATM    5  N4  UNL     1      22.712   2.519  49.565  1.00  0.00    -0.177 NA
HETATM    6  C20 UNL     1      23.019   3.770  49.507  1.00  0.00     0.063 A 
HETATM    7  C21 UNL     1      22.538   4.511  48.326  1.00  0.00     0.073 C 
HETATM    8  H25 UNL     1      22.824   0.718  50.602  1.00  0.00     0.191 HD
ENDROOT
BRANCH   1   9
HETATM    9  C2  UNL     1      24.177   5.693  50.569  1.00  0.00     0.081 C 
BRANCH   9  10
HETATM   10  O1  UNL     1      23.317   6.660  51.011  1.00  0.00    -0.357 OA
HETATM   11  C1  UNL     1      23.014   7.875  50.417  1.00  0.00     0.209 C 
ENDBRANCH   9  10
BRANCH   9  12
HETATM   12  C3  UNL     1      25.349   6.524  50.269  1.00  0.00     0.233 C 
BRANCH  12  13
HETATM   13  O2  UNL     1      26.242   5.879  49.417  1.00  0.00    -0.384 OA
BRANCH  13  14
HETATM   14  C4  UNL     1      26.522   6.706  48.356  1.00  0.00     0.172 C 
BRANCH  14  15
HETATM   15  C5  UNL     1      27.969   6.680  47.914  1.00  0.00     0.013 C 
HETATM   16  C6  UNL     1      28.596   7.953  48.501  1.00  0.00     0.037 C 
HETATM   17  C7  UNL     1      29.892   8.137  47.733  1.00  0.00     0.272 C 
HETATM   18  N1  UNL     1      30.456   6.860  47.354  1.00  0.00     0.084 N 
HETATM   19  C8  UNL     1      31.900   7.065  47.284  1.00  0.00     0.309 C 
HETATM   20  C9  UNL     1      30.200   5.806  48.290  1.00  0.00     0.272 C 
HETATM   21  C10 UNL     1      28.719   5.463  48.325  1.00  0.00     0.037 C 
ENDBRANCH  14  15
ENDBRANCH  13  14
ENDBRANCH  12  13
ENDBRANCH   9  12
ENDBRANCH   1   9
BRANCH   3  22
HETATM   22  N2  UNL     1      24.231   1.401  52.698  1.00  0.00    -0.339 N 
HETATM   23  H21 UNL     1      23.370   1.218  53.265  1.00  0.00     0.167 HD
BRANCH  22  24
HETATM   24  C14 UNL     1      25.499   0.845  52.912  1.00  0.00     0.072 A 
HETATM   25  C15 UNL     1      25.816  -0.340  52.330  1.00  0.00     0.034 A 
HETATM   26  C16 UNL     1      27.076  -0.878  52.552  1.00  0.00     0.021 A 
HETATM   27  C17 UNL     1      28.008  -0.216  53.360  1.00  0.00     0.014 A 
HETATM   28 BR1  UNL     1      29.732  -0.964  53.656  1.00  0.00    -0.051 Br
HETATM   29  C18 UNL     1      27.631   0.999  53.932  1.00  0.00     0.063 A 
HETATM   30  C19 UNL     1      26.362   1.545  53.712  1.00  0.00     0.144 A 
HETATM   31  F1  UNL     1      26.058   2.729  54.298  1.00  0.00    -0.204 F 
ENDBRANCH  22  24
ENDBRANCH   3  22
TORSDOF 8
ENDMDL
MODEL 9
REMARK VINA RESULT:      -6.9      3.834      6.360
REMARK  8 active torsions:
REMARK  status: ('A' for Active; 'I' for Inactive)
REMARK    1  A    between atoms: O1_2  and  C2_3 
REMARK    2  A    between atoms: C2_3  and  C3_4 
REMARK    3  A    between atoms: C2_3  and  C11_14 
REMARK    4  A    between atoms: C3_4  and  O2_5 
REMARK    5  A    between atoms: O2_5  and  C4_6 
REMARK    6  A    between atoms: C4_6  and  C5_7 
REMARK    7  A    between atoms: C13_16  and  N2_17 
REMARK    8  A    between atoms: N2_17  and  C14_18 
ROOT
HETATM    1  C11 UNL     1      22.566   3.644  51.097  1.00  0.00     0.025 A 
HETATM    2  C12 UNL     1      23.816   4.373  50.994  1.00  0.00     0.066 A 
HETATM    3  C13 UNL     1      23.843   5.688  51.098  1.00  0.00     0.122 A 
HETATM    4  N3  UNL     1      22.659   6.444  51.312  1.00  0.00    -0.262 N 
HETATM    5  N4  UNL     1      21.453   5.750  51.411  1.00  0.00    -0.177 NA
HETATM    6  C20 UNL     1      21.402   4.465  51.313  1.00  0.00     0.063 A 
HETATM    7  C21 UNL     1      20.067   3.850  51.439  1.00  0.00     0.073 C 
HETATM    8  H25 UNL     1      22.614   7.478  51.401  1.00  0.00     0.191 HD
ENDROOT
BRANCH   1   9
HETATM    9  C2  UNL     1      22.642   2.338  50.993  1.00  0.00     0.081 C 
BRANCH   9  10
HETATM   10  O1  UNL     1      22.404   1.727  49.792  1.00  0.00    -0.357 OA
HETATM   11  C1  UNL     1      21.319   0.947  49.427  1.00  0.00     0.209 C 
ENDBRANCH   9  10
BRANCH   9  12
HETATM   12  C3  UNL     1      22.920   1.157  51.819  1.00  0.00     0.233 C 
BRANCH  12  13
HETATM   13  O2  UNL     1      24.286   0.955  51.998  1.00  0.00    -0.384 OA
BRANCH  13  14
HETATM   14  C4  UNL     1      24.497   0.412  53.243  1.00  0.00     0.172 C 
BRANCH  14  15
HETATM   15  C5  UNL     1      25.952   0.169  53.575  1.00  0.00     0.013 C 
HETATM   16  C6  UNL     1      26.495  -0.688  52.421  1.00  0.00     0.037 C 
HETATM   17  C7  UNL     1      27.796  -1.266  52.945  1.00  0.00     0.272 C 
HETATM   18  N1  UNL     1      28.438  -0.351  53.863  1.00  0.00     0.084 N 
HETATM   19  C8  UNL     1      29.870  -0.617  53.759  1.00  0.00     0.309 C 
HETATM   20  C9  UNL     1      28.218   1.032  53.561  1.00  0.00     0.272 C 
HETATM   21  C10 UNL     1      26.758   1.405  53.764  1.00  0.00     0.037 C 
ENDBRANCH  14  15
ENDBRANCH  13  14
ENDBRANCH  12  13
ENDBRANCH   9  12
ENDBRANCH   1   9
BRANCH   3  22
HETATM   22  N2  UNL     1      25.010   6.503  51.013  1.00  0.00    -0.339 N 
HETATM   23  H21 UNL     1      25.331   6.700  51.991  1.00  0.00     0.167 HD
BRANCH  22  24
HETATM   24  C14 UNL     1      25.617   6.957  49.835  1.00  0.00     0.072 A 
HETATM   25  C15 UNL     1      26.557   6.187  49.229  1.00  0.00     0.034 A 
HETATM   26  C16 UNL     1      27.149   6.650  48.062  1.00  0.00     0.021 A 
HETATM   27  C17 UNL     1      26.788   7.886  47.515  1.00  0.00     0.014 A 
HETATM   28 BR1  UNL     1      27.606   8.510  45.914  1.00  0.00    -0.051 Br
HETATM   29  C18 UNL     1      25.815   8.636  48.177  1.00  0.00     0.063 A 
HETATM   30  C19 UNL     1      25.216   8.174  49.354  1.00  0.00     0.144 A 
HETATM   31  F1  UNL     1      24.278   8.952  49.949  1.00  0.00    -0.204 F 
ENDBRANCH  22  24
ENDBRANCH   3  22
TORSDOF 8
ENDMDL
