MODEL 1
REMARK VINA RESULT:      -7.8      0.000      0.000
REMARK  7 active torsions:
REMARK  status: ('A' for Active; 'I' for Inactive)
REMARK    1  A    between atoms: O1_2  and  C2_3 
REMARK    2  A    between atoms: C7_11  and  N3_12 
REMARK    3  A    between atoms: N3_12  and  C8_13 
REMARK    4  A    between atoms: C10_15  and  O2_16 
REMARK    5  A    between atoms: C12_18  and  O3_19 
REMARK    6  A    between atoms: C14_21  and  O4_22 
REMARK    7  A    between atoms: C19_27  and  O5_28 
ROOT
HETATM    1  C2  UNL     1      22.382  -0.073  53.795  1.00  0.00     0.079 C 
HETATM    2  C3  UNL     1      23.410   0.438  53.148  1.00  0.00     0.053 C 
HETATM    3  C4  UNL     1      24.822   0.220  53.279  1.00  0.00     0.041 A 
HETATM    4  C5  UNL     1      25.412  -0.423  54.343  1.00  0.00     0.074 A 
HETATM    5  N1  UNL     1      26.754  -0.592  54.414  1.00  0.00    -0.218 NA
HETATM    6  C6  UNL     1      27.475  -0.104  53.397  1.00  0.00     0.225 A 
HETATM    7 CL1  UNL     1      29.234  -0.248  53.347  1.00  0.00    -0.041 Cl
HETATM    8  N2  UNL     1      26.868   0.506  52.394  1.00  0.00    -0.200 NA
HETATM    9  C7  UNL     1      25.555   0.717  52.246  1.00  0.00     0.144 A 
HETATM   10  C17 UNL     1      24.821  -1.028  55.538  1.00  0.00     0.031 C 
HETATM   11  C18 UNL     1      23.515  -1.248  55.670  1.00  0.00     0.013 C 
HETATM   12  C19 UNL     1      22.289  -1.051  54.891  1.00  0.00     0.197 C 
ENDROOT
BRANCH   9  13
HETATM   13  N3  UNL     1      24.976   1.359  51.124  1.00  0.00    -0.340 N 
HETATM   14  H5  UNL     1      24.463   0.928  50.340  1.00  0.00     0.167 HD
BRANCH  13  15
HETATM   15  C8  UNL     1      24.978   2.747  50.816  1.00  0.00     0.039 A 
HETATM   16  C9  UNL     1      24.172   3.720  51.374  1.00  0.00     0.069 A 
HETATM   17  C10 UNL     1      24.223   5.049  51.033  1.00  0.00     0.106 A 
HETATM   18  C12 UNL     1      25.112   5.495  50.086  1.00  0.00     0.135 A 
HETATM   19  C14 UNL     1      25.953   4.547  49.493  1.00  0.00     0.106 A 
HETATM   20  C16 UNL     1      25.859   3.213  49.875  1.00  0.00     0.069 A 
BRANCH  17  21
HETATM   21  O2  UNL     1      23.345   5.911  51.683  1.00  0.00    -0.353 OA
HETATM   22  C11 UNL     1      22.040   6.161  51.145  1.00  0.00     0.210 C 
ENDBRANCH  17  21
BRANCH  18  23
HETATM   23  O3  UNL     1      25.073   6.851  49.826  1.00  0.00    -0.351 OA
HETATM   24  C13 UNL     1      25.975   7.807  50.285  1.00  0.00     0.210 C 
ENDBRANCH  18  23
BRANCH  19  25
HETATM   25  O4  UNL     1      26.806   5.089  48.560  1.00  0.00    -0.353 OA
HETATM   26  C15 UNL     1      28.198   5.069  48.576  1.00  0.00     0.210 C 
ENDBRANCH  19  25
ENDBRANCH  13  15
ENDBRANCH   9  13
BRANCH   1  27
HETATM   27  O1  UNL     1      21.099   0.367  53.402  1.00  0.00    -0.357 OA
HETATM   28  C1  UNL     1      20.944   0.390  51.970  1.00  0.00     0.209 C 
ENDBRANCH   1  27
BRANCH  12  29
HETATM   29  O5  UNL     1      21.683  -2.242  54.474  1.00  0.00    -0.385 OA
HETATM   30  H20 UNL     1      21.365  -2.095  53.553  1.00  0.00     0.210 HD
ENDBRANCH  12  29
TORSDOF 7
ENDMDL
MODEL 2
REMARK VINA RESULT:      -7.8      2.996      4.781
REMARK  7 active torsions:
REMARK  status: ('A' for Active; 'I' for Inactive)
REMARK    1  A    between atoms: O1_2  and  C2_3 
REMARK    2  A    between atoms: C7_11  and  N3_12 
REMARK    3  A    between atoms: N3_12  and  C8_13 
REMARK    4  A    between atoms: C10_15  and  O2_16 
REMARK    5  A    between atoms: C12_18  and  O3_19 
REMARK    6  A    between atoms: C14_21  and  O4_22 
REMARK    7  A    between atoms: C19_27  and  O5_28 
ROOT
HETATM    1  C2  UNL     1      26.750   1.947  52.249  1.00  0.00     0.079 C 
HETATM    2  C3  UNL     1      25.524   1.596  51.917  1.00  0.00     0.053 C 
HETATM    3  C4  UNL     1      24.543   0.802  52.597  1.00  0.00     0.041 A 
HETATM    4  C5  UNL     1      24.811   0.002  53.685  1.00  0.00     0.074 A 
HETATM    5  N1  UNL     1      23.842  -0.732  54.282  1.00  0.00    -0.218 NA
HETATM    6  C6  UNL     1      22.612  -0.640  53.761  1.00  0.00     0.225 A 
HETATM    7 CL1  UNL     1      21.247  -1.536  54.430  1.00  0.00    -0.041 Cl
HETATM    8  N2  UNL     1      22.398   0.141  52.717  1.00  0.00    -0.200 NA
HETATM    9  C7  UNL     1      23.293   0.895  52.068  1.00  0.00     0.144 A 
HETATM   10  C17 UNL     1      26.063  -0.238  54.406  1.00  0.00     0.031 C 
HETATM   11  C18 UNL     1      27.154   0.503  54.232  1.00  0.00     0.013 C 
HETATM   12  C19 UNL     1      27.576   1.656  53.432  1.00  0.00     0.197 C 
ENDROOT
BRANCH   9  13
HETATM   13  N3  UNL     1      22.979   1.729  50.968  1.00  0.00    -0.340 N 
HETATM   14  H5  UNL     1      22.977   1.486  49.966  1.00  0.00     0.167 HD
BRANCH  13  15
HETATM   15  C8  UNL     1      22.602   3.101  50.992  1.00  0.00     0.039 A 
HETATM   16  C9  UNL     1      23.420   4.181  51.257  1.00  0.00     0.069 A 
HETATM   17  C10 UNL     1      22.995   5.486  51.265  1.00  0.00     0.106 A 
HETATM   18  C12 UNL     1      21.683   5.795  50.997  1.00  0.00     0.135 A 
HETATM   19  C14 UNL     1      20.813   4.735  50.720  1.00  0.00     0.106 A 
HETATM   20  C16 UNL     1      21.297   3.431  50.727  1.00  0.00     0.069 A 
BRANCH  17  21
HETATM   21  O2  UNL     1      23.939   6.467  51.550  1.00  0.00    -0.353 OA
HETATM   22  C11 UNL     1      24.916   6.842  50.570  1.00  0.00     0.210 C 
ENDBRANCH  17  21
BRANCH  18  23
HETATM   23  O3  UNL     1      21.370   7.140  51.033  1.00  0.00    -0.351 OA
HETATM   24  C13 UNL     1      21.351   8.012  49.949  1.00  0.00     0.210 C 
ENDBRANCH  18  23
BRANCH  19  25
HETATM   25  O4  UNL     1      19.525   5.144  50.466  1.00  0.00    -0.353 OA
HETATM   26  C15 UNL     1      18.906   5.263  49.225  1.00  0.00     0.210 C 
ENDBRANCH  19  25
ENDBRANCH  13  15
ENDBRANCH   9  13
BRANCH   1  27
HETATM   27  O1  UNL     1      27.453   2.756  51.329  1.00  0.00    -0.357 OA
HETATM   28  C1  UNL     1      26.610   3.226  50.260  1.00  0.00     0.209 C 
ENDBRANCH   1  27
BRANCH  12  29
HETATM   29  O5  UNL     1      27.828   2.809  54.184  1.00  0.00    -0.385 OA
HETATM   30  H20 UNL     1      27.092   2.894  54.835  1.00  0.00     0.210 HD
ENDBRANCH  12  29
TORSDOF 7
ENDMDL
MODEL 3
REMARK VINA RESULT:      -7.8      2.977      4.440
REMARK  7 active torsions:
REMARK  status: ('A' for Active; 'I' for Inactive)
REMARK    1  A    between atoms: O1_2  and  C2_3 
REMARK    2  A    between atoms: C7_11  and  N3_12 
REMARK    3  A    between atoms: N3_12  and  C8_13 
REMARK    4  A    between atoms: C10_15  and  O2_16 
REMARK    5  A    between atoms: C12_18  and  O3_19 
REMARK    6  A    between atoms: C14_21  and  O4_22 
REMARK    7  A    between atoms: C19_27  and  O5_28 
ROOT
HETATM    1  C2  UNL     1      26.775   1.940  52.296  1.00  0.00     0.079 C 
HETATM    2  C3  UNL     1      25.555   1.555  51.981  1.00  0.00     0.053 C 
HETATM    3  C4  UNL     1      24.600   0.747  52.683  1.00  0.00     0.041 A 
HETATM    4  C5  UNL     1      24.897  -0.029  53.779  1.00  0.00     0.074 A 
HETATM    5  N1  UNL     1      23.952  -0.778  54.397  1.00  0.00    -0.218 NA
HETATM    6  C6  UNL     1      22.716  -0.723  53.887  1.00  0.00     0.225 A 
HETATM    7 CL1  UNL     1      21.379  -1.642  54.583  1.00  0.00    -0.041 Cl
HETATM    8  N2  UNL     1      22.473   0.036  52.833  1.00  0.00    -0.200 NA
HETATM    9  C7  UNL     1      23.343   0.802  52.165  1.00  0.00     0.144 A 
HETATM   10  C17 UNL     1      26.161  -0.228  54.492  1.00  0.00     0.031 C 
HETATM   11  C18 UNL     1      27.233   0.537  54.297  1.00  0.00     0.013 C 
HETATM   12  C19 UNL     1      27.619   1.688  53.475  1.00  0.00     0.197 C 
ENDROOT
BRANCH   9  13
HETATM   13  N3  UNL     1      22.998   1.611  51.055  1.00  0.00    -0.340 N 
HETATM   14  H5  UNL     1      23.050   1.372  50.053  1.00  0.00     0.167 HD
BRANCH  13  15
HETATM   15  C8  UNL     1      22.509   2.947  51.067  1.00  0.00     0.039 A 
HETATM   16  C9  UNL     1      21.206   3.354  50.860  1.00  0.00     0.069 A 
HETATM   17  C10 UNL     1      20.796   4.664  50.885  1.00  0.00     0.106 A 
HETATM   18  C12 UNL     1      21.694   5.673  51.129  1.00  0.00     0.135 A 
HETATM   19  C14 UNL     1      23.028   5.312  51.348  1.00  0.00     0.106 A 
HETATM   20  C16 UNL     1      23.390   3.970  51.310  1.00  0.00     0.069 A 
BRANCH  17  21
HETATM   21  O2  UNL     1      19.446   4.917  50.657  1.00  0.00    -0.353 OA
HETATM   22  C11 UNL     1      18.454   3.947  51.017  1.00  0.00     0.210 C 
ENDBRANCH  17  21
BRANCH  18  23
HETATM   23  O3  UNL     1      21.168   6.950  51.130  1.00  0.00    -0.351 OA
HETATM   24  C13 UNL     1      21.156   7.840  50.059  1.00  0.00     0.210 C 
ENDBRANCH  18  23
BRANCH  19  25
HETATM   25  O4  UNL     1      23.849   6.390  51.583  1.00  0.00    -0.353 OA
HETATM   26  C15 UNL     1      24.821   6.913  50.734  1.00  0.00     0.210 C 
ENDBRANCH  19  25
ENDBRANCH  13  15
ENDBRANCH   9  13
BRANCH   1  27
HETATM   27  O1  UNL     1      27.449   2.752  51.357  1.00  0.00    -0.357 OA
HETATM   28  C1  UNL     1      26.599   3.143  50.262  1.00  0.00     0.209 C 
ENDBRANCH   1  27
BRANCH  12  29
HETATM   29  O5  UNL     1      27.850   2.858  54.207  1.00  0.00    -0.385 OA
HETATM   30  H20 UNL     1      27.002   3.360  54.221  1.00  0.00     0.210 HD
ENDBRANCH  12  29
TORSDOF 7
ENDMDL
MODEL 4
REMARK VINA RESULT:      -7.6      3.247      5.980
REMARK  7 active torsions:
REMARK  status: ('A' for Active; 'I' for Inactive)
REMARK    1  A    between atoms: O1_2  and  C2_3 
REMARK    2  A    between atoms: C7_11  and  N3_12 
REMARK    3  A    between atoms: N3_12  and  C8_13 
REMARK    4  A    between atoms: C10_15  and  O2_16 
REMARK    5  A    between atoms: C12_18  and  O3_19 
REMARK    6  A    between atoms: C14_21  and  O4_22 
REMARK    7  A    between atoms: C19_27  and  O5_28 
ROOT
HETATM    1  C2  UNL     1      26.506   0.071  54.631  1.00  0.00     0.079 C 
HETATM    2  C3  UNL     1      25.601   0.578  53.819  1.00  0.00     0.053 C 
HETATM    3  C4  UNL     1      25.720   1.445  52.683  1.00  0.00     0.041 A 
HETATM    4  C5  UNL     1      26.857   2.150  52.361  1.00  0.00     0.074 A 
HETATM    5  N1  UNL     1      26.906   2.960  51.276  1.00  0.00    -0.218 NA
HETATM    6  C6  UNL     1      25.795   3.039  50.535  1.00  0.00     0.225 A 
HETATM    7 CL1  UNL     1      25.706   4.052  49.092  1.00  0.00    -0.041 Cl
HETATM    8  N2  UNL     1      24.725   2.344  50.879  1.00  0.00    -0.200 NA
HETATM    9  C7  UNL     1      24.590   1.525  51.929  1.00  0.00     0.144 A 
HETATM   10  C17 UNL     1      28.163   2.206  53.020  1.00  0.00     0.031 C 
HETATM   11  C18 UNL     1      28.532   1.352  53.973  1.00  0.00     0.013 C 
HETATM   12  C19 UNL     1      27.971   0.201  54.686  1.00  0.00     0.197 C 
ENDROOT
BRANCH   9  13
HETATM   13  N3  UNL     1      23.414   0.792  52.217  1.00  0.00    -0.340 N 
HETATM   14  H5  UNL     1      23.338  -0.171  52.580  1.00  0.00     0.167 HD
BRANCH  13  15
HETATM   15  C8  UNL     1      22.064   1.213  52.065  1.00  0.00     0.039 A 
HETATM   16  C9  UNL     1      21.611   2.510  51.925  1.00  0.00     0.069 A 
HETATM   17  C10 UNL     1      20.290   2.853  51.780  1.00  0.00     0.106 A 
HETATM   18  C12 UNL     1      19.315   1.886  51.765  1.00  0.00     0.135 A 
HETATM   19  C14 UNL     1      19.722   0.555  51.902  1.00  0.00     0.106 A 
HETATM   20  C16 UNL     1      21.074   0.263  52.046  1.00  0.00     0.069 A 
BRANCH  17  21
HETATM   21  O2  UNL     1      19.989   4.205  51.650  1.00  0.00    -0.353 OA
HETATM   22  C11 UNL     1      20.254   4.893  50.421  1.00  0.00     0.210 C 
ENDBRANCH  17  21
BRANCH  18  23
HETATM   23  O3  UNL     1      18.021   2.348  51.614  1.00  0.00    -0.351 OA
HETATM   24  C13 UNL     1      17.304   2.419  50.423  1.00  0.00     0.210 C 
ENDBRANCH  18  23
BRANCH  19  25
HETATM   25  O4  UNL     1      18.676  -0.337  51.874  1.00  0.00    -0.353 OA
HETATM   26  C15 UNL     1      18.118  -1.019  52.952  1.00  0.00     0.210 C 
ENDBRANCH  19  25
ENDBRANCH  13  15
ENDBRANCH   9  13
BRANCH   1  27
HETATM   27  O1  UNL     1      26.035  -0.766  55.668  1.00  0.00    -0.357 OA
HETATM   28  C1  UNL     1      24.662  -1.156  55.474  1.00  0.00     0.209 C 
ENDBRANCH   1  27
BRANCH  12  29
HETATM   29  O5  UNL     1      28.611  -1.011  54.401  1.00  0.00    -0.385 OA
HETATM   30  H20 UNL     1      28.980  -1.347  55.251  1.00  0.00     0.210 HD
ENDBRANCH  12  29
TORSDOF 7
ENDMDL
MODEL 5
REMARK VINA RESULT:      -7.5      3.105      7.080
REMARK  7 active torsions:
REMARK  status: ('A' for Active; 'I' for Inactive)
REMARK    1  A    between atoms: O1_2  and  C2_3 
REMARK    2  A    between atoms: C7_11  and  N3_12 
REMARK    3  A    between atoms: N3_12  and  C8_13 
REMARK    4  A    between atoms: C10_15  and  O2_16 
REMARK    5  A    between atoms: C12_18  and  O3_19 
REMARK    6  A    between atoms: C14_21  and  O4_22 
REMARK    7  A    between atoms: C19_27  and  O5_28 
ROOT
HETATM    1  C2  UNL     1      23.909   6.122  50.083  1.00  0.00     0.079 C 
HETATM    2  C3  UNL     1      24.801   5.232  49.698  1.00  0.00     0.053 C 
HETATM    3  C4  UNL     1      26.146   5.376  49.220  1.00  0.00     0.041 A 
HETATM    4  C5  UNL     1      26.702   6.568  48.817  1.00  0.00     0.074 A 
HETATM    5  N1  UNL     1      27.978   6.640  48.368  1.00  0.00    -0.218 NA
HETATM    6  C6  UNL     1      28.669   5.495  48.337  1.00  0.00     0.225 A 
HETATM    7 CL1  UNL     1      30.341   5.429  47.777  1.00  0.00    -0.041 Cl
HETATM    8  N2  UNL     1      28.096   4.372  48.734  1.00  0.00    -0.200 NA
HETATM    9  C7  UNL     1      26.848   4.211  49.188  1.00  0.00     0.144 A 
HETATM   10  C17 UNL     1      26.136   7.918  48.774  1.00  0.00     0.031 C 
HETATM   11  C18 UNL     1      24.989   8.243  49.366  1.00  0.00     0.013 C 
HETATM   12  C19 UNL     1      23.949   7.591  50.166  1.00  0.00     0.197 C 
ENDROOT
BRANCH   9  13
HETATM   13  N3  UNL     1      26.314   2.973  49.621  1.00  0.00    -0.340 N 
HETATM   14  H5  UNL     1      25.902   2.223  49.046  1.00  0.00     0.167 HD
BRANCH  13  15
HETATM   15  C8  UNL     1      26.215   2.484  50.953  1.00  0.00     0.039 A 
HETATM   16  C9  UNL     1      25.132   1.842  51.521  1.00  0.00     0.069 A 
HETATM   17  C10 UNL     1      25.098   1.391  52.818  1.00  0.00     0.106 A 
HETATM   18  C12 UNL     1      26.181   1.561  53.645  1.00  0.00     0.135 A 
HETATM   19  C14 UNL     1      27.304   2.205  53.116  1.00  0.00     0.106 A 
HETATM   20  C16 UNL     1      27.285   2.643  51.796  1.00  0.00     0.069 A 
BRANCH  17  21
HETATM   21  O2  UNL     1      23.934   0.762  53.247  1.00  0.00    -0.353 OA
HETATM   22  C11 UNL     1      22.653   1.207  52.781  1.00  0.00     0.210 C 
ENDBRANCH  17  21
BRANCH  18  23
HETATM   23  O3  UNL     1      26.032   1.068  54.927  1.00  0.00    -0.351 OA
HETATM   24  C13 UNL     1      26.238  -0.247  55.335  1.00  0.00     0.210 C 
ENDBRANCH  18  23
BRANCH  19  25
HETATM   25  O4  UNL     1      28.334   2.327  54.020  1.00  0.00    -0.353 OA
HETATM   26  C15 UNL     1      29.369   1.426  54.248  1.00  0.00     0.210 C 
ENDBRANCH  19  25
ENDBRANCH  13  15
ENDBRANCH   9  13
BRANCH   1  27
HETATM   27  O1  UNL     1      22.656   5.626  50.507  1.00  0.00    -0.357 OA
HETATM   28  C1  UNL     1      22.770   4.763  51.655  1.00  0.00     0.209 C 
ENDBRANCH   1  27
BRANCH  12  29
HETATM   29  O5  UNL     1      23.887   8.037  51.491  1.00  0.00    -0.385 OA
HETATM   30  H20 UNL     1      22.980   7.838  51.820  1.00  0.00     0.210 HD
ENDBRANCH  12  29
TORSDOF 7
ENDMDL
MODEL 6
REMARK VINA RESULT:      -7.5      0.294      2.407
REMARK  7 active torsions:
REMARK  status: ('A' for Active; 'I' for Inactive)
REMARK    1  A    between atoms: O1_2  and  C2_3 
REMARK    2  A    between atoms: C7_11  and  N3_12 
REMARK    3  A    between atoms: N3_12  and  C8_13 
REMARK    4  A    between atoms: C10_15  and  O2_16 
REMARK    5  A    between atoms: C12_18  and  O3_19 
REMARK    6  A    between atoms: C14_21  and  O4_22 
REMARK    7  A    between atoms: C19_27  and  O5_28 
ROOT
HETATM    1  C2  UNL     1      22.529  -0.168  53.543  1.00  0.00     0.079 C 
HETATM    2  C3  UNL     1      23.579   0.396  52.981  1.00  0.00     0.053 C 
HETATM    3  C4  UNL     1      24.983   0.271  53.244  1.00  0.00     0.041 A 
HETATM    4  C5  UNL     1      25.511  -0.315  54.372  1.00  0.00     0.074 A 
HETATM    5  N1  UNL     1      26.850  -0.398  54.568  1.00  0.00    -0.218 NA
HETATM    6  C6  UNL     1      27.630   0.118  53.611  1.00  0.00     0.225 A 
HETATM    7 CL1  UNL     1      29.390   0.085  53.724  1.00  0.00    -0.041 Cl
HETATM    8  N2  UNL     1      27.080   0.670  52.543  1.00  0.00    -0.200 NA
HETATM    9  C7  UNL     1      25.776   0.795  52.271  1.00  0.00     0.144 A 
HETATM   10  C17 UNL     1      24.852  -0.936  55.522  1.00  0.00     0.031 C 
HETATM   11  C18 UNL     1      23.555  -1.236  55.540  1.00  0.00     0.013 C 
HETATM   12  C19 UNL     1      22.397  -1.131  54.648  1.00  0.00     0.197 C 
ENDROOT
BRANCH   9  13
HETATM   13  N3  UNL     1      25.265   1.380  51.087  1.00  0.00    -0.340 N 
HETATM   14  H5  UNL     1      24.862   0.903  50.266  1.00  0.00     0.167 HD
BRANCH  13  15
HETATM   15  C8  UNL     1      25.198   2.761  50.754  1.00  0.00     0.039 A 
HETATM   16  C9  UNL     1      25.992   3.434  49.847  1.00  0.00     0.069 A 
HETATM   17  C10 UNL     1      25.877   4.773  49.569  1.00  0.00     0.106 A 
HETATM   18  C12 UNL     1      24.929   5.540  50.202  1.00  0.00     0.135 A 
HETATM   19  C14 UNL     1      24.098   4.903  51.130  1.00  0.00     0.106 A 
HETATM   20  C16 UNL     1      24.258   3.544  51.374  1.00  0.00     0.069 A 
BRANCH  17  21
HETATM   21  O2  UNL     1      26.751   5.310  48.629  1.00  0.00    -0.353 OA
HETATM   22  C11 UNL     1      28.111   4.862  48.563  1.00  0.00     0.210 C 
ENDBRANCH  17  21
BRANCH  18  23
HETATM   23  O3  UNL     1      24.906   6.874  49.843  1.00  0.00    -0.351 OA
HETATM   24  C13 UNL     1      25.574   7.913  50.485  1.00  0.00     0.210 C 
ENDBRANCH  18  23
BRANCH  19  25
HETATM   25  O4  UNL     1      23.183   5.752  51.709  1.00  0.00    -0.353 OA
HETATM   26  C15 UNL     1      21.864   5.967  51.318  1.00  0.00     0.210 C 
ENDBRANCH  19  25
ENDBRANCH  13  15
ENDBRANCH   9  13
BRANCH   1  27
HETATM   27  O1  UNL     1      21.263   0.183  53.025  1.00  0.00    -0.357 OA
HETATM   28  C1  UNL     1      21.293   0.385  51.599  1.00  0.00     0.209 C 
ENDBRANCH   1  27
BRANCH  12  29
HETATM   29  O5  UNL     1      21.906  -2.365  54.206  1.00  0.00    -0.385 OA
HETATM   30  H20 UNL     1      22.547  -3.052  54.501  1.00  0.00     0.210 HD
ENDBRANCH  12  29
TORSDOF 7
ENDMDL
MODEL 7
REMARK VINA RESULT:      -7.4      2.513      4.316
REMARK  7 active torsions:
REMARK  status: ('A' for Active; 'I' for Inactive)
REMARK    1  A    between atoms: O1_2  and  C2_3 
REMARK    2  A    between atoms: C7_11  and  N3_12 
REMARK    3  A    between atoms: N3_12  and  C8_13 
REMARK    4  A    between atoms: C10_15  and  O2_16 
REMARK    5  A    between atoms: C12_18  and  O3_19 
REMARK    6  A    between atoms: C14_21  and  O4_22 
REMARK    7  A    between atoms: C19_27  and  O5_28 
ROOT
HETATM    1  C2  UNL     1      22.693   2.326  50.222  1.00  0.00     0.079 C 
HETATM    2  C3  UNL     1      23.947   2.730  50.231  1.00  0.00     0.053 C 
HETATM    3  C4  UNL     1      25.020   2.484  51.150  1.00  0.00     0.041 A 
HETATM    4  C5  UNL     1      24.857   1.945  52.406  1.00  0.00     0.074 A 
HETATM    5  N1  UNL     1      25.911   1.742  53.233  1.00  0.00    -0.218 NA
HETATM    6  C6  UNL     1      27.116   2.092  52.767  1.00  0.00     0.225 A 
HETATM    7 CL1  UNL     1      28.582   1.888  53.727  1.00  0.00    -0.041 Cl
HETATM    8  N2  UNL     1      27.227   2.605  51.554  1.00  0.00    -0.200 NA
HETATM    9  C7  UNL     1      26.245   2.840  50.677  1.00  0.00     0.144 A 
HETATM   10  C17 UNL     1      23.650   1.495  53.101  1.00  0.00     0.031 C 
HETATM   11  C18 UNL     1      22.478   1.332  52.490  1.00  0.00     0.013 C 
HETATM   12  C19 UNL     1      21.919   1.480  51.143  1.00  0.00     0.197 C 
ENDROOT
BRANCH   9  13
HETATM   13  N3  UNL     1      26.449   3.371  49.380  1.00  0.00    -0.340 N 
HETATM   14  H5  UNL     1      26.289   2.910  48.472  1.00  0.00     0.167 HD
BRANCH  13  15
HETATM   15  C8  UNL     1      26.931   4.663  49.033  1.00  0.00     0.039 A 
HETATM   16  C9  UNL     1      28.168   4.970  48.500  1.00  0.00     0.069 A 
HETATM   17  C10 UNL     1      28.575   6.243  48.185  1.00  0.00     0.106 A 
HETATM   18  C12 UNL     1      27.741   7.315  48.389  1.00  0.00     0.135 A 
HETATM   19  C14 UNL     1      26.476   7.056  48.926  1.00  0.00     0.106 A 
HETATM   20  C16 UNL     1      26.114   5.747  49.228  1.00  0.00     0.069 A 
BRANCH  17  21
HETATM   21  O2  UNL     1      29.853   6.394  47.655  1.00  0.00    -0.353 OA
HETATM   22  C11 UNL     1      31.008   6.052  48.433  1.00  0.00     0.210 C 
ENDBRANCH  17  21
BRANCH  18  23
HETATM   23  O3  UNL     1      28.258   8.546  48.035  1.00  0.00    -0.351 OA
HETATM   24  C13 UNL     1      28.865   9.463  48.889  1.00  0.00     0.210 C 
ENDBRANCH  18  23
BRANCH  19  25
HETATM   25  O4  UNL     1      25.716   8.190  49.093  1.00  0.00    -0.353 OA
HETATM   26  C15 UNL     1      24.861   8.486  50.151  1.00  0.00     0.210 C 
ENDBRANCH  19  25
ENDBRANCH  13  15
ENDBRANCH   9  13
BRANCH   1  27
HETATM   27  O1  UNL     1      21.891   2.760  49.142  1.00  0.00    -0.357 OA
HETATM   28  C1  UNL     1      22.563   3.733  48.320  1.00  0.00     0.209 C 
ENDBRANCH   1  27
BRANCH  12  29
HETATM   29  O5  UNL     1      21.545   0.270  50.547  1.00  0.00    -0.385 OA
HETATM   30  H20 UNL     1      20.667   0.417  50.125  1.00  0.00     0.210 HD
ENDBRANCH  12  29
TORSDOF 7
ENDMDL
MODEL 8
REMARK VINA RESULT:      -7.4      2.885      3.820
REMARK  7 active torsions:
REMARK  status: ('A' for Active; 'I' for Inactive)
REMARK    1  A    between atoms: O1_2  and  C2_3 
REMARK    2  A    between atoms: C7_11  and  N3_12 
REMARK    3  A    between atoms: N3_12  and  C8_13 
REMARK    4  A    between atoms: C10_15  and  O2_16 
REMARK    5  A    between atoms: C12_18  and  O3_19 
REMARK    6  A    between atoms: C14_21  and  O4_22 
REMARK    7  A    between atoms: C19_27  and  O5_28 
ROOT
HETATM    1  C2  UNL     1      25.801  -0.148  52.995  1.00  0.00     0.079 C 
HETATM    2  C3  UNL     1      25.332   0.744  52.146  1.00  0.00     0.053 C 
HETATM    3  C4  UNL     1      24.071   1.423  52.078  1.00  0.00     0.041 A 
HETATM    4  C5  UNL     1      22.954   1.058  52.795  1.00  0.00     0.074 A 
HETATM    5  N1  UNL     1      21.786   1.736  52.683  1.00  0.00    -0.218 NA
HETATM    6  C6  UNL     1      21.775   2.776  51.841  1.00  0.00     0.225 A 
HETATM    7 CL1  UNL     1      20.328   3.756  51.589  1.00  0.00    -0.041 Cl
HETATM    8  N2  UNL     1      22.870   3.093  51.173  1.00  0.00    -0.200 NA
HETATM    9  C7  UNL     1      24.059   2.480  51.222  1.00  0.00     0.144 A 
HETATM   10  C17 UNL     1      22.752  -0.026  53.759  1.00  0.00     0.031 C 
HETATM   11  C18 UNL     1      23.754  -0.731  54.278  1.00  0.00     0.013 C 
HETATM   12  C19 UNL     1      25.215  -0.786  54.184  1.00  0.00     0.197 C 
ENDROOT
BRANCH   9  13
HETATM   13  N3  UNL     1      25.197   2.897  50.491  1.00  0.00    -0.340 N 
HETATM   14  H5  UNL     1      25.960   2.314  50.115  1.00  0.00     0.167 HD
BRANCH  13  15
HETATM   15  C8  UNL     1      25.556   4.221  50.115  1.00  0.00     0.039 A 
HETATM   16  C9  UNL     1      24.946   5.392  50.521  1.00  0.00     0.069 A 
HETATM   17  C10 UNL     1      25.341   6.644  50.121  1.00  0.00     0.106 A 
HETATM   18  C12 UNL     1      26.404   6.802  49.265  1.00  0.00     0.135 A 
HETATM   19  C14 UNL     1      27.057   5.646  48.827  1.00  0.00     0.106 A 
HETATM   20  C16 UNL     1      26.615   4.402  49.262  1.00  0.00     0.069 A 
BRANCH  17  21
HETATM   21  O2  UNL     1      24.625   7.731  50.616  1.00  0.00    -0.353 OA
HETATM   22  C11 UNL     1      23.193   7.738  50.570  1.00  0.00     0.210 C 
ENDBRANCH  17  21
BRANCH  18  23
HETATM   23  O3  UNL     1      26.710   8.107  48.932  1.00  0.00    -0.351 OA
HETATM   24  C13 UNL     1      27.656   8.918  49.553  1.00  0.00     0.210 C 
ENDBRANCH  18  23
BRANCH  19  25
HETATM   25  O4  UNL     1      28.106   5.907  47.976  1.00  0.00    -0.353 OA
HETATM   26  C15 UNL     1      29.453   5.623  48.184  1.00  0.00     0.210 C 
ENDBRANCH  19  25
ENDBRANCH  13  15
ENDBRANCH   9  13
BRANCH   1  27
HETATM   27  O1  UNL     1      27.114  -0.618  52.766  1.00  0.00    -0.357 OA
HETATM   28  C1  UNL     1      27.146  -2.025  52.464  1.00  0.00     0.209 C 
ENDBRANCH   1  27
BRANCH  12  29
HETATM   29  O5  UNL     1      25.875  -0.402  55.357  1.00  0.00    -0.385 OA
HETATM   30  H20 UNL     1      25.580  -1.018  56.068  1.00  0.00     0.210 HD
ENDBRANCH  12  29
TORSDOF 7
ENDMDL
MODEL 9
REMARK VINA RESULT:      -7.2      3.106      4.910
REMARK  7 active torsions:
REMARK  status: ('A' for Active; 'I' for Inactive)
REMARK    1  A    between atoms: O1_2  and  C2_3 
REMARK    2  A    between atoms: C7_11  and  N3_12 
REMARK    3  A    between atoms: N3_12  and  C8_13 
REMARK    4  A    between atoms: C10_15  and  O2_16 
REMARK    5  A    between atoms: C12_18  and  O3_19 
REMARK    6  A    between atoms: C14_21  and  O4_22 
REMARK    7  A    between atoms: C19_27  and  O5_28 
ROOT
HETATM    1  C2  UNL     1      27.128   0.799  53.025  1.00  0.00     0.079 C 
HETATM    2  C3  UNL     1      26.690   1.386  51.930  1.00  0.00     0.053 C 
HETATM    3  C4  UNL     1      25.363   1.680  51.473  1.00  0.00     0.041 A 
HETATM    4  C5  UNL     1      24.218   1.145  52.018  1.00  0.00     0.074 A 
HETATM    5  N1  UNL     1      22.990   1.456  51.538  1.00  0.00    -0.218 NA
HETATM    6  C6  UNL     1      22.948   2.309  50.507  1.00  0.00     0.225 A 
HETATM    7 CL1  UNL     1      21.423   2.810  49.773  1.00  0.00    -0.041 Cl
HETATM    8  N2  UNL     1      24.071   2.800  50.014  1.00  0.00    -0.200 NA
HETATM    9  C7  UNL     1      25.319   2.547  50.425  1.00  0.00     0.144 A 
HETATM   10  C17 UNL     1      24.039   0.213  53.134  1.00  0.00     0.031 C 
HETATM   11  C18 UNL     1      25.018  -0.105  53.978  1.00  0.00     0.013 C 
HETATM   12  C19 UNL     1      26.431   0.222  54.186  1.00  0.00     0.197 C 
ENDROOT
BRANCH   9  13
HETATM   13  N3  UNL     1      26.476   3.135  49.859  1.00  0.00    -0.340 N 
HETATM   14  H5  UNL     1      27.387   2.690  49.669  1.00  0.00     0.167 HD
BRANCH  13  15
HETATM   15  C8  UNL     1      26.650   4.480  49.429  1.00  0.00     0.039 A 
HETATM   16  C9  UNL     1      27.676   4.974  48.648  1.00  0.00     0.069 A 
HETATM   17  C10 UNL     1      27.788   6.287  48.265  1.00  0.00     0.106 A 
HETATM   18  C12 UNL     1      26.848   7.211  48.653  1.00  0.00     0.135 A 
HETATM   19  C14 UNL     1      25.787   6.759  49.445  1.00  0.00     0.106 A 
HETATM   20  C16 UNL     1      25.723   5.418  49.804  1.00  0.00     0.069 A 
BRANCH  17  21
HETATM   21  O2  UNL     1      28.881   6.634  47.476  1.00  0.00    -0.353 OA
HETATM   22  C11 UNL     1      30.214   6.332  47.908  1.00  0.00     0.210 C 
ENDBRANCH  17  21
BRANCH  18  23
HETATM   23  O3  UNL     1      27.064   8.501  48.209  1.00  0.00    -0.351 OA
HETATM   24  C13 UNL     1      27.718   9.515  48.904  1.00  0.00     0.210 C 
ENDBRANCH  18  23
BRANCH  19  25
HETATM   25  O4  UNL     1      24.900   7.756  49.781  1.00  0.00    -0.353 OA
HETATM   26  C15 UNL     1      24.025   7.778  50.863  1.00  0.00     0.210 C 
ENDBRANCH  19  25
ENDBRANCH  13  15
ENDBRANCH   9  13
BRANCH   1  27
HETATM   27  O1  UNL     1      28.528   0.671  53.163  1.00  0.00    -0.357 OA
HETATM   28  C1  UNL     1      28.930  -0.688  53.422  1.00  0.00     0.209 C 
ENDBRANCH   1  27
BRANCH  12  29
HETATM   29  O5  UNL     1      26.680   0.950  55.355  1.00  0.00    -0.385 OA
HETATM   30  H20 UNL     1      26.268   0.450  56.098  1.00  0.00     0.210 HD
ENDBRANCH  12  29
TORSDOF 7
ENDMDL
