MODEL 1
REMARK VINA RESULT:      -8.4      0.000      0.000
REMARK  8 active torsions:
REMARK  status: ('A' for Active; 'I' for Inactive)
REMARK    1  A    between atoms: O1_2  and  C2_3 
REMARK    2  A    between atoms: C6_9  and  N3_10 
REMARK    3  A    between atoms: N3_10  and  C7_11 
REMARK    4  A    between atoms: C15_21  and  O2_22 
REMARK    5  A    between atoms: O2_22  and  C16_23 
REMARK    6  A    between atoms: C16_23  and  C17_24 
REMARK    7  A    between atoms: C17_24  and  C18_25 
REMARK    8  A    between atoms: C18_25  and  N4_26 
ROOT
HETATM    1  C2  UNL     1      19.960  -0.209  52.878  1.00  0.00     0.103 A 
HETATM    2  C3  UNL     1      20.514  -0.788  54.013  1.00  0.00     0.072 A 
HETATM    3  C4  UNL     1      21.885  -0.835  54.250  1.00  0.00     0.075 A 
HETATM    4  N1  UNL     1      22.397  -1.395  55.333  1.00  0.00    -0.241 NA
HETATM    5  C5  UNL     1      23.719  -1.444  55.559  1.00  0.00     0.236 A 
HETATM    6  N2  UNL     1      24.556  -0.891  54.630  1.00  0.00    -0.224 NA
HETATM    7  C6  UNL     1      24.049  -0.322  53.533  1.00  0.00     0.142 A 
HETATM    8  C13 UNL     1      22.694  -0.263  53.284  1.00  0.00     0.042 A 
HETATM    9  C14 UNL     1      22.262   0.335  52.126  1.00  0.00     0.057 A 
HETATM   10  C15 UNL     1      20.894   0.335  51.976  1.00  0.00     0.103 A 
ENDROOT
BRANCH   7  11
HETATM   11  N3  UNL     1      25.071   0.192  52.697  1.00  0.00    -0.340 N 
HETATM   12  H6  UNL     1      24.881   0.765  51.844  1.00  0.00     0.167 HD
BRANCH  11  13
HETATM   13  C7  UNL     1      26.431  -0.083  53.016  1.00  0.00     0.035 A 
HETATM   14  C8  UNL     1      27.035  -1.294  52.788  1.00  0.00     0.032 A 
HETATM   15  C9  UNL     1      28.382  -1.557  53.082  1.00  0.00     0.046 A 
HETATM   16  C10 UNL     1      29.134  -0.534  53.631  1.00  0.00     0.138 A 
HETATM   17  F1  UNL     1      30.456  -0.757  53.938  1.00  0.00    -0.204 F 
HETATM   18  C11 UNL     1      28.584   0.727  53.890  1.00  0.00     0.074 A 
HETATM   19 CL1  UNL     1      29.530   2.022  54.582  1.00  0.00    -0.081 Cl
HETATM   20  C12 UNL     1      27.254   0.873  53.563  1.00  0.00     0.056 A 
ENDBRANCH  11  13
ENDBRANCH   7  11
BRANCH  10  21
HETATM   21  O2  UNL     1      20.244   0.879  50.897  1.00  0.00    -0.348 OA
BRANCH  21  22
HETATM   22  C16 UNL     1      20.129   2.267  50.740  1.00  0.00     0.177 C 
BRANCH  22  23
HETATM   23  C17 UNL     1      21.149   2.719  49.653  1.00  0.00     0.046 C 
BRANCH  23  24
HETATM   24  C18 UNL     1      21.563   4.097  50.114  1.00  0.00     0.119 C 
BRANCH  24  25
HETATM   25  N4  UNL     1      22.877   4.267  50.550  1.00  0.00    -0.408 N 
HETATM   26  C19 UNL     1      23.184   4.732  51.830  1.00  0.00     0.143 C 
HETATM   27  C20 UNL     1      23.720   3.607  52.699  1.00  0.00     0.187 C 
HETATM   28  O3  UNL     1      24.884   3.114  52.184  1.00  0.00    -0.388 OA
HETATM   29  C21 UNL     1      25.064   3.197  50.834  1.00  0.00     0.187 C 
HETATM   30  C22 UNL     1      23.725   3.194  50.121  1.00  0.00     0.143 C 
ENDBRANCH  24  25
ENDBRANCH  23  24
ENDBRANCH  22  23
ENDBRANCH  21  22
ENDBRANCH  10  21
BRANCH   1  31
HETATM   31  O1  UNL     1      18.610  -0.157  52.632  1.00  0.00    -0.353 OA
HETATM   32  C1  UNL     1      17.768  -1.256  52.762  1.00  0.00     0.210 C 
ENDBRANCH   1  31
TORSDOF 8
ENDMDL
MODEL 2
REMARK VINA RESULT:      -7.6      3.772      6.991
REMARK  8 active torsions:
REMARK  status: ('A' for Active; 'I' for Inactive)
REMARK    1  A    between atoms: O1_2  and  C2_3 
REMARK    2  A    between atoms: C6_9  and  N3_10 
REMARK    3  A    between atoms: N3_10  and  C7_11 
REMARK    4  A    between atoms: C15_21  and  O2_22 
REMARK    5  A    between atoms: O2_22  and  C16_23 
REMARK    6  A    between atoms: C16_23  and  C17_24 
REMARK    7  A    between atoms: C17_24  and  C18_25 
REMARK    8  A    between atoms: C18_25  and  N4_26 
ROOT
HETATM    1  C2  UNL     1      21.280   3.247  51.941  1.00  0.00     0.103 A 
HETATM    2  C3  UNL     1      20.681   4.302  51.264  1.00  0.00     0.072 A 
HETATM    3  C4  UNL     1      21.349   5.482  50.951  1.00  0.00     0.075 A 
HETATM    4  N1  UNL     1      20.763   6.478  50.310  1.00  0.00    -0.241 NA
HETATM    5  C5  UNL     1      21.406   7.618  50.013  1.00  0.00     0.236 A 
HETATM    6  N2  UNL     1      22.715   7.741  50.390  1.00  0.00    -0.224 NA
HETATM    7  C6  UNL     1      23.317   6.739  51.036  1.00  0.00     0.142 A 
HETATM    8  C13 UNL     1      22.671   5.562  51.352  1.00  0.00     0.042 A 
HETATM    9  C14 UNL     1      23.367   4.588  52.025  1.00  0.00     0.057 A 
HETATM   10  C15 UNL     1      22.627   3.459  52.292  1.00  0.00     0.103 A 
ENDROOT
BRANCH   7  11
HETATM   11  N3  UNL     1      24.665   7.055  51.339  1.00  0.00    -0.340 N 
HETATM   12  H6  UNL     1      24.983   7.361  52.287  1.00  0.00     0.167 HD
BRANCH  11  13
HETATM   13  C7  UNL     1      25.646   6.964  50.312  1.00  0.00     0.035 A 
HETATM   14  C8  UNL     1      25.869   5.828  49.575  1.00  0.00     0.032 A 
HETATM   15  C9  UNL     1      26.822   5.746  48.547  1.00  0.00     0.046 A 
HETATM   16  C10 UNL     1      27.572   6.875  48.270  1.00  0.00     0.138 A 
HETATM   17  F1  UNL     1      28.520   6.829  47.274  1.00  0.00    -0.204 F 
HETATM   18  C11 UNL     1      27.398   8.067  48.983  1.00  0.00     0.074 A 
HETATM   19 CL1  UNL     1      28.343   9.496  48.637  1.00  0.00    -0.081 Cl
HETATM   20  C12 UNL     1      26.437   8.035  49.969  1.00  0.00     0.056 A 
ENDBRANCH  11  13
ENDBRANCH   7  11
BRANCH  10  21
HETATM   21  O2  UNL     1      23.120   2.362  52.952  1.00  0.00    -0.348 OA
BRANCH  21  22
HETATM   22  C16 UNL     1      24.498   2.178  53.131  1.00  0.00     0.177 C 
BRANCH  22  23
HETATM   23  C17 UNL     1      25.070   1.511  51.844  1.00  0.00     0.046 C 
BRANCH  23  24
HETATM   24  C18 UNL     1      26.518   1.941  51.843  1.00  0.00     0.119 C 
BRANCH  24  25
HETATM   25  N4  UNL     1      27.467   1.024  52.297  1.00  0.00    -0.408 N 
HETATM   26  C19 UNL     1      28.308   1.295  53.377  1.00  0.00     0.143 C 
HETATM   27  C20 UNL     1      27.891   0.495  54.599  1.00  0.00     0.187 C 
HETATM   28  O3  UNL     1      27.999  -0.844  54.358  1.00  0.00    -0.388 OA
HETATM   29  C21 UNL     1      27.848  -1.269  53.071  1.00  0.00     0.187 C 
HETATM   30  C22 UNL     1      26.956  -0.314  52.300  1.00  0.00     0.143 C 
ENDBRANCH  24  25
ENDBRANCH  23  24
ENDBRANCH  22  23
ENDBRANCH  21  22
ENDBRANCH  10  21
BRANCH   1  31
HETATM   31  O1  UNL     1      20.632   2.078  52.257  1.00  0.00    -0.353 OA
HETATM   32  C1  UNL     1      19.619   1.533  51.475  1.00  0.00     0.210 C 
ENDBRANCH   1  31
TORSDOF 8
ENDMDL
MODEL 3
REMARK VINA RESULT:      -7.6      5.508      8.490
REMARK  8 active torsions:
REMARK  status: ('A' for Active; 'I' for Inactive)
REMARK    1  A    between atoms: O1_2  and  C2_3 
REMARK    2  A    between atoms: C6_9  and  N3_10 
REMARK    3  A    between atoms: N3_10  and  C7_11 
REMARK    4  A    between atoms: C15_21  and  O2_22 
REMARK    5  A    between atoms: O2_22  and  C16_23 
REMARK    6  A    between atoms: C16_23  and  C17_24 
REMARK    7  A    between atoms: C17_24  and  C18_25 
REMARK    8  A    between atoms: C18_25  and  N4_26 
ROOT
HETATM    1  C2  UNL     1      26.679   7.218  48.902  1.00  0.00     0.103 A 
HETATM    2  C3  UNL     1      25.585   7.270  49.757  1.00  0.00     0.072 A 
HETATM    3  C4  UNL     1      25.032   6.141  50.354  1.00  0.00     0.075 A 
HETATM    4  N1  UNL     1      23.988   6.209  51.162  1.00  0.00    -0.241 NA
HETATM    5  C5  UNL     1      23.452   5.119  51.733  1.00  0.00     0.236 A 
HETATM    6  N2  UNL     1      24.015   3.902  51.465  1.00  0.00    -0.224 NA
HETATM    7  C6  UNL     1      25.072   3.824  50.651  1.00  0.00     0.142 A 
HETATM    8  C13 UNL     1      25.634   4.932  50.054  1.00  0.00     0.042 A 
HETATM    9  C14 UNL     1      26.716   4.757  49.225  1.00  0.00     0.057 A 
HETATM   10  C15 UNL     1      27.195   5.926  48.680  1.00  0.00     0.103 A 
ENDROOT
BRANCH   7  11
HETATM   11  N3  UNL     1      25.509   2.485  50.499  1.00  0.00    -0.340 N 
HETATM   12  H6  UNL     1      25.449   1.961  49.596  1.00  0.00     0.167 HD
BRANCH  11  13
HETATM   13  C7  UNL     1      26.053   1.801  51.622  1.00  0.00     0.035 A 
HETATM   14  C8  UNL     1      25.525   0.643  52.136  1.00  0.00     0.032 A 
HETATM   15  C9  UNL     1      26.076  -0.043  53.230  1.00  0.00     0.046 A 
HETATM   16  C10 UNL     1      27.213   0.485  53.816  1.00  0.00     0.138 A 
HETATM   17  F1  UNL     1      27.776  -0.157  54.894  1.00  0.00    -0.204 F 
HETATM   18  C11 UNL     1      27.805   1.662  53.345  1.00  0.00     0.074 A 
HETATM   19 CL1  UNL     1      29.241   2.332  54.081  1.00  0.00    -0.081 Cl
HETATM   20  C12 UNL     1      27.181   2.252  52.268  1.00  0.00     0.056 A 
ENDBRANCH  11  13
ENDBRANCH   7  11
BRANCH  10  21
HETATM   21  O2  UNL     1      28.267   5.987  47.827  1.00  0.00    -0.348 OA
BRANCH  21  22
HETATM   22  C16 UNL     1      29.464   5.317  48.113  1.00  0.00     0.177 C 
BRANCH  22  23
HETATM   23  C17 UNL     1      30.644   6.171  47.557  1.00  0.00     0.046 C 
BRANCH  23  24
HETATM   24  C18 UNL     1      31.830   5.688  48.357  1.00  0.00     0.119 C 
BRANCH  24  25
HETATM   25  N4  UNL     1      32.873   5.072  47.665  1.00  0.00    -0.408 N 
HETATM   26  C19 UNL     1      34.179   5.565  47.687  1.00  0.00     0.143 C 
HETATM   27  C20 UNL     1      35.075   4.680  48.536  1.00  0.00     0.187 C 
HETATM   28  O3  UNL     1      35.151   3.424  48.007  1.00  0.00    -0.388 OA
HETATM   29  C21 UNL     1      34.082   2.974  47.288  1.00  0.00     0.187 C 
HETATM   30  C22 UNL     1      32.806   3.644  47.762  1.00  0.00     0.143 C 
ENDBRANCH  24  25
ENDBRANCH  23  24
ENDBRANCH  22  23
ENDBRANCH  21  22
ENDBRANCH  10  21
BRANCH   1  31
HETATM   31  O1  UNL     1      27.234   8.324  48.305  1.00  0.00    -0.353 OA
HETATM   32  C1  UNL     1      28.071   9.210  48.973  1.00  0.00     0.210 C 
ENDBRANCH   1  31
TORSDOF 8
ENDMDL
MODEL 4
REMARK VINA RESULT:      -7.6      2.131      2.578
REMARK  8 active torsions:
REMARK  status: ('A' for Active; 'I' for Inactive)
REMARK    1  A    between atoms: O1_2  and  C2_3 
REMARK    2  A    between atoms: C6_9  and  N3_10 
REMARK    3  A    between atoms: N3_10  and  C7_11 
REMARK    4  A    between atoms: C15_21  and  O2_22 
REMARK    5  A    between atoms: O2_22  and  C16_23 
REMARK    6  A    between atoms: C16_23  and  C17_24 
REMARK    7  A    between atoms: C17_24  and  C18_25 
REMARK    8  A    between atoms: C18_25  and  N4_26 
ROOT
HETATM    1  C2  UNL     1      20.566   1.985  52.524  1.00  0.00     0.103 A 
HETATM    2  C3  UNL     1      20.644   1.133  53.618  1.00  0.00     0.072 A 
HETATM    3  C4  UNL     1      21.757   0.343  53.889  1.00  0.00     0.075 A 
HETATM    4  N1  UNL     1      21.813  -0.467  54.932  1.00  0.00    -0.241 NA
HETATM    5  C5  UNL     1      22.885  -1.233  55.190  1.00  0.00     0.236 A 
HETATM    6  N2  UNL     1      23.951  -1.163  54.336  1.00  0.00    -0.224 NA
HETATM    7  C6  UNL     1      23.905  -0.347  53.281  1.00  0.00     0.142 A 
HETATM    8  C13 UNL     1      22.812   0.445  52.999  1.00  0.00     0.042 A 
HETATM    9  C14 UNL     1      22.849   1.249  51.886  1.00  0.00     0.057 A 
HETATM   10  C15 UNL     1      21.707   1.993  51.698  1.00  0.00     0.103 A 
ENDROOT
BRANCH   7  11
HETATM   11  N3  UNL     1      25.100  -0.416  52.521  1.00  0.00    -0.340 N 
HETATM   12  H6  UNL     1      25.173  -0.926  51.611  1.00  0.00     0.167 HD
BRANCH  11  13
HETATM   13  C7  UNL     1      26.270   0.229  53.010  1.00  0.00     0.035 A 
HETATM   14  C8  UNL     1      26.307   1.546  53.395  1.00  0.00     0.032 A 
HETATM   15  C9  UNL     1      27.456   2.176  53.898  1.00  0.00     0.046 A 
HETATM   16  C10 UNL     1      28.609   1.420  54.008  1.00  0.00     0.138 A 
HETATM   17  F1  UNL     1      29.757   2.006  54.491  1.00  0.00    -0.204 F 
HETATM   18  C11 UNL     1      28.645   0.072  53.634  1.00  0.00     0.074 A 
HETATM   19 CL1  UNL     1      30.100  -0.886  53.772  1.00  0.00    -0.081 Cl
HETATM   20  C12 UNL     1      27.462  -0.442  53.153  1.00  0.00     0.056 A 
ENDBRANCH  11  13
ENDBRANCH   7  11
BRANCH  10  21
HETATM   21  O2  UNL     1      21.526   2.863  50.654  1.00  0.00    -0.348 OA
BRANCH  21  22
HETATM   22  C16 UNL     1      22.284   4.038  50.545  1.00  0.00     0.177 C 
BRANCH  22  23
HETATM   23  C17 UNL     1      23.388   3.806  49.470  1.00  0.00     0.046 C 
BRANCH  23  24
HETATM   24  C18 UNL     1      23.200   4.967  48.522  1.00  0.00     0.119 C 
BRANCH  24  25
HETATM   25  N4  UNL     1      24.070   6.050  48.642  1.00  0.00    -0.408 N 
HETATM   26  C19 UNL     1      23.729   7.206  49.346  1.00  0.00     0.143 C 
HETATM   27  C20 UNL     1      24.484   7.278  50.662  1.00  0.00     0.187 C 
HETATM   28  O3  UNL     1      25.829   7.347  50.443  1.00  0.00    -0.388 OA
HETATM   29  C21 UNL     1      26.316   6.770  49.306  1.00  0.00     0.187 C 
HETATM   30  C22 UNL     1      25.420   5.627  48.869  1.00  0.00     0.143 C 
ENDBRANCH  24  25
ENDBRANCH  23  24
ENDBRANCH  22  23
ENDBRANCH  21  22
ENDBRANCH  10  21
BRANCH   1  31
HETATM   31  O1  UNL     1      19.473   2.769  52.245  1.00  0.00    -0.353 OA
HETATM   32  C1  UNL     1      18.372   2.315  51.529  1.00  0.00     0.210 C 
ENDBRANCH   1  31
TORSDOF 8
ENDMDL
MODEL 5
REMARK VINA RESULT:      -7.5      5.758      8.848
REMARK  8 active torsions:
REMARK  status: ('A' for Active; 'I' for Inactive)
REMARK    1  A    between atoms: O1_2  and  C2_3 
REMARK    2  A    between atoms: C6_9  and  N3_10 
REMARK    3  A    between atoms: N3_10  and  C7_11 
REMARK    4  A    between atoms: C15_21  and  O2_22 
REMARK    5  A    between atoms: O2_22  and  C16_23 
REMARK    6  A    between atoms: C16_23  and  C17_24 
REMARK    7  A    between atoms: C17_24  and  C18_25 
REMARK    8  A    between atoms: C18_25  and  N4_26 
ROOT
HETATM    1  C2  UNL     1      27.076   7.660  49.077  1.00  0.00     0.103 A 
HETATM    2  C3  UNL     1      26.016   7.859  49.952  1.00  0.00     0.072 A 
HETATM    3  C4  UNL     1      25.199   6.827  50.404  1.00  0.00     0.075 A 
HETATM    4  N1  UNL     1      24.190   7.035  51.233  1.00  0.00    -0.241 NA
HETATM    5  C5  UNL     1      23.399   6.040  51.664  1.00  0.00     0.236 A 
HETATM    6  N2  UNL     1      23.656   4.771  51.225  1.00  0.00    -0.224 NA
HETATM    7  C6  UNL     1      24.674   4.550  50.389  1.00  0.00     0.142 A 
HETATM    8  C13 UNL     1      25.495   5.559  49.934  1.00  0.00     0.042 A 
HETATM    9  C14 UNL     1      26.514   5.242  49.069  1.00  0.00     0.057 A 
HETATM   10  C15 UNL     1      27.269   6.324  48.676  1.00  0.00     0.103 A 
ENDROOT
BRANCH   7  11
HETATM   11  N3  UNL     1      24.777   3.178  50.051  1.00  0.00    -0.340 N 
HETATM   12  H6  UNL     1      24.509   2.795  49.115  1.00  0.00     0.167 HD
BRANCH  11  13
HETATM   13  C7  UNL     1      25.262   2.259  51.024  1.00  0.00     0.035 A 
HETATM   14  C8  UNL     1      26.590   2.122  51.343  1.00  0.00     0.032 A 
HETATM   15  C9  UNL     1      27.065   1.231  52.319  1.00  0.00     0.046 A 
HETATM   16  C10 UNL     1      26.137   0.453  52.989  1.00  0.00     0.138 A 
HETATM   17  F1  UNL     1      26.567  -0.435  53.947  1.00  0.00    -0.204 F 
HETATM   18  C11 UNL     1      24.768   0.540  52.714  1.00  0.00     0.074 A 
HETATM   19 CL1  UNL     1      23.592  -0.439  53.558  1.00  0.00    -0.081 Cl
HETATM   20  C12 UNL     1      24.414   1.446  51.739  1.00  0.00     0.056 A 
ENDBRANCH  11  13
ENDBRANCH   7  11
BRANCH  10  21
HETATM   21  O2  UNL     1      28.336   6.238  47.818  1.00  0.00    -0.348 OA
BRANCH  21  22
HETATM   22  C16 UNL     1      29.475   5.491  48.146  1.00  0.00     0.177 C 
BRANCH  22  23
HETATM   23  C17 UNL     1      30.723   6.410  47.980  1.00  0.00     0.046 C 
BRANCH  23  24
HETATM   24  C18 UNL     1      31.791   5.694  48.772  1.00  0.00     0.119 C 
BRANCH  24  25
HETATM   25  N4  UNL     1      32.789   5.028  48.061  1.00  0.00    -0.408 N 
HETATM   26  C19 UNL     1      32.717   3.664  47.774  1.00  0.00     0.143 C 
HETATM   27  C20 UNL     1      32.412   3.437  46.304  1.00  0.00     0.187 C 
HETATM   28  O3  UNL     1      33.411   3.939  45.521  1.00  0.00    -0.388 OA
HETATM   29  C21 UNL     1      34.124   4.997  46.006  1.00  0.00     0.187 C 
HETATM   30  C22 UNL     1      33.275   5.812  46.964  1.00  0.00     0.143 C 
ENDBRANCH  24  25
ENDBRANCH  23  24
ENDBRANCH  22  23
ENDBRANCH  21  22
ENDBRANCH  10  21
BRANCH   1  31
HETATM   31  O1  UNL     1      27.890   8.669  48.623  1.00  0.00    -0.353 OA
HETATM   32  C1  UNL     1      28.803   9.334  49.433  1.00  0.00     0.210 C 
ENDBRANCH   1  31
TORSDOF 8
ENDMDL
MODEL 6
REMARK VINA RESULT:      -7.5      3.864      6.529
REMARK  8 active torsions:
REMARK  status: ('A' for Active; 'I' for Inactive)
REMARK    1  A    between atoms: O1_2  and  C2_3 
REMARK    2  A    between atoms: C6_9  and  N3_10 
REMARK    3  A    between atoms: N3_10  and  C7_11 
REMARK    4  A    between atoms: C15_21  and  O2_22 
REMARK    5  A    between atoms: O2_22  and  C16_23 
REMARK    6  A    between atoms: C16_23  and  C17_24 
REMARK    7  A    between atoms: C17_24  and  C18_25 
REMARK    8  A    between atoms: C18_25  and  N4_26 
ROOT
HETATM    1  C2  UNL     1      26.758   0.551  53.803  1.00  0.00     0.103 A 
HETATM    2  C3  UNL     1      26.011  -0.127  54.758  1.00  0.00     0.072 A 
HETATM    3  C4  UNL     1      24.692  -0.521  54.552  1.00  0.00     0.075 A 
HETATM    4  N1  UNL     1      23.993  -1.161  55.474  1.00  0.00    -0.241 NA
HETATM    5  C5  UNL     1      22.720  -1.537  55.278  1.00  0.00     0.236 A 
HETATM    6  N2  UNL     1      22.135  -1.242  54.077  1.00  0.00    -0.224 NA
HETATM    7  C6  UNL     1      22.833  -0.597  53.139  1.00  0.00     0.142 A 
HETATM    8  C13 UNL     1      24.141  -0.202  53.323  1.00  0.00     0.042 A 
HETATM    9  C14 UNL     1      24.780   0.463  52.306  1.00  0.00     0.057 A 
HETATM   10  C15 UNL     1      26.078   0.813  52.598  1.00  0.00     0.103 A 
ENDROOT
BRANCH   7  11
HETATM   11  N3  UNL     1      22.058  -0.386  51.971  1.00  0.00    -0.340 N 
HETATM   12  H6  UNL     1      22.150  -0.970  51.108  1.00  0.00     0.167 HD
BRANCH  11  13
HETATM   13  C7  UNL     1      21.107   0.673  51.952  1.00  0.00     0.035 A 
HETATM   14  C8  UNL     1      21.297   1.875  52.586  1.00  0.00     0.032 A 
HETATM   15  C9  UNL     1      20.369   2.928  52.548  1.00  0.00     0.046 A 
HETATM   16  C10 UNL     1      19.203   2.733  51.831  1.00  0.00     0.138 A 
HETATM   17  F1  UNL     1      18.267   3.740  51.777  1.00  0.00    -0.204 F 
HETATM   18  C11 UNL     1      18.942   1.533  51.160  1.00  0.00     0.074 A 
HETATM   19 CL1  UNL     1      17.470   1.283  50.252  1.00  0.00    -0.081 Cl
HETATM   20  C12 UNL     1      19.921   0.569  51.265  1.00  0.00     0.056 A 
ENDBRANCH  11  13
ENDBRANCH   7  11
BRANCH  10  21
HETATM   21  O2  UNL     1      26.902   1.482  51.729  1.00  0.00    -0.348 OA
BRANCH  21  22
HETATM   22  C16 UNL     1      26.665   2.820  51.384  1.00  0.00     0.177 C 
BRANCH  22  23
HETATM   23  C17 UNL     1      26.390   2.885  49.851  1.00  0.00     0.046 C 
BRANCH  23  24
HETATM   24  C18 UNL     1      25.359   3.982  49.728  1.00  0.00     0.119 C 
BRANCH  24  25
HETATM   25  N4  UNL     1      24.035   3.666  50.031  1.00  0.00    -0.408 N 
HETATM   26  C19 UNL     1      23.214   4.519  50.770  1.00  0.00     0.143 C 
HETATM   27  C20 UNL     1      22.178   5.179  49.877  1.00  0.00     0.187 C 
HETATM   28  O3  UNL     1      21.354   4.243  49.323  1.00  0.00    -0.388 OA
HETATM   29  C21 UNL     1      21.862   2.993  49.120  1.00  0.00     0.187 C 
HETATM   30  C22 UNL     1      23.364   3.059  48.920  1.00  0.00     0.143 C 
ENDBRANCH  24  25
ENDBRANCH  23  24
ENDBRANCH  22  23
ENDBRANCH  21  22
ENDBRANCH  10  21
BRANCH   1  31
HETATM   31  O1  UNL     1      28.059   0.946  53.993  1.00  0.00    -0.353 OA
HETATM   32  C1  UNL     1      29.120   0.053  54.091  1.00  0.00     0.210 C 
ENDBRANCH   1  31
TORSDOF 8
ENDMDL
MODEL 7
REMARK VINA RESULT:      -7.4      3.606      5.402
REMARK  8 active torsions:
REMARK  status: ('A' for Active; 'I' for Inactive)
REMARK    1  A    between atoms: O1_2  and  C2_3 
REMARK    2  A    between atoms: C6_9  and  N3_10 
REMARK    3  A    between atoms: N3_10  and  C7_11 
REMARK    4  A    between atoms: C15_21  and  O2_22 
REMARK    5  A    between atoms: O2_22  and  C16_23 
REMARK    6  A    between atoms: C16_23  and  C17_24 
REMARK    7  A    between atoms: C17_24  and  C18_25 
REMARK    8  A    between atoms: C18_25  and  N4_26 
ROOT
HETATM    1  C2  UNL     1      22.850   0.922  52.853  1.00  0.00     0.103 A 
HETATM    2  C3  UNL     1      24.057   1.061  53.528  1.00  0.00     0.072 A 
HETATM    3  C4  UNL     1      25.205   1.576  52.934  1.00  0.00     0.075 A 
HETATM    4  N1  UNL     1      26.346   1.697  53.589  1.00  0.00    -0.241 NA
HETATM    5  C5  UNL     1      27.455   2.189  53.015  1.00  0.00     0.236 A 
HETATM    6  N2  UNL     1      27.389   2.577  51.705  1.00  0.00    -0.224 NA
HETATM    7  C6  UNL     1      26.240   2.461  51.035  1.00  0.00     0.142 A 
HETATM    8  C13 UNL     1      25.092   1.956  51.608  1.00  0.00     0.042 A 
HETATM    9  C14 UNL     1      23.956   1.865  50.841  1.00  0.00     0.057 A 
HETATM   10  C15 UNL     1      22.872   1.345  51.510  1.00  0.00     0.103 A 
ENDROOT
BRANCH   7  11
HETATM   11  N3  UNL     1      26.372   2.914  49.699  1.00  0.00    -0.340 N 
HETATM   12  H6  UNL     1      26.373   2.273  48.873  1.00  0.00     0.167 HD
BRANCH  11  13
HETATM   13  C7  UNL     1      26.520   4.308  49.451  1.00  0.00     0.035 A 
HETATM   14  C8  UNL     1      27.524   4.840  48.682  1.00  0.00     0.032 A 
HETATM   15  C9  UNL     1      27.656   6.213  48.420  1.00  0.00     0.046 A 
HETATM   16  C10 UNL     1      26.718   7.068  48.970  1.00  0.00     0.138 A 
HETATM   17  F1  UNL     1      26.819   8.420  48.740  1.00  0.00    -0.204 F 
HETATM   18  C11 UNL     1      25.667   6.595  49.765  1.00  0.00     0.074 A 
HETATM   19 CL1  UNL     1      24.480   7.670  50.462  1.00  0.00    -0.081 Cl
HETATM   20  C12 UNL     1      25.635   5.231  49.957  1.00  0.00     0.056 A 
ENDBRANCH  11  13
ENDBRANCH   7  11
BRANCH  10  21
HETATM   21  O2  UNL     1      21.637   1.167  50.939  1.00  0.00    -0.348 OA
BRANCH  21  22
HETATM   22  C16 UNL     1      21.491   1.011  49.554  1.00  0.00     0.177 C 
BRANCH  22  23
HETATM   23  C17 UNL     1      20.654   2.210  49.016  1.00  0.00     0.046 C 
BRANCH  23  24
HETATM   24  C18 UNL     1      21.690   3.092  48.361  1.00  0.00     0.119 C 
BRANCH  24  25
HETATM   25  N4  UNL     1      22.001   4.300  48.984  1.00  0.00    -0.408 N 
HETATM   26  C19 UNL     1      22.311   5.455  48.262  1.00  0.00     0.143 C 
HETATM   27  C20 UNL     1      21.169   6.454  48.327  1.00  0.00     0.187 C 
HETATM   28  O3  UNL     1      20.953   6.855  49.613  1.00  0.00    -0.388 OA
HETATM   29  C21 UNL     1      21.267   5.979  50.611  1.00  0.00     0.187 C 
HETATM   30  C22 UNL     1      21.156   4.550  50.114  1.00  0.00     0.143 C 
ENDBRANCH  24  25
ENDBRANCH  23  24
ENDBRANCH  22  23
ENDBRANCH  21  22
ENDBRANCH  10  21
BRANCH   1  31
HETATM   31  O1  UNL     1      21.710   0.414  53.426  1.00  0.00    -0.353 OA
HETATM   32  C1  UNL     1      21.725  -0.464  54.504  1.00  0.00     0.210 C 
ENDBRANCH   1  31
TORSDOF 8
ENDMDL
MODEL 8
REMARK VINA RESULT:      -7.4      3.348      6.122
REMARK  8 active torsions:
REMARK  status: ('A' for Active; 'I' for Inactive)
REMARK    1  A    between atoms: O1_2  and  C2_3 
REMARK    2  A    between atoms: C6_9  and  N3_10 
REMARK    3  A    between atoms: N3_10  and  C7_11 
REMARK    4  A    between atoms: C15_21  and  O2_22 
REMARK    5  A    between atoms: O2_22  and  C16_23 
REMARK    6  A    between atoms: C16_23  and  C17_24 
REMARK    7  A    between atoms: C17_24  and  C18_25 
REMARK    8  A    between atoms: C18_25  and  N4_26 
ROOT
HETATM    1  C2  UNL     1      21.890  -0.348  52.917  1.00  0.00     0.103 A 
HETATM    2  C3  UNL     1      21.234   0.145  51.795  1.00  0.00     0.072 A 
HETATM    3  C4  UNL     1      21.801   1.077  50.931  1.00  0.00     0.075 A 
HETATM    4  N1  UNL     1      21.161   1.540  49.872  1.00  0.00    -0.241 NA
HETATM    5  C5  UNL     1      21.706   2.443  49.042  1.00  0.00     0.236 A 
HETATM    6  N2  UNL     1      22.969   2.892  49.312  1.00  0.00    -0.224 NA
HETATM    7  C6  UNL     1      23.625   2.430  50.379  1.00  0.00     0.142 A 
HETATM    8  C13 UNL     1      23.081   1.504  51.244  1.00  0.00     0.042 A 
HETATM    9  C14 UNL     1      23.825   1.089  52.321  1.00  0.00     0.057 A 
HETATM   10  C15 UNL     1      23.185   0.169  53.119  1.00  0.00     0.103 A 
ENDROOT
BRANCH   7  11
HETATM   11  N3  UNL     1      24.913   3.012  50.487  1.00  0.00    -0.340 N 
HETATM   12  H6  UNL     1      25.780   2.456  50.668  1.00  0.00     0.167 HD
BRANCH  11  13
HETATM   13  C7  UNL     1      25.049   4.422  50.354  1.00  0.00     0.035 A 
HETATM   14  C8  UNL     1      24.371   5.328  51.130  1.00  0.00     0.032 A 
HETATM   15  C9  UNL     1      24.523   6.719  51.012  1.00  0.00     0.046 A 
HETATM   16  C10 UNL     1      25.408   7.192  50.060  1.00  0.00     0.138 A 
HETATM   17  F1  UNL     1      25.578   8.549  49.912  1.00  0.00    -0.204 F 
HETATM   18  C11 UNL     1      26.133   6.326  49.233  1.00  0.00     0.074 A 
HETATM   19 CL1  UNL     1      27.251   6.920  48.029  1.00  0.00    -0.081 Cl
HETATM   20  C12 UNL     1      25.905   4.983  49.434  1.00  0.00     0.056 A 
ENDBRANCH  11  13
ENDBRANCH   7  11
BRANCH  10  21
HETATM   21  O2  UNL     1      23.741  -0.381  54.246  1.00  0.00    -0.348 OA
BRANCH  21  22
HETATM   22  C16 UNL     1      25.124  -0.575  54.356  1.00  0.00     0.177 C 
BRANCH  22  23
HETATM   23  C17 UNL     1      25.673  -0.965  52.951  1.00  0.00     0.046 C 
BRANCH  23  24
HETATM   24  C18 UNL     1      27.160  -1.095  53.180  1.00  0.00     0.119 C 
BRANCH  24  25
HETATM   25  N4  UNL     1      27.935   0.061  53.084  1.00  0.00    -0.408 N 
HETATM   26  C19 UNL     1      27.471   1.220  52.460  1.00  0.00     0.143 C 
HETATM   27  C20 UNL     1      27.149   2.293  53.487  1.00  0.00     0.187 C 
HETATM   28  O3  UNL     1      28.271   2.653  54.175  1.00  0.00    -0.388 OA
HETATM   29  C21 UNL     1      29.252   1.716  54.322  1.00  0.00     0.187 C 
HETATM   30  C22 UNL     1      28.657   0.320  54.294  1.00  0.00     0.143 C 
ENDBRANCH  24  25
ENDBRANCH  23  24
ENDBRANCH  22  23
ENDBRANCH  21  22
ENDBRANCH  10  21
BRANCH   1  31
HETATM   31  O1  UNL     1      21.342  -1.267  53.777  1.00  0.00    -0.353 OA
HETATM   32  C1  UNL     1      19.980  -1.536  53.839  1.00  0.00     0.210 C 
ENDBRANCH   1  31
TORSDOF 8
ENDMDL
MODEL 9
REMARK VINA RESULT:      -7.3      3.451      4.991
REMARK  8 active torsions:
REMARK  status: ('A' for Active; 'I' for Inactive)
REMARK    1  A    between atoms: O1_2  and  C2_3 
REMARK    2  A    between atoms: C6_9  and  N3_10 
REMARK    3  A    between atoms: N3_10  and  C7_11 
REMARK    4  A    between atoms: C15_21  and  O2_22 
REMARK    5  A    between atoms: O2_22  and  C16_23 
REMARK    6  A    between atoms: C16_23  and  C17_24 
REMARK    7  A    between atoms: C17_24  and  C18_25 
REMARK    8  A    between atoms: C18_25  and  N4_26 
ROOT
HETATM    1  C2  UNL     1      23.141   3.203  48.953  1.00  0.00     0.103 A 
HETATM    2  C3  UNL     1      22.214   2.226  49.293  1.00  0.00     0.072 A 
HETATM    3  C4  UNL     1      22.272   1.503  50.481  1.00  0.00     0.075 A 
HETATM    4  N1  UNL     1      21.385   0.573  50.786  1.00  0.00    -0.241 NA
HETATM    5  C5  UNL     1      21.444  -0.128  51.929  1.00  0.00     0.236 A 
HETATM    6  N2  UNL     1      22.462   0.140  52.801  1.00  0.00    -0.224 NA
HETATM    7  C6  UNL     1      23.363   1.079  52.503  1.00  0.00     0.142 A 
HETATM    8  C13 UNL     1      23.319   1.807  51.333  1.00  0.00     0.042 A 
HETATM    9  C14 UNL     1      24.293   2.749  51.105  1.00  0.00     0.057 A 
HETATM   10  C15 UNL     1      24.155   3.414  49.907  1.00  0.00     0.103 A 
ENDROOT
BRANCH   7  11
HETATM   11  N3  UNL     1      24.334   1.209  53.527  1.00  0.00    -0.340 N 
HETATM   12  H6  UNL     1      24.194   1.799  54.379  1.00  0.00     0.167 HD
BRANCH  11  13
HETATM   13  C7  UNL     1      25.570   0.514  53.403  1.00  0.00     0.035 A 
HETATM   14  C8  UNL     1      25.690  -0.726  52.829  1.00  0.00     0.032 A 
HETATM   15  C9  UNL     1      26.913  -1.401  52.687  1.00  0.00     0.046 A 
HETATM   16  C10 UNL     1      28.054  -0.773  53.153  1.00  0.00     0.138 A 
HETATM   17  F1  UNL     1      29.269  -1.407  53.037  1.00  0.00    -0.204 F 
HETATM   18  C11 UNL     1      28.006   0.492  53.750  1.00  0.00     0.074 A 
HETATM   19 CL1  UNL     1      29.444   1.289  54.341  1.00  0.00    -0.081 Cl
HETATM   20  C12 UNL     1      26.755   1.060  53.838  1.00  0.00     0.056 A 
ENDBRANCH  11  13
ENDBRANCH   7  11
BRANCH  10  21
HETATM   21  O2  UNL     1      25.012   4.394  49.476  1.00  0.00    -0.348 OA
BRANCH  21  22
HETATM   22  C16 UNL     1      26.400   4.267  49.629  1.00  0.00     0.177 C 
BRANCH  22  23
HETATM   23  C17 UNL     1      27.089   5.285  48.671  1.00  0.00     0.046 C 
BRANCH  23  24
HETATM   24  C18 UNL     1      26.057   6.378  48.522  1.00  0.00     0.119 C 
BRANCH  24  25
HETATM   25  N4  UNL     1      26.516   7.684  48.350  1.00  0.00    -0.408 N 
HETATM   26  C19 UNL     1      25.775   8.651  47.669  1.00  0.00     0.143 C 
HETATM   27  C20 UNL     1      25.194   9.666  48.638  1.00  0.00     0.187 C 
HETATM   28  O3  UNL     1      26.189  10.336  49.288  1.00  0.00    -0.388 OA
HETATM   29  C21 UNL     1      27.374   9.686  49.472  1.00  0.00     0.187 C 
HETATM   30  C22 UNL     1      27.150   8.186  49.532  1.00  0.00     0.143 C 
ENDBRANCH  24  25
ENDBRANCH  23  24
ENDBRANCH  22  23
ENDBRANCH  21  22
ENDBRANCH  10  21
BRANCH   1  31
HETATM   31  O1  UNL     1      23.096   3.924  47.784  1.00  0.00    -0.353 OA
HETATM   32  C1  UNL     1      21.914   4.400  47.228  1.00  0.00     0.210 C 
ENDBRANCH   1  31
TORSDOF 8
ENDMDL
