MODEL 1
REMARK VINA RESULT:      -8.4      0.000      0.000
REMARK  5 active torsions:
REMARK  status: ('A' for Active; 'I' for Inactive)
REMARK    1  A    between atoms: C2_2  and  O1_3 
REMARK    2  A    between atoms: O1_3  and  C3_4 
REMARK    3  A    between atoms: C5_6  and  C6_7 
REMARK    4  A    between atoms: C18_23  and  C19_24 
REMARK    5  A    between atoms: C19_24  and  N4_25 
ROOT
HETATM    1  C6  UNL     1      27.664   0.535  52.430  1.00  0.00    -0.003 C 
HETATM    2  C7  UNL     1      28.134  -0.101  53.481  1.00  0.00     0.090 C 
HETATM    3  C8  UNL     1      29.035  -1.215  53.396  1.00  0.00     0.087 C 
HETATM    4  N1  UNL     1      29.776  -2.126  53.314  1.00  0.00    -0.192 NA
ENDROOT
BRANCH   1   5
HETATM    5  C5  UNL     1      26.737   1.676  52.651  1.00  0.00     0.063 C 
HETATM    6  C4  UNL     1      26.762   2.502  51.388  1.00  0.00     0.024 C 
HETATM    7  C3  UNL     1      25.664   2.931  50.709  1.00  0.00     0.080 C 
HETATM    8  C12 UNL     1      24.220   2.970  51.083  1.00  0.00     0.047 C 
HETATM    9  C11 UNL     1      23.969   3.128  52.405  1.00  0.00     0.018 C 
HETATM   10  C13 UNL     1      23.440   2.783  49.883  1.00  0.00     0.184 C 
HETATM   11  C10 UNL     1      24.460   2.141  53.432  1.00  0.00     0.005 C 
HETATM   12  C9  UNL     1      25.361   1.242  52.948  1.00  0.00    -0.064 C 
HETATM   13  C22 UNL     1      24.673  -0.048  52.769  1.00  0.00     0.077 C 
HETATM   14  C21 UNL     1      23.955  -0.539  53.968  1.00  0.00    -0.025 A 
HETATM   15  C20 UNL     1      22.610  -0.579  54.019  1.00  0.00     0.095 A 
HETATM   16 BR1  UNL     1      23.381  -1.228  55.636  1.00  0.00    -0.126 Br
HETATM   17  C18 UNL     1      21.201  -0.772  54.433  1.00  0.00     0.053 C 
HETATM   18  C17 UNL     1      20.501   0.525  54.692  1.00  0.00     0.181 C 
HETATM   19  N3  UNL     1      20.374   1.414  53.622  1.00  0.00    -0.197 NA
HETATM   20  N2  UNL     1      19.824   1.215  52.562  1.00  0.00    -0.194 NA
HETATM   21  C16 UNL     1      19.790   2.270  51.550  1.00  0.00     0.200 C 
HETATM   22  C15 UNL     1      21.069   2.443  50.856  1.00  0.00     0.001 C 
HETATM   23  C14 UNL     1      22.016   2.538  49.951  1.00  0.00     0.053 C 
HETATM   24  O2  UNL     1      23.833   2.799  48.728  1.00  0.00    -0.287 OA
BRANCH   7  25
HETATM   25  O1  UNL     1      25.828   3.448  49.407  1.00  0.00    -0.351 OA
BRANCH  25  26
HETATM   26  C2  UNL     1      26.953   4.248  49.166  1.00  0.00     0.171 C 
HETATM   27  C1  UNL     1      26.574   5.679  48.866  1.00  0.00     0.034 C 
ENDBRANCH  25  26
ENDBRANCH   7  25
BRANCH  17  28
HETATM   28  C19 UNL     1      20.407  -1.654  53.496  1.00  0.00     0.274 C 
BRANCH  28  29
HETATM   29  N4  UNL     1      19.012  -1.471  53.840  1.00  0.00     0.078 N 
HETATM   30  H21 UNL     1      19.018  -0.714  54.589  1.00  0.00     0.312 HD
HETATM   31  H22 UNL     1      18.658  -2.315  54.361  1.00  0.00     0.312 HD
ENDBRANCH  28  29
ENDBRANCH  17  28
ENDBRANCH   1   5
TORSDOF 5
ENDMDL
MODEL 2
REMARK VINA RESULT:      -8.3      3.793      6.231
REMARK  5 active torsions:
REMARK  status: ('A' for Active; 'I' for Inactive)
REMARK    1  A    between atoms: C2_2  and  O1_3 
REMARK    2  A    between atoms: O1_3  and  C3_4 
REMARK    3  A    between atoms: C5_6  and  C6_7 
REMARK    4  A    between atoms: C18_23  and  C19_24 
REMARK    5  A    between atoms: C19_24  and  N4_25 
ROOT
HETATM    1  C6  UNL     1      25.851   1.744  52.948  1.00  0.00    -0.003 C 
HETATM    2  C7  UNL     1      27.094   1.924  52.560  1.00  0.00     0.090 C 
HETATM    3  C8  UNL     1      28.169   2.233  53.460  1.00  0.00     0.087 C 
HETATM    4  N1  UNL     1      29.042   2.482  54.208  1.00  0.00    -0.192 NA
ENDROOT
BRANCH   1   5
HETATM    5  C5  UNL     1      24.828   1.428  51.917  1.00  0.00     0.063 C 
HETATM    6  C4  UNL     1      23.682   0.760  52.638  1.00  0.00     0.024 C 
HETATM    7  C3  UNL     1      22.371   1.104  52.516  1.00  0.00     0.080 C 
HETATM    8  C12 UNL     1      21.661   1.973  51.531  1.00  0.00     0.047 C 
HETATM    9  C11 UNL     1      22.210   2.011  50.293  1.00  0.00     0.018 C 
HETATM   10  C13 UNL     1      20.549   2.600  52.205  1.00  0.00     0.184 C 
HETATM   11  C10 UNL     1      23.621   2.483  50.061  1.00  0.00     0.005 C 
HETATM   12  C9  UNL     1      24.351   2.625  51.202  1.00  0.00    -0.064 C 
HETATM   13  C22 UNL     1      24.453   4.062  51.507  1.00  0.00     0.077 C 
HETATM   14  C21 UNL     1      24.956   4.897  50.393  1.00  0.00    -0.025 A 
HETATM   15  C20 UNL     1      24.156   5.766  49.744  1.00  0.00     0.095 A 
HETATM   16 BR1  UNL     1      25.928   5.801  49.041  1.00  0.00    -0.126 Br
HETATM   17  C18 UNL     1      23.609   6.795  48.830  1.00  0.00     0.053 C 
HETATM   18  C17 UNL     1      22.674   6.215  47.815  1.00  0.00     0.181 C 
HETATM   19  N3  UNL     1      21.515   5.595  48.287  1.00  0.00    -0.197 NA
HETATM   20  N2  UNL     1      20.638   6.088  48.959  1.00  0.00    -0.194 NA
HETATM   21  C16 UNL     1      19.490   5.278  49.366  1.00  0.00     0.200 C 
HETATM   22  C15 UNL     1      19.799   4.345  50.451  1.00  0.00     0.001 C 
HETATM   23  C14 UNL     1      19.813   3.677  51.582  1.00  0.00     0.053 C 
HETATM   24  O2  UNL     1      20.103   2.338  53.311  1.00  0.00    -0.287 OA
BRANCH   7  25
HETATM   25  O1  UNL     1      21.443   0.592  53.447  1.00  0.00    -0.351 OA
BRANCH  25  26
HETATM   26  C2  UNL     1      21.911  -0.349  54.373  1.00  0.00     0.171 C 
HETATM   27  C1  UNL     1      21.167  -1.660  54.270  1.00  0.00     0.034 C 
ENDBRANCH  25  26
ENDBRANCH   7  25
BRANCH  17  28
HETATM   28  C19 UNL     1      22.991   7.975  49.545  1.00  0.00     0.274 C 
BRANCH  28  29
HETATM   29  N4  UNL     1      22.535   7.486  50.830  1.00  0.00     0.078 N 
HETATM   30  H21 UNL     1      23.418   7.419  51.420  1.00  0.00     0.312 HD
HETATM   31  H22 UNL     1      22.232   6.481  50.744  1.00  0.00     0.312 HD
ENDBRANCH  28  29
ENDBRANCH  17  28
ENDBRANCH   1   5
TORSDOF 5
ENDMDL
MODEL 3
REMARK VINA RESULT:      -8.0      3.736      6.426
REMARK  5 active torsions:
REMARK  status: ('A' for Active; 'I' for Inactive)
REMARK    1  A    between atoms: C2_2  and  O1_3 
REMARK    2  A    between atoms: O1_3  and  C3_4 
REMARK    3  A    between atoms: C5_6  and  C6_7 
REMARK    4  A    between atoms: C18_23  and  C19_24 
REMARK    5  A    between atoms: C19_24  and  N4_25 
ROOT
HETATM    1  C6  UNL     1      22.837  -0.197  53.308  1.00  0.00    -0.003 C 
HETATM    2  C7  UNL     1      24.101  -0.552  53.392  1.00  0.00     0.090 C 
HETATM    3  C8  UNL     1      24.751  -0.882  54.629  1.00  0.00     0.087 C 
HETATM    4  N1  UNL     1      25.272  -1.153  55.648  1.00  0.00    -0.192 NA
ENDROOT
BRANCH   1   5
HETATM    5  C5  UNL     1      22.281   0.120  51.966  1.00  0.00     0.063 C 
HETATM    6  C4  UNL     1      20.780   0.164  52.123  1.00  0.00     0.024 C 
HETATM    7  C3  UNL     1      19.974   1.168  51.682  1.00  0.00     0.080 C 
HETATM    8  C12 UNL     1      20.228   2.307  50.752  1.00  0.00     0.047 C 
HETATM    9  C11 UNL     1      21.152   2.073  49.788  1.00  0.00     0.018 C 
HETATM   10  C13 UNL     1      19.411   3.420  51.171  1.00  0.00     0.184 C 
HETATM   11  C10 UNL     1      22.575   1.708  50.121  1.00  0.00     0.005 C 
HETATM   12  C9  UNL     1      22.775   1.401  51.433  1.00  0.00    -0.064 C 
HETATM   13  C22 UNL     1      23.446   2.544  52.075  1.00  0.00     0.077 C 
HETATM   14  C21 UNL     1      24.680   3.000  51.395  1.00  0.00    -0.025 A 
HETATM   15  C20 UNL     1      24.734   4.179  50.746  1.00  0.00     0.095 A 
HETATM   16 BR1  UNL     1      26.404   3.264  50.656  1.00  0.00    -0.126 Br
HETATM   17  C18 UNL     1      25.167   5.363  49.968  1.00  0.00     0.053 C 
HETATM   18  C17 UNL     1      24.543   5.410  48.609  1.00  0.00     0.181 C 
HETATM   19  N3  UNL     1      23.151   5.507  48.542  1.00  0.00    -0.197 NA
HETATM   20  N2  UNL     1      22.451   6.381  49.003  1.00  0.00    -0.194 NA
HETATM   21  C16 UNL     1      21.000   6.315  48.836  1.00  0.00     0.200 C 
HETATM   22  C15 UNL     1      20.362   5.336  49.720  1.00  0.00     0.001 C 
HETATM   23  C14 UNL     1      19.608   4.741  50.615  1.00  0.00     0.053 C 
HETATM   24  O2  UNL     1      18.508   3.415  51.994  1.00  0.00    -0.287 OA
BRANCH   7  25
HETATM   25  O1  UNL     1      18.639   1.219  52.135  1.00  0.00    -0.351 OA
BRANCH  25  26
HETATM   26  C2  UNL     1      17.845   0.083  51.932  1.00  0.00     0.171 C 
HETATM   27  C1  UNL     1      17.417  -0.056  50.490  1.00  0.00     0.034 C 
ENDBRANCH  25  26
ENDBRANCH   7  25
BRANCH  17  28
HETATM   28  C19 UNL     1      24.992   6.671  50.706  1.00  0.00     0.274 C 
BRANCH  28  29
HETATM   29  N4  UNL     1      24.011   6.431  51.744  1.00  0.00     0.078 N 
HETATM   30  H21 UNL     1      23.174   6.019  51.232  1.00  0.00     0.312 HD
HETATM   31  H22 UNL     1      23.639   7.348  52.105  1.00  0.00     0.312 HD
ENDBRANCH  28  29
ENDBRANCH  17  28
ENDBRANCH   1   5
TORSDOF 5
ENDMDL
MODEL 4
REMARK VINA RESULT:      -8.0      3.140      5.236
REMARK  5 active torsions:
REMARK  status: ('A' for Active; 'I' for Inactive)
REMARK    1  A    between atoms: C2_2  and  O1_3 
REMARK    2  A    between atoms: O1_3  and  C3_4 
REMARK    3  A    between atoms: C5_6  and  C6_7 
REMARK    4  A    between atoms: C18_23  and  C19_24 
REMARK    5  A    between atoms: C19_24  and  N4_25 
ROOT
HETATM    1  C6  UNL     1      26.414   5.378  48.865  1.00  0.00    -0.003 C 
HETATM    2  C7  UNL     1      27.017   6.543  48.772  1.00  0.00     0.090 C 
HETATM    3  C8  UNL     1      28.134   6.789  47.904  1.00  0.00     0.087 C 
HETATM    4  N1  UNL     1      29.046   6.981  47.187  1.00  0.00    -0.192 NA
ENDROOT
BRANCH   1   5
HETATM    5  C5  UNL     1      25.267   5.250  49.801  1.00  0.00     0.063 C 
HETATM    6  C4  UNL     1      24.016   5.285  48.957  1.00  0.00     0.024 C 
HETATM    7  C3  UNL     1      22.993   4.391  49.032  1.00  0.00     0.080 C 
HETATM    8  C12 UNL     1      22.659   3.349  50.047  1.00  0.00     0.047 C 
HETATM    9  C11 UNL     1      23.048   3.630  51.314  1.00  0.00     0.018 C 
HETATM   10  C13 UNL     1      22.014   2.251  49.368  1.00  0.00     0.184 C 
HETATM   11  C10 UNL     1      24.493   3.863  51.670  1.00  0.00     0.005 C 
HETATM   12  C9  UNL     1      25.312   4.008  50.591  1.00  0.00    -0.064 C 
HETATM   13  C22 UNL     1      26.075   2.759  50.424  1.00  0.00     0.077 C 
HETATM   14  C21 UNL     1      26.793   2.304  51.636  1.00  0.00    -0.025 A 
HETATM   15  C20 UNL     1      26.410   1.203  52.313  1.00  0.00     0.095 A 
HETATM   16 BR1  UNL     1      27.935   2.013  53.119  1.00  0.00    -0.126 Br
HETATM   17  C18 UNL     1      26.298   0.088  53.282  1.00  0.00     0.053 C 
HETATM   18  C17 UNL     1      25.113   0.235  54.184  1.00  0.00     0.181 C 
HETATM   19  N3  UNL     1      23.849   0.236  53.590  1.00  0.00    -0.197 NA
HETATM   20  N2  UNL     1      23.352  -0.637  52.914  1.00  0.00    -0.194 NA
HETATM   21  C16 UNL     1      22.006  -0.460  52.370  1.00  0.00     0.200 C 
HETATM   22  C15 UNL     1      21.965   0.453  51.225  1.00  0.00     0.001 C 
HETATM   23  C14 UNL     1      21.783   0.992  50.041  1.00  0.00     0.053 C 
HETATM   24  O2  UNL     1      21.603   2.222  48.219  1.00  0.00    -0.287 OA
BRANCH   7  25
HETATM   25  O1  UNL     1      22.025   4.376  48.006  1.00  0.00    -0.351 OA
BRANCH  25  26
HETATM   26  C2  UNL     1      22.226   5.233  46.916  1.00  0.00     0.171 C 
HETATM   27  C1  UNL     1      21.917   4.556  45.601  1.00  0.00     0.034 C 
ENDBRANCH  25  26
ENDBRANCH   7  25
BRANCH  17  28
HETATM   28  C19 UNL     1      26.344  -1.280  52.641  1.00  0.00     0.274 C 
BRANCH  28  29
HETATM   29  N4  UNL     1      27.576  -1.901  53.083  1.00  0.00     0.078 N 
HETATM   30  H21 UNL     1      27.524  -2.896  52.707  1.00  0.00     0.312 HD
HETATM   31  H22 UNL     1      27.553  -2.041  54.126  1.00  0.00     0.312 HD
ENDBRANCH  28  29
ENDBRANCH  17  28
ENDBRANCH   1   5
TORSDOF 5
ENDMDL
MODEL 5
REMARK VINA RESULT:      -7.6      3.707      6.963
REMARK  5 active torsions:
REMARK  status: ('A' for Active; 'I' for Inactive)
REMARK    1  A    between atoms: C2_2  and  O1_3 
REMARK    2  A    between atoms: O1_3  and  C3_4 
REMARK    3  A    between atoms: C5_6  and  C6_7 
REMARK    4  A    between atoms: C18_23  and  C19_24 
REMARK    5  A    between atoms: C19_24  and  N4_25 
ROOT
HETATM    1  C6  UNL     1      20.890   0.214  52.637  1.00  0.00    -0.003 C 
HETATM    2  C7  UNL     1      19.626   0.368  52.965  1.00  0.00     0.090 C 
HETATM    3  C8  UNL     1      18.596  -0.565  52.608  1.00  0.00     0.087 C 
HETATM    4  N1  UNL     1      17.759  -1.339  52.313  1.00  0.00    -0.192 NA
ENDROOT
BRANCH   1   5
HETATM    5  C5  UNL     1      21.862   1.253  53.068  1.00  0.00     0.063 C 
HETATM    6  C4  UNL     1      23.155   0.534  53.370  1.00  0.00     0.024 C 
HETATM    7  C3  UNL     1      24.380   0.890  52.899  1.00  0.00     0.080 C 
HETATM    8  C12 UNL     1      24.860   2.132  52.224  1.00  0.00     0.047 C 
HETATM    9  C11 UNL     1      24.214   3.269  52.577  1.00  0.00     0.018 C 
HETATM   10  C13 UNL     1      25.911   1.766  51.304  1.00  0.00     0.184 C 
HETATM   11  C10 UNL     1      22.731   3.438  52.372  1.00  0.00     0.005 C 
HETATM   12  C9  UNL     1      22.083   2.286  52.041  1.00  0.00    -0.064 C 
HETATM   13  C22 UNL     1      21.781   2.327  50.601  1.00  0.00     0.077 C 
HETATM   14  C21 UNL     1      21.063   3.541  50.152  1.00  0.00    -0.025 A 
HETATM   15  C20 UNL     1      21.659   4.471  49.380  1.00  0.00     0.095 A 
HETATM   16 BR1  UNL     1      19.853   4.946  49.761  1.00  0.00    -0.126 Br
HETATM   17  C18 UNL     1      21.961   5.664  48.556  1.00  0.00     0.053 C 
HETATM   18  C17 UNL     1      22.889   6.613  49.247  1.00  0.00     0.181 C 
HETATM   19  N3  UNL     1      24.166   6.146  49.567  1.00  0.00    -0.197 NA
HETATM   20  N2  UNL     1      25.007   5.722  48.806  1.00  0.00    -0.194 NA
HETATM   21  C16 UNL     1      26.297   5.272  49.325  1.00  0.00     0.200 C 
HETATM   22  C15 UNL     1      26.229   3.964  49.982  1.00  0.00     0.001 C 
HETATM   23  C14 UNL     1      26.414   2.712  50.334  1.00  0.00     0.053 C 
HETATM   24  O2  UNL     1      26.481   0.690  51.213  1.00  0.00    -0.287 OA
BRANCH   7  25
HETATM   25  O1  UNL     1      25.450  -0.020  53.028  1.00  0.00    -0.351 OA
BRANCH  25  26
HETATM   26  C2  UNL     1      25.744  -0.494  54.313  1.00  0.00     0.171 C 
HETATM   27  C1  UNL     1      26.869   0.283  54.957  1.00  0.00     0.034 C 
ENDBRANCH  25  26
ENDBRANCH   7  25
BRANCH  17  28
HETATM   28  C19 UNL     1      22.441   5.333  47.161  1.00  0.00     0.274 C 
BRANCH  28  29
HETATM   29  N4  UNL     1      22.965   6.563  46.603  1.00  0.00     0.078 N 
HETATM   30  H21 UNL     1      23.922   6.296  46.220  1.00  0.00     0.312 HD
HETATM   31  H22 UNL     1      23.200   7.236  47.378  1.00  0.00     0.312 HD
ENDBRANCH  28  29
ENDBRANCH  17  28
ENDBRANCH   1   5
TORSDOF 5
ENDMDL
MODEL 6
REMARK VINA RESULT:      -7.6      3.094      6.925
REMARK  5 active torsions:
REMARK  status: ('A' for Active; 'I' for Inactive)
REMARK    1  A    between atoms: C2_2  and  O1_3 
REMARK    2  A    between atoms: O1_3  and  C3_4 
REMARK    3  A    between atoms: C5_6  and  C6_7 
REMARK    4  A    between atoms: C18_23  and  C19_24 
REMARK    5  A    between atoms: C19_24  and  N4_25 
ROOT
HETATM    1  C6  UNL     1      18.893   2.507  50.914  1.00  0.00    -0.003 C 
HETATM    2  C7  UNL     1      18.139   3.574  50.755  1.00  0.00     0.090 C 
HETATM    3  C8  UNL     1      17.100   3.953  51.670  1.00  0.00     0.087 C 
HETATM    4  N1  UNL     1      16.253   4.257  52.428  1.00  0.00    -0.192 NA
ENDROOT
BRANCH   1   5
HETATM    5  C5  UNL     1      19.937   2.223  49.895  1.00  0.00     0.063 C 
HETATM    6  C4  UNL     1      19.879   3.351  48.893  1.00  0.00     0.024 C 
HETATM    7  C3  UNL     1      20.949   4.069  48.457  1.00  0.00     0.080 C 
HETATM    8  C12 UNL     1      22.418   3.838  48.587  1.00  0.00     0.047 C 
HETATM    9  C11 UNL     1      22.796   2.538  48.646  1.00  0.00     0.018 C 
HETATM   10  C13 UNL     1      23.070   5.124  48.657  1.00  0.00     0.184 C 
HETATM   11  C10 UNL     1      22.307   1.615  49.731  1.00  0.00     0.005 C 
HETATM   12  C9  UNL     1      21.288   2.127  50.475  1.00  0.00    -0.064 C 
HETATM   13  C22 UNL     1      21.835   2.550  51.775  1.00  0.00     0.077 C 
HETATM   14  C21 UNL     1      22.606   1.509  52.492  1.00  0.00    -0.025 A 
HETATM   15  C20 UNL     1      23.942   1.598  52.645  1.00  0.00     0.095 A 
HETATM   16 BR1  UNL     1      23.257   0.017  53.461  1.00  0.00    -0.126 Br
HETATM   17  C18 UNL     1      25.357   1.356  53.007  1.00  0.00     0.053 C 
HETATM   18  C17 UNL     1      26.194   0.990  51.822  1.00  0.00     0.181 C 
HETATM   19  N3  UNL     1      26.309   1.934  50.799  1.00  0.00    -0.197 NA
HETATM   20  N2  UNL     1      26.744   3.060  50.883  1.00  0.00    -0.194 NA
HETATM   21  C16 UNL     1      26.787   3.914  49.697  1.00  0.00     0.200 C 
HETATM   22  C15 UNL     1      25.475   4.447  49.323  1.00  0.00     0.001 C 
HETATM   23  C14 UNL     1      24.466   5.232  49.022  1.00  0.00     0.053 C 
HETATM   24  O2  UNL     1      22.581   6.221  48.441  1.00  0.00    -0.287 OA
BRANCH   7  25
HETATM   25  O1  UNL     1      20.722   5.264  47.743  1.00  0.00    -0.351 OA
BRANCH  25  26
HETATM   26  C2  UNL     1      19.924   5.188  46.594  1.00  0.00     0.171 C 
HETATM   27  C1  UNL     1      20.715   5.475  45.339  1.00  0.00     0.034 C 
ENDBRANCH  25  26
ENDBRANCH   7  25
BRANCH  17  28
HETATM   28  C19 UNL     1      25.981   2.480  53.802  1.00  0.00     0.274 C 
BRANCH  28  29
HETATM   29  N4  UNL     1      27.412   2.256  53.781  1.00  0.00     0.078 N 
HETATM   30  H21 UNL     1      27.574   1.642  52.925  1.00  0.00     0.312 HD
HETATM   31  H22 UNL     1      27.688   1.626  54.578  1.00  0.00     0.312 HD
ENDBRANCH  28  29
ENDBRANCH  17  28
ENDBRANCH   1   5
TORSDOF 5
ENDMDL
MODEL 7
REMARK VINA RESULT:      -7.4      2.588      3.496
REMARK  5 active torsions:
REMARK  status: ('A' for Active; 'I' for Inactive)
REMARK    1  A    between atoms: C2_2  and  O1_3 
REMARK    2  A    between atoms: O1_3  and  C3_4 
REMARK    3  A    between atoms: C5_6  and  C6_7 
REMARK    4  A    between atoms: C18_23  and  C19_24 
REMARK    5  A    between atoms: C19_24  and  N4_25 
ROOT
HETATM    1  C6  UNL     1      24.269   0.357  52.521  1.00  0.00    -0.003 C 
HETATM    2  C7  UNL     1      25.458   0.309  53.080  1.00  0.00     0.090 C 
HETATM    3  C8  UNL     1      26.278  -0.869  53.101  1.00  0.00     0.087 C 
HETATM    4  N1  UNL     1      26.942  -1.840  53.109  1.00  0.00    -0.192 NA
ENDROOT
BRANCH   1   5
HETATM    5  C5  UNL     1      23.518   1.639  52.566  1.00  0.00     0.063 C 
HETATM    6  C4  UNL     1      24.234   2.589  51.636  1.00  0.00     0.024 C 
HETATM    7  C3  UNL     1      23.639   3.335  50.666  1.00  0.00     0.080 C 
HETATM    8  C12 UNL     1      22.205   3.649  50.396  1.00  0.00     0.047 C 
HETATM    9  C11 UNL     1      21.406   3.692  51.490  1.00  0.00     0.018 C 
HETATM   10  C13 UNL     1      22.037   3.792  48.970  1.00  0.00     0.184 C 
HETATM   11  C10 UNL     1      21.229   2.501  52.394  1.00  0.00     0.005 C 
HETATM   12  C9  UNL     1      22.111   1.490  52.157  1.00  0.00    -0.064 C 
HETATM   13  C22 UNL     1      21.401   0.419  51.438  1.00  0.00     0.077 C 
HETATM   14  C21 UNL     1      20.155  -0.044  52.089  1.00  0.00    -0.025 A 
HETATM   15  C20 UNL     1      18.942   0.212  51.559  1.00  0.00     0.095 A 
HETATM   16 BR1  UNL     1      18.792  -0.790  53.174  1.00  0.00    -0.126 Br
HETATM   17  C18 UNL     1      17.488   0.289  51.291  1.00  0.00     0.053 C 
HETATM   18  C17 UNL     1      16.943   1.666  51.499  1.00  0.00     0.181 C 
HETATM   19  N3  UNL     1      17.445   2.687  50.688  1.00  0.00    -0.197 NA
HETATM   20  N2  UNL     1      17.415   2.750  49.480  1.00  0.00    -0.194 NA
HETATM   21  C16 UNL     1      17.997   3.903  48.796  1.00  0.00     0.200 C 
HETATM   22  C15 UNL     1      19.462   3.871  48.758  1.00  0.00     0.001 C 
HETATM   23  C14 UNL     1      20.719   3.864  48.379  1.00  0.00     0.053 C 
HETATM   24  O2  UNL     1      22.909   3.863  48.119  1.00  0.00    -0.287 OA
BRANCH   7  25
HETATM   25  O1  UNL     1      24.449   3.960  49.695  1.00  0.00    -0.351 OA
BRANCH  25  26
HETATM   26  C2  UNL     1      25.667   4.503  50.123  1.00  0.00     0.171 C 
HETATM   27  C1  UNL     1      26.835   3.961  49.332  1.00  0.00     0.034 C 
ENDBRANCH  25  26
ENDBRANCH   7  25
BRANCH  17  28
HETATM   28  C19 UNL     1      17.089  -0.270  49.944  1.00  0.00     0.274 C 
BRANCH  28  29
HETATM   29  N4  UNL     1      15.732   0.175  49.699  1.00  0.00     0.078 N 
HETATM   30  H21 UNL     1      15.705   0.389  48.656  1.00  0.00     0.312 HD
HETATM   31  H22 UNL     1      15.580   1.120  50.137  1.00  0.00     0.312 HD
ENDBRANCH  28  29
ENDBRANCH  17  28
ENDBRANCH   1   5
TORSDOF 5
ENDMDL
MODEL 8
REMARK VINA RESULT:      -7.4      4.221      6.570
REMARK  5 active torsions:
REMARK  status: ('A' for Active; 'I' for Inactive)
REMARK    1  A    between atoms: C2_2  and  O1_3 
REMARK    2  A    between atoms: O1_3  and  C3_4 
REMARK    3  A    between atoms: C5_6  and  C6_7 
REMARK    4  A    between atoms: C18_23  and  C19_24 
REMARK    5  A    between atoms: C19_24  and  N4_25 
ROOT
HETATM    1  C6  UNL     1      27.434   5.235  49.093  1.00  0.00    -0.003 C 
HETATM    2  C7  UNL     1      28.496   5.143  48.322  1.00  0.00     0.090 C 
HETATM    3  C8  UNL     1      29.531   6.136  48.278  1.00  0.00     0.087 C 
HETATM    4  N1  UNL     1      30.376   6.955  48.252  1.00  0.00    -0.192 NA
ENDROOT
BRANCH   1   5
HETATM    5  C5  UNL     1      26.432   4.138  49.048  1.00  0.00     0.063 C 
HETATM    6  C4  UNL     1      26.658   3.298  50.282  1.00  0.00     0.024 C 
HETATM    7  C3  UNL     1      25.689   2.909  51.155  1.00  0.00     0.080 C 
HETATM    8  C12 UNL     1      24.200   2.937  51.059  1.00  0.00     0.047 C 
HETATM    9  C11 UNL     1      23.698   2.805  49.808  1.00  0.00     0.018 C 
HETATM   10  C13 UNL     1      23.668   3.145  52.385  1.00  0.00     0.184 C 
HETATM   11  C10 UNL     1      24.030   3.780  48.709  1.00  0.00     0.005 C 
HETATM   12  C9  UNL     1      25.046   4.634  49.017  1.00  0.00    -0.064 C 
HETATM   13  C22 UNL     1      24.462   5.950  49.325  1.00  0.00     0.077 C 
HETATM   14  C21 UNL     1      23.554   6.485  48.284  1.00  0.00    -0.025 A 
HETATM   15  C20 UNL     1      22.226   6.584  48.488  1.00  0.00     0.095 A 
HETATM   16 BR1  UNL     1      22.707   7.216  46.756  1.00  0.00    -0.126 Br
HETATM   17  C18 UNL     1      20.774   6.842  48.347  1.00  0.00     0.053 C 
HETATM   18  C17 UNL     1      19.981   5.579  48.221  1.00  0.00     0.181 C 
HETATM   19  N3  UNL     1      20.018   4.686  49.294  1.00  0.00    -0.197 NA
HETATM   20  N2  UNL     1      19.687   4.897  50.440  1.00  0.00    -0.194 NA
HETATM   21  C16 UNL     1      19.797   3.834  51.437  1.00  0.00     0.200 C 
HETATM   22  C15 UNL     1      21.174   3.598  51.877  1.00  0.00     0.001 C 
HETATM   23  C14 UNL     1      22.270   3.452  52.587  1.00  0.00     0.053 C 
HETATM   24  O2  UNL     1      24.271   3.100  53.446  1.00  0.00    -0.287 OA
BRANCH   7  25
HETATM   25  O1  UNL     1      26.071   2.372  52.401  1.00  0.00    -0.351 OA
BRANCH  25  26
HETATM   26  C2  UNL     1      27.073   1.392  52.402  1.00  0.00     0.171 C 
HETATM   27  C1  UNL     1      26.521   0.021  52.090  1.00  0.00     0.034 C 
ENDBRANCH  25  26
ENDBRANCH   7  25
BRANCH  17  28
HETATM   28  C19 UNL     1      20.211   7.747  49.419  1.00  0.00     0.274 C 
BRANCH  28  29
HETATM   29  N4  UNL     1      18.769   7.665  49.313  1.00  0.00     0.078 N 
HETATM   30  H21 UNL     1      18.593   6.796  48.723  1.00  0.00     0.312 HD
HETATM   31  H22 UNL     1      18.409   8.443  48.701  1.00  0.00     0.312 HD
ENDBRANCH  28  29
ENDBRANCH  17  28
ENDBRANCH   1   5
TORSDOF 5
ENDMDL
MODEL 9
REMARK VINA RESULT:      -7.4      3.641      6.004
REMARK  5 active torsions:
REMARK  status: ('A' for Active; 'I' for Inactive)
REMARK    1  A    between atoms: C2_2  and  O1_3 
REMARK    2  A    between atoms: O1_3  and  C3_4 
REMARK    3  A    between atoms: C5_6  and  C6_7 
REMARK    4  A    between atoms: C18_23  and  C19_24 
REMARK    5  A    between atoms: C19_24  and  N4_25 
ROOT
HETATM    1  C6  UNL     1      24.087   3.957  51.146  1.00  0.00    -0.003 C 
HETATM    2  C7  UNL     1      24.348   4.833  50.200  1.00  0.00     0.090 C 
HETATM    3  C8  UNL     1      24.865   6.147  50.457  1.00  0.00     0.087 C 
HETATM    4  N1  UNL     1      25.292   7.221  50.680  1.00  0.00    -0.192 NA
ENDROOT
BRANCH   1   5
HETATM    5  C5  UNL     1      23.554   2.628  50.750  1.00  0.00     0.063 C 
HETATM    6  C4  UNL     1      24.140   1.624  51.714  1.00  0.00     0.024 C 
HETATM    7  C3  UNL     1      23.431   0.684  52.395  1.00  0.00     0.080 C 
HETATM    8  C12 UNL     1      22.032   0.190  52.237  1.00  0.00     0.047 C 
HETATM    9  C11 UNL     1      21.542   0.232  50.974  1.00  0.00     0.018 C 
HETATM   10  C13 UNL     1      21.537  -0.185  53.540  1.00  0.00     0.184 C 
HETATM   11  C10 UNL     1      21.433   1.524  50.206  1.00  0.00     0.005 C 
HETATM   12  C9  UNL     1      22.082   2.570  50.787  1.00  0.00    -0.064 C 
HETATM   13  C22 UNL     1      21.077   3.442  51.418  1.00  0.00     0.077 C 
HETATM   14  C21 UNL     1      19.979   3.871  50.521  1.00  0.00    -0.025 A 
HETATM   15  C20 UNL     1      18.720   3.416  50.677  1.00  0.00     0.095 A 
HETATM   16 BR1  UNL     1      18.839   4.631  49.213  1.00  0.00    -0.126 Br
HETATM   17  C18 UNL     1      17.269   3.153  50.541  1.00  0.00     0.053 C 
HETATM   18  C17 UNL     1      16.986   1.775  50.032  1.00  0.00     0.181 C 
HETATM   19  N3  UNL     1      17.407   0.699  50.817  1.00  0.00    -0.197 NA
HETATM   20  N2  UNL     1      17.087   0.451  51.958  1.00  0.00    -0.194 NA
HETATM   21  C16 UNL     1      17.634  -0.728  52.627  1.00  0.00     0.200 C 
HETATM   22  C15 UNL     1      19.025  -0.555  53.053  1.00  0.00     0.001 C 
HETATM   23  C14 UNL     1      20.136  -0.479  53.749  1.00  0.00     0.053 C 
HETATM   24  O2  UNL     1      22.173  -0.296  54.576  1.00  0.00    -0.287 OA
BRANCH   7  25
HETATM   25  O1  UNL     1      24.053   0.003  53.463  1.00  0.00    -0.351 OA
BRANCH  25  26
HETATM   26  C2  UNL     1      25.406  -0.330  53.315  1.00  0.00     0.171 C 
HETATM   27  C1  UNL     1      26.189  -0.083  54.584  1.00  0.00     0.034 C 
ENDBRANCH  25  26
ENDBRANCH   7  25
BRANCH  17  28
HETATM   28  C19 UNL     1      16.476   3.458  51.792  1.00  0.00     0.274 C 
BRANCH  28  29
HETATM   29  N4  UNL     1      15.188   2.816  51.630  1.00  0.00     0.078 N 
HETATM   30  H21 UNL     1      15.254   1.932  52.221  1.00  0.00     0.312 HD
HETATM   31  H22 UNL     1      15.096   2.438  50.651  1.00  0.00     0.312 HD
ENDBRANCH  28  29
ENDBRANCH  17  28
ENDBRANCH   1   5
TORSDOF 5
ENDMDL
