MODEL 1
REMARK VINA RESULT:      -9.0      0.000      0.000
REMARK  6 active torsions:
REMARK  status: ('A' for Active; 'I' for Inactive)
REMARK    1  A    between atoms: O1_2  and  C2_3 
REMARK    2  A    between atoms: N1_9  and  C6_10 
REMARK    3  A    between atoms: C6_10  and  N2_11 
REMARK    4  A    between atoms: C12_18  and  C13_19 
REMARK    5  A    between atoms: C16_24  and  N5_25 
REMARK    6  A    between atoms: N5_25  and  C17_26 
ROOT
HETATM    1  C2  UNL     1      20.751   0.083  53.203  1.00  0.00     0.173 C 
HETATM    2  C3  UNL     1      21.864  -0.286  53.795  1.00  0.00     0.118 C 
HETATM    3  O2  UNL     1      21.720  -1.004  54.995  1.00  0.00    -0.338 OA
HETATM    4  C4  UNL     1      22.797  -1.794  55.484  1.00  0.00     0.279 C 
HETATM    5  C5  UNL     1      24.102  -1.125  55.182  1.00  0.00     0.250 C 
HETATM    6  O3  UNL     1      25.040  -1.187  56.018  1.00  0.00    -0.271 OA
HETATM    7  N1  UNL     1      24.344  -0.409  53.978  1.00  0.00    -0.286 N 
HETATM    8  C11 UNL     1      23.178   0.030  53.254  1.00  0.00     0.075 C 
HETATM    9  C12 UNL     1      23.388   0.663  52.125  1.00  0.00     0.049 C 
ENDROOT
BRANCH   7  10
HETATM   10  C6  UNL     1      25.720  -0.186  53.584  1.00  0.00     0.405 C 
BRANCH  10  11
HETATM   11  N2  UNL     1      26.392   0.841  54.323  1.00  0.00     0.110 N 
HETATM   12  C7  UNL     1      27.691   0.326  54.695  1.00  0.00     0.300 C 
HETATM   13  C8  UNL     1      28.795   0.867  53.824  1.00  0.00     0.198 C 
HETATM   14  O4  UNL     1      28.276   1.130  52.550  1.00  0.00    -0.388 OA
HETATM   15  C9  UNL     1      27.486   2.274  52.659  1.00  0.00     0.198 C 
HETATM   16  C10 UNL     1      26.431   2.126  53.724  1.00  0.00     0.300 C 
ENDBRANCH  10  11
ENDBRANCH   7  10
BRANCH   9  17
HETATM   17  C13 UNL     1      22.692   1.271  51.012  1.00  0.00     0.030 A 
HETATM   18  C14 UNL     1      21.567   0.627  50.544  1.00  0.00     0.133 A 
HETATM   19  N3  UNL     1      20.830   1.126  49.542  1.00  0.00    -0.253 NA
HETATM   20  C15 UNL     1      21.185   2.291  48.963  1.00  0.00     0.234 A 
HETATM   21  N4  UNL     1      22.272   2.927  49.404  1.00  0.00    -0.224 NA
HETATM   22  C16 UNL     1      23.054   2.480  50.405  1.00  0.00     0.141 A 
BRANCH  22  23
HETATM   23  N5  UNL     1      24.209   3.135  50.887  1.00  0.00    -0.340 N 
HETATM   24  H20 UNL     1      24.460   2.996  51.912  1.00  0.00     0.167 HD
BRANCH  23  25
HETATM   25  C17 UNL     1      25.129   3.979  50.212  1.00  0.00     0.033 A 
HETATM   26  C18 UNL     1      26.278   3.478  49.588  1.00  0.00     0.029 A 
HETATM   27  C19 UNL     1      27.162   4.305  48.937  1.00  0.00     0.002 A 
HETATM   28  C20 UNL     1      26.963   5.660  48.868  1.00  0.00     0.000 A 
HETATM   29  C21 UNL     1      25.844   6.195  49.469  1.00  0.00     0.002 A 
HETATM   30  C22 UNL     1      24.971   5.345  50.116  1.00  0.00     0.029 A 
ENDBRANCH  23  25
ENDBRANCH  22  23
ENDBRANCH   9  17
BRANCH   1  31
HETATM   31  O1  UNL     1      19.546  -0.237  53.755  1.00  0.00    -0.365 OA
HETATM   32  C1  UNL     1      18.517  -0.790  52.931  1.00  0.00     0.209 C 
ENDBRANCH   1  31
TORSDOF 6
ENDMDL
MODEL 2
REMARK VINA RESULT:      -8.8      2.989      5.090
REMARK  6 active torsions:
REMARK  status: ('A' for Active; 'I' for Inactive)
REMARK    1  A    between atoms: O1_2  and  C2_3 
REMARK    2  A    between atoms: N1_9  and  C6_10 
REMARK    3  A    between atoms: C6_10  and  N2_11 
REMARK    4  A    between atoms: C12_18  and  C13_19 
REMARK    5  A    between atoms: C16_24  and  N5_25 
REMARK    6  A    between atoms: N5_25  and  C17_26 
ROOT
HETATM    1  C2  UNL     1      23.207   3.778  48.640  1.00  0.00     0.173 C 
HETATM    2  C3  UNL     1      23.052   2.951  49.649  1.00  0.00     0.118 C 
HETATM    3  O2  UNL     1      21.872   2.187  49.650  1.00  0.00    -0.338 OA
HETATM    4  C4  UNL     1      21.795   0.999  50.429  1.00  0.00     0.279 C 
HETATM    5  C5  UNL     1      22.557   1.172  51.705  1.00  0.00     0.250 C 
HETATM    6  O3  UNL     1      22.116   0.660  52.766  1.00  0.00    -0.271 OA
HETATM    7  N1  UNL     1      23.777   1.897  51.786  1.00  0.00    -0.286 N 
HETATM    8  C11 UNL     1      24.036   2.826  50.714  1.00  0.00     0.075 C 
HETATM    9  C12 UNL     1      25.174   3.477  50.759  1.00  0.00     0.049 C 
ENDROOT
BRANCH   7  10
HETATM   10  C6  UNL     1      24.646   1.645  52.917  1.00  0.00     0.405 C 
BRANCH  10  11
HETATM   11  N2  UNL     1      25.427   0.449  52.811  1.00  0.00     0.110 N 
HETATM   12  C7  UNL     1      26.769   0.841  52.443  1.00  0.00     0.300 C 
HETATM   13  C8  UNL     1      27.719   0.813  53.613  1.00  0.00     0.198 C 
HETATM   14  O4  UNL     1      27.002   1.093  54.782  1.00  0.00    -0.388 OA
HETATM   15  C9  UNL     1      26.240  -0.037  55.076  1.00  0.00     0.198 C 
HETATM   16  C10 UNL     1      25.370  -0.442  53.914  1.00  0.00     0.300 C 
ENDBRANCH  10  11
ENDBRANCH   7  10
BRANCH   9  17
HETATM   17  C13 UNL     1      25.968   4.437  50.025  1.00  0.00     0.030 A 
HETATM   18  C14 UNL     1      26.989   3.944  49.242  1.00  0.00     0.133 A 
HETATM   19  N3  UNL     1      27.759   4.747  48.494  1.00  0.00    -0.253 NA
HETATM   20  C15 UNL     1      27.544   6.078  48.497  1.00  0.00     0.234 A 
HETATM   21  N4  UNL     1      26.560   6.572  49.251  1.00  0.00    -0.224 NA
HETATM   22  C16 UNL     1      25.752   5.821  50.023  1.00  0.00     0.141 A 
BRANCH  22  23
HETATM   23  N5  UNL     1      24.705   6.321  50.830  1.00  0.00    -0.340 N 
HETATM   24  H20 UNL     1      24.799   6.201  51.884  1.00  0.00     0.167 HD
BRANCH  23  25
HETATM   25  C17 UNL     1      23.504   6.982  50.462  1.00  0.00     0.033 A 
HETATM   26  C18 UNL     1      22.248   6.533  50.886  1.00  0.00     0.029 A 
HETATM   27  C19 UNL     1      21.092   7.181  50.523  1.00  0.00     0.002 A 
HETATM   28  C20 UNL     1      21.111   8.297  49.726  1.00  0.00     0.000 A 
HETATM   29  C21 UNL     1      22.327   8.773  49.286  1.00  0.00     0.002 A 
HETATM   30  C22 UNL     1      23.474   8.106  49.664  1.00  0.00     0.029 A 
ENDBRANCH  23  25
ENDBRANCH  22  23
ENDBRANCH   9  17
BRANCH   1  31
HETATM   31  O1  UNL     1      22.252   3.857  47.670  1.00  0.00    -0.365 OA
HETATM   32  C1  UNL     1      21.695   5.129  47.329  1.00  0.00     0.209 C 
ENDBRANCH   1  31
TORSDOF 6
ENDMDL
MODEL 3
REMARK VINA RESULT:      -8.7      2.605      5.559
REMARK  6 active torsions:
REMARK  status: ('A' for Active; 'I' for Inactive)
REMARK    1  A    between atoms: O1_2  and  C2_3 
REMARK    2  A    between atoms: N1_9  and  C6_10 
REMARK    3  A    between atoms: C6_10  and  N2_11 
REMARK    4  A    between atoms: C12_18  and  C13_19 
REMARK    5  A    between atoms: C16_24  and  N5_25 
REMARK    6  A    between atoms: N5_25  and  C17_26 
ROOT
HETATM    1  C2  UNL     1      23.345  -0.003  52.941  1.00  0.00     0.173 C 
HETATM    2  C3  UNL     1      22.436   0.672  52.272  1.00  0.00     0.118 C 
HETATM    3  O2  UNL     1      21.155   0.097  52.215  1.00  0.00    -0.338 OA
HETATM    4  C4  UNL     1      20.027   0.905  51.898  1.00  0.00     0.279 C 
HETATM    5  C5  UNL     1      20.409   1.947  50.893  1.00  0.00     0.250 C 
HETATM    6  O3  UNL     1      19.592   2.271  49.993  1.00  0.00    -0.271 OA
HETATM    7  N1  UNL     1      21.670   2.604  50.901  1.00  0.00    -0.286 N 
HETATM    8  C11 UNL     1      22.729   1.939  51.619  1.00  0.00     0.075 C 
HETATM    9  C12 UNL     1      23.888   2.551  51.661  1.00  0.00     0.049 C 
ENDROOT
BRANCH   7  10
HETATM   10  C6  UNL     1      21.783   3.866  50.200  1.00  0.00     0.405 C 
BRANCH  10  11
HETATM   11  N2  UNL     1      21.130   4.965  50.846  1.00  0.00     0.110 N 
HETATM   12  C7  UNL     1      22.160   5.836  51.366  1.00  0.00     0.300 C 
HETATM   13  C8  UNL     1      22.368   7.057  50.508  1.00  0.00     0.198 C 
HETATM   14  O4  UNL     1      22.067   6.732  49.180  1.00  0.00    -0.388 OA
HETATM   15  C9  UNL     1      20.681   6.620  49.090  1.00  0.00     0.198 C 
HETATM   16  C10 UNL     1      20.133   5.638  50.093  1.00  0.00     0.300 C 
ENDBRANCH  10  11
ENDBRANCH   7  10
BRANCH   9  17
HETATM   17  C13 UNL     1      25.221   2.431  52.208  1.00  0.00     0.030 A 
HETATM   18  C14 UNL     1      25.328   2.103  53.542  1.00  0.00     0.133 A 
HETATM   19  N3  UNL     1      26.518   1.932  54.136  1.00  0.00    -0.253 NA
HETATM   20  C15 UNL     1      27.652   2.080  53.423  1.00  0.00     0.234 A 
HETATM   21  N4  UNL     1      27.567   2.398  52.130  1.00  0.00    -0.224 NA
HETATM   22  C16 UNL     1      26.404   2.584  51.475  1.00  0.00     0.141 A 
BRANCH  22  23
HETATM   23  N5  UNL     1      26.289   2.922  50.108  1.00  0.00    -0.340 N 
HETATM   24  H20 UNL     1      26.052   2.139  49.428  1.00  0.00     0.167 HD
BRANCH  23  25
HETATM   25  C17 UNL     1      26.441   4.177  49.462  1.00  0.00     0.033 A 
HETATM   26  C18 UNL     1      25.377   5.077  49.326  1.00  0.00     0.029 A 
HETATM   27  C19 UNL     1      25.535   6.289  48.698  1.00  0.00     0.002 A 
HETATM   28  C20 UNL     1      26.741   6.676  48.173  1.00  0.00     0.000 A 
HETATM   29  C21 UNL     1      27.815   5.820  48.285  1.00  0.00     0.002 A 
HETATM   30  C22 UNL     1      27.632   4.609  48.920  1.00  0.00     0.029 A 
ENDBRANCH  23  25
ENDBRANCH  22  23
ENDBRANCH   9  17
BRANCH   1  31
HETATM   31  O1  UNL     1      23.018  -1.187  53.531  1.00  0.00    -0.365 OA
HETATM   32  C1  UNL     1      22.832  -1.242  54.948  1.00  0.00     0.209 C 
ENDBRANCH   1  31
TORSDOF 6
ENDMDL
MODEL 4
REMARK VINA RESULT:      -8.5      1.804      5.649
REMARK  6 active torsions:
REMARK  status: ('A' for Active; 'I' for Inactive)
REMARK    1  A    between atoms: O1_2  and  C2_3 
REMARK    2  A    between atoms: N1_9  and  C6_10 
REMARK    3  A    between atoms: C6_10  and  N2_11 
REMARK    4  A    between atoms: C12_18  and  C13_19 
REMARK    5  A    between atoms: C16_24  and  N5_25 
REMARK    6  A    between atoms: N5_25  and  C17_26 
ROOT
HETATM    1  C2  UNL     1      26.322   0.580  54.151  1.00  0.00     0.173 C 
HETATM    2  C3  UNL     1      25.170  -0.034  54.304  1.00  0.00     0.118 C 
HETATM    3  O2  UNL     1      25.068  -0.896  55.409  1.00  0.00    -0.338 OA
HETATM    4  C4  UNL     1      23.788  -1.272  55.903  1.00  0.00     0.279 C 
HETATM    5  C5  UNL     1      22.824  -1.419  54.767  1.00  0.00     0.250 C 
HETATM    6  O3  UNL     1      21.958  -2.331  54.802  1.00  0.00    -0.271 OA
HETATM    7  N1  UNL     1      22.833  -0.568  53.628  1.00  0.00    -0.286 N 
HETATM    8  C11 UNL     1      24.057   0.154  53.385  1.00  0.00     0.075 C 
HETATM    9  C12 UNL     1      24.066   0.968  52.357  1.00  0.00     0.049 C 
ENDROOT
BRANCH   7  10
HETATM   10  C6  UNL     1      21.632  -0.497  52.823  1.00  0.00     0.405 C 
BRANCH  10  11
HETATM   11  N2  UNL     1      20.509   0.102  53.482  1.00  0.00     0.110 N 
HETATM   12  C7  UNL     1      20.427   1.474  53.034  1.00  0.00     0.300 C 
HETATM   13  C8  UNL     1      19.349   1.679  52.001  1.00  0.00     0.198 C 
HETATM   14  O4  UNL     1      19.196   0.495  51.269  1.00  0.00    -0.388 OA
HETATM   15  C9  UNL     1      18.549  -0.419  52.099  1.00  0.00     0.198 C 
HETATM   16  C10 UNL     1      19.281  -0.604  53.403  1.00  0.00     0.300 C 
ENDBRANCH  10  11
ENDBRANCH   7  10
BRANCH   9  17
HETATM   17  C13 UNL     1      24.906   1.922  51.666  1.00  0.00     0.030 A 
HETATM   18  C14 UNL     1      26.256   1.653  51.616  1.00  0.00     0.133 A 
HETATM   19  N3  UNL     1      27.115   2.453  50.969  1.00  0.00    -0.253 NA
HETATM   20  C15 UNL     1      26.662   3.559  50.344  1.00  0.00     0.234 A 
HETATM   21  N4  UNL     1      25.357   3.835  50.384  1.00  0.00    -0.224 NA
HETATM   22  C16 UNL     1      24.444   3.073  51.016  1.00  0.00     0.141 A 
BRANCH  22  23
HETATM   23  N5  UNL     1      23.059   3.346  51.072  1.00  0.00    -0.340 N 
HETATM   24  H20 UNL     1      22.682   3.784  51.966  1.00  0.00     0.167 HD
BRANCH  23  25
HETATM   25  C17 UNL     1      22.044   3.127  50.103  1.00  0.00     0.033 A 
HETATM   26  C18 UNL     1      21.961   1.938  49.370  1.00  0.00     0.029 A 
HETATM   27  C19 UNL     1      20.975   1.737  48.434  1.00  0.00     0.002 A 
HETATM   28  C20 UNL     1      20.026   2.692  48.172  1.00  0.00     0.000 A 
HETATM   29  C21 UNL     1      20.072   3.878  48.872  1.00  0.00     0.002 A 
HETATM   30  C22 UNL     1      21.070   4.056  49.806  1.00  0.00     0.029 A 
ENDBRANCH  23  25
ENDBRANCH  22  23
ENDBRANCH   9  17
BRANCH   1  31
HETATM   31  O1  UNL     1      27.333   0.365  55.039  1.00  0.00    -0.365 OA
HETATM   32  C1  UNL     1      28.666   0.174  54.560  1.00  0.00     0.209 C 
ENDBRANCH   1  31
TORSDOF 6
ENDMDL
MODEL 5
REMARK VINA RESULT:      -8.3      2.021      5.207
REMARK  6 active torsions:
REMARK  status: ('A' for Active; 'I' for Inactive)
REMARK    1  A    between atoms: O1_2  and  C2_3 
REMARK    2  A    between atoms: N1_9  and  C6_10 
REMARK    3  A    between atoms: C6_10  and  N2_11 
REMARK    4  A    between atoms: C12_18  and  C13_19 
REMARK    5  A    between atoms: C16_24  and  N5_25 
REMARK    6  A    between atoms: N5_25  and  C17_26 
ROOT
HETATM    1  C2  UNL     1      26.195   3.304  49.446  1.00  0.00     0.173 C 
HETATM    2  C3  UNL     1      26.015   2.779  50.638  1.00  0.00     0.118 C 
HETATM    3  O2  UNL     1      27.174   2.568  51.404  1.00  0.00    -0.338 OA
HETATM    4  C4  UNL     1      27.076   2.411  52.814  1.00  0.00     0.279 C 
HETATM    5  C5  UNL     1      25.822   1.669  53.161  1.00  0.00     0.250 C 
HETATM    6  O3  UNL     1      25.831   0.844  54.111  1.00  0.00    -0.271 OA
HETATM    7  N1  UNL     1      24.598   1.850  52.462  1.00  0.00    -0.286 N 
HETATM    8  C11 UNL     1      24.697   2.428  51.146  1.00  0.00     0.075 C 
HETATM    9  C12 UNL     1      23.571   2.631  50.504  1.00  0.00     0.049 C 
ENDROOT
BRANCH   7  10
HETATM   10  C6  UNL     1      23.373   1.447  53.121  1.00  0.00     0.405 C 
BRANCH  10  11
HETATM   11  N2  UNL     1      22.854   0.183  52.691  1.00  0.00     0.110 N 
HETATM   12  C7  UNL     1      23.067  -0.760  53.766  1.00  0.00     0.300 C 
HETATM   13  C8  UNL     1      21.811  -1.029  54.555  1.00  0.00     0.198 C 
HETATM   14  O4  UNL     1      21.007   0.117  54.526  1.00  0.00    -0.388 OA
HETATM   15  C9  UNL     1      20.462   0.204  53.245  1.00  0.00     0.198 C 
HETATM   16  C10 UNL     1      21.529   0.185  52.182  1.00  0.00     0.300 C 
ENDBRANCH  10  11
ENDBRANCH   7  10
BRANCH   9  17
HETATM   17  C13 UNL     1      23.043   3.168  49.269  1.00  0.00     0.030 A 
HETATM   18  C14 UNL     1      22.684   2.265  48.292  1.00  0.00     0.133 A 
HETATM   19  N3  UNL     1      22.152   2.658  47.126  1.00  0.00    -0.253 NA
HETATM   20  C15 UNL     1      21.956   3.970  46.885  1.00  0.00     0.234 A 
HETATM   21  N4  UNL     1      22.299   4.858  47.821  1.00  0.00    -0.224 NA
HETATM   22  C16 UNL     1      22.837   4.529  49.011  1.00  0.00     0.141 A 
BRANCH  22  23
HETATM   23  N5  UNL     1      23.210   5.450  50.015  1.00  0.00    -0.340 N 
HETATM   24  H20 UNL     1      22.878   5.254  51.007  1.00  0.00     0.167 HD
BRANCH  23  25
HETATM   25  C17 UNL     1      23.981   6.639  49.923  1.00  0.00     0.033 A 
HETATM   26  C18 UNL     1      25.292   6.713  50.407  1.00  0.00     0.029 A 
HETATM   27  C19 UNL     1      26.028   7.870  50.313  1.00  0.00     0.002 A 
HETATM   28  C20 UNL     1      25.515   9.006  49.743  1.00  0.00     0.000 A 
HETATM   29  C21 UNL     1      24.228   8.976  49.254  1.00  0.00     0.002 A 
HETATM   30  C22 UNL     1      23.508   7.804  49.359  1.00  0.00     0.029 A 
ENDBRANCH  23  25
ENDBRANCH  22  23
ENDBRANCH   9  17
BRANCH   1  31
HETATM   31  O1  UNL     1      27.452   3.612  49.019  1.00  0.00    -0.365 OA
HETATM   32  C1  UNL     1      27.747   4.946  48.597  1.00  0.00     0.209 C 
ENDBRANCH   1  31
TORSDOF 6
ENDMDL
MODEL 6
REMARK VINA RESULT:      -8.2      2.648      5.956
REMARK  6 active torsions:
REMARK  status: ('A' for Active; 'I' for Inactive)
REMARK    1  A    between atoms: O1_2  and  C2_3 
REMARK    2  A    between atoms: N1_9  and  C6_10 
REMARK    3  A    between atoms: C6_10  and  N2_11 
REMARK    4  A    between atoms: C12_18  and  C13_19 
REMARK    5  A    between atoms: C16_24  and  N5_25 
REMARK    6  A    between atoms: N5_25  and  C17_26 
ROOT
HETATM    1  C2  UNL     1      27.143   2.045  52.065  1.00  0.00     0.173 C 
HETATM    2  C3  UNL     1      25.975   1.490  52.301  1.00  0.00     0.118 C 
HETATM    3  O2  UNL     1      25.963   0.448  53.244  1.00  0.00    -0.338 OA
HETATM    4  C4  UNL     1      24.744   0.073  53.873  1.00  0.00     0.279 C 
HETATM    5  C5  UNL     1      23.608   0.200  52.907  1.00  0.00     0.250 C 
HETATM    6  O3  UNL     1      22.675  -0.644  52.930  1.00  0.00    -0.271 OA
HETATM    7  N1  UNL     1      23.523   1.244  51.945  1.00  0.00    -0.286 N 
HETATM    8  C11 UNL     1      24.758   1.917  51.628  1.00  0.00     0.075 C 
HETATM    9  C12 UNL     1      24.687   2.904  50.767  1.00  0.00     0.049 C 
ENDROOT
BRANCH   7  10
HETATM   10  C6  UNL     1      22.225   1.541  51.376  1.00  0.00     0.405 C 
BRANCH  10  11
HETATM   11  N2  UNL     1      21.275   2.071  52.308  1.00  0.00     0.110 N 
HETATM   12  C7  UNL     1      21.268   3.508  52.150  1.00  0.00     0.300 C 
HETATM   13  C8  UNL     1      20.080   3.995  51.361  1.00  0.00     0.198 C 
HETATM   14  O4  UNL     1      19.705   2.999  50.451  1.00  0.00    -0.388 OA
HETATM   15  C9  UNL     1      19.094   1.982  51.184  1.00  0.00     0.198 C 
HETATM   16  C10 UNL     1      19.983   1.484  52.294  1.00  0.00     0.300 C 
ENDBRANCH  10  11
ENDBRANCH   7  10
BRANCH   9  17
HETATM   17  C13 UNL     1      25.498   3.911  50.118  1.00  0.00     0.030 A 
HETATM   18  C14 UNL     1      26.645   3.486  49.486  1.00  0.00     0.133 A 
HETATM   19  N3  UNL     1      27.446   4.333  48.825  1.00  0.00    -0.253 NA
HETATM   20  C15 UNL     1      27.135   5.644  48.767  1.00  0.00     0.234 A 
HETATM   21  N4  UNL     1      26.027   6.073  49.375  1.00  0.00    -0.224 NA
HETATM   22  C16 UNL     1      25.182   5.274  50.055  1.00  0.00     0.141 A 
BRANCH  22  23
HETATM   23  N5  UNL     1      24.006   5.706  50.707  1.00  0.00    -0.340 N 
HETATM   24  H20 UNL     1      23.975   5.624  51.768  1.00  0.00     0.167 HD
BRANCH  23  25
HETATM   25  C17 UNL     1      22.810   6.251  50.168  1.00  0.00     0.033 A 
HETATM   26  C18 UNL     1      22.234   5.759  48.992  1.00  0.00     0.029 A 
HETATM   27  C19 UNL     1      21.077   6.294  48.479  1.00  0.00     0.002 A 
HETATM   28  C20 UNL     1      20.431   7.337  49.094  1.00  0.00     0.000 A 
HETATM   29  C21 UNL     1      20.966   7.851  50.255  1.00  0.00     0.002 A 
HETATM   30  C22 UNL     1      22.127   7.297  50.751  1.00  0.00     0.029 A 
ENDBRANCH  23  25
ENDBRANCH  22  23
ENDBRANCH   9  17
BRANCH   1  31
HETATM   31  O1  UNL     1      28.253   1.605  52.722  1.00  0.00    -0.365 OA
HETATM   32  C1  UNL     1      28.840   2.418  53.740  1.00  0.00     0.209 C 
ENDBRANCH   1  31
TORSDOF 6
ENDMDL
MODEL 7
REMARK VINA RESULT:      -8.0      2.185      5.570
REMARK  6 active torsions:
REMARK  status: ('A' for Active; 'I' for Inactive)
REMARK    1  A    between atoms: O1_2  and  C2_3 
REMARK    2  A    between atoms: N1_9  and  C6_10 
REMARK    3  A    between atoms: C6_10  and  N2_11 
REMARK    4  A    between atoms: C12_18  and  C13_19 
REMARK    5  A    between atoms: C16_24  and  N5_25 
REMARK    6  A    between atoms: N5_25  and  C17_26 
ROOT
HETATM    1  C2  UNL     1      19.743  -0.316  52.641  1.00  0.00     0.173 C 
HETATM    2  C3  UNL     1      20.040   0.485  51.641  1.00  0.00     0.118 C 
HETATM    3  O2  UNL     1      18.974   0.847  50.800  1.00  0.00    -0.338 OA
HETATM    4  C4  UNL     1      19.081   1.999  49.973  1.00  0.00     0.279 C 
HETATM    5  C5  UNL     1      20.486   2.148  49.480  1.00  0.00     0.250 C 
HETATM    6  O3  UNL     1      20.694   2.563  48.311  1.00  0.00    -0.271 OA
HETATM    7  N1  UNL     1      21.623   1.838  50.277  1.00  0.00    -0.286 N 
HETATM    8  C11 UNL     1      21.391   0.970  51.405  1.00  0.00     0.075 C 
HETATM    9  C12 UNL     1      22.424   0.705  52.167  1.00  0.00     0.049 C 
ENDROOT
BRANCH   7  10
HETATM   10  C6  UNL     1      22.896   2.414  49.898  1.00  0.00     0.405 C 
BRANCH  10  11
HETATM   11  N2  UNL     1      23.224   3.632  50.578  1.00  0.00     0.110 N 
HETATM   12  C7  UNL     1      24.533   3.459  51.167  1.00  0.00     0.300 C 
HETATM   13  C8  UNL     1      25.616   4.146  50.374  1.00  0.00     0.198 C 
HETATM   14  O4  UNL     1      25.244   4.163  49.025  1.00  0.00    -0.388 OA
HETATM   15  C9  UNL     1      24.227   5.106  48.891  1.00  0.00     0.198 C 
HETATM   16  C10 UNL     1      23.082   4.830  49.831  1.00  0.00     0.300 C 
ENDBRANCH  10  11
ENDBRANCH   7  10
BRANCH   9  17
HETATM   17  C13 UNL     1      22.803  -0.009  53.367  1.00  0.00     0.030 A 
HETATM   18  C14 UNL     1      21.786  -0.435  54.193  1.00  0.00     0.133 A 
HETATM   19  N3  UNL     1      22.028  -1.136  55.310  1.00  0.00    -0.253 NA
HETATM   20  C15 UNL     1      23.296  -1.441  55.650  1.00  0.00     0.234 A 
HETATM   21  N4  UNL     1      24.293  -1.035  54.861  1.00  0.00    -0.224 NA
HETATM   22  C16 UNL     1      24.117  -0.330  53.727  1.00  0.00     0.141 A 
BRANCH  22  23
HETATM   23  N5  UNL     1      25.156   0.112  52.877  1.00  0.00    -0.340 N 
HETATM   24  H20 UNL     1      24.906   0.317  51.863  1.00  0.00     0.167 HD
BRANCH  23  25
HETATM   25  C17 UNL     1      26.530   0.337  53.156  1.00  0.00     0.033 A 
HETATM   26  C18 UNL     1      27.031   1.613  53.438  1.00  0.00     0.029 A 
HETATM   27  C19 UNL     1      28.364   1.819  53.705  1.00  0.00     0.002 A 
HETATM   28  C20 UNL     1      29.266   0.787  53.707  1.00  0.00     0.000 A 
HETATM   29  C21 UNL     1      28.814  -0.486  53.434  1.00  0.00     0.002 A 
HETATM   30  C22 UNL     1      27.473  -0.669  53.169  1.00  0.00     0.029 A 
ENDBRANCH  23  25
ENDBRANCH  22  23
ENDBRANCH   9  17
BRANCH   1  31
HETATM   31  O1  UNL     1      18.461  -0.743  52.816  1.00  0.00    -0.365 OA
HETATM   32  C1  UNL     1      18.214  -1.979  53.492  1.00  0.00     0.209 C 
ENDBRANCH   1  31
TORSDOF 6
ENDMDL
MODEL 8
REMARK VINA RESULT:      -7.9      2.338      6.279
REMARK  6 active torsions:
REMARK  status: ('A' for Active; 'I' for Inactive)
REMARK    1  A    between atoms: O1_2  and  C2_3 
REMARK    2  A    between atoms: N1_9  and  C6_10 
REMARK    3  A    between atoms: C6_10  and  N2_11 
REMARK    4  A    between atoms: C12_18  and  C13_19 
REMARK    5  A    between atoms: C16_24  and  N5_25 
REMARK    6  A    between atoms: N5_25  and  C17_26 
ROOT
HETATM    1  C2  UNL     1      25.846   3.939  50.005  1.00  0.00     0.173 C 
HETATM    2  C3  UNL     1      25.796   2.930  50.846  1.00  0.00     0.118 C 
HETATM    3  O2  UNL     1      26.948   2.130  50.924  1.00  0.00    -0.338 OA
HETATM    4  C4  UNL     1      27.163   1.301  52.060  1.00  0.00     0.279 C 
HETATM    5  C5  UNL     1      25.857   0.757  52.551  1.00  0.00     0.250 C 
HETATM    6  O3  UNL     1      25.802  -0.419  52.996  1.00  0.00    -0.271 OA
HETATM    7  N1  UNL     1      24.652   1.510  52.541  1.00  0.00    -0.286 N 
HETATM    8  C11 UNL     1      24.618   2.644  51.652  1.00  0.00     0.075 C 
HETATM    9  C12 UNL     1      23.524   3.367  51.659  1.00  0.00     0.049 C 
ENDROOT
BRANCH   7  10
HETATM   10  C6  UNL     1      23.577   1.085  53.414  1.00  0.00     0.405 C 
BRANCH  10  11
HETATM   11  N2  UNL     1      22.848  -0.056  52.947  1.00  0.00     0.110 N 
HETATM   12  C7  UNL     1      22.754  -0.989  54.048  1.00  0.00     0.300 C 
HETATM   13  C8  UNL     1      21.400  -0.966  54.708  1.00  0.00     0.198 C 
HETATM   14  O4  UNL     1      20.861   0.321  54.586  1.00  0.00    -0.388 OA
HETATM   15  C9  UNL     1      20.473   0.478  53.256  1.00  0.00     0.198 C 
HETATM   16  C10 UNL     1      21.610   0.205  52.306  1.00  0.00     0.300 C 
ENDBRANCH  10  11
ENDBRANCH   7  10
BRANCH   9  17
HETATM   17  C13 UNL     1      22.936   4.551  51.072  1.00  0.00     0.030 A 
HETATM   18  C14 UNL     1      23.492   5.765  51.411  1.00  0.00     0.133 A 
HETATM   19  N3  UNL     1      23.045   6.918  50.893  1.00  0.00    -0.253 NA
HETATM   20  C15 UNL     1      22.023   6.909  50.015  1.00  0.00     0.234 A 
HETATM   21  N4  UNL     1      21.472   5.741  49.677  1.00  0.00    -0.224 NA
HETATM   22  C16 UNL     1      21.874   4.550  50.159  1.00  0.00     0.141 A 
BRANCH  22  23
HETATM   23  N5  UNL     1      21.306   3.302  49.817  1.00  0.00    -0.340 N 
HETATM   24  H20 UNL     1      21.875   2.661  49.187  1.00  0.00     0.167 HD
BRANCH  23  25
HETATM   25  C17 UNL     1      20.056   2.736  50.184  1.00  0.00     0.033 A 
HETATM   26  C18 UNL     1      19.572   1.561  49.598  1.00  0.00     0.029 A 
HETATM   27  C19 UNL     1      18.361   1.023  49.962  1.00  0.00     0.002 A 
HETATM   28  C20 UNL     1      17.568   1.610  50.913  1.00  0.00     0.000 A 
HETATM   29  C21 UNL     1      18.007   2.769  51.515  1.00  0.00     0.002 A 
HETATM   30  C22 UNL     1      19.226   3.290  51.135  1.00  0.00     0.029 A 
ENDBRANCH  23  25
ENDBRANCH  22  23
ENDBRANCH   9  17
BRANCH   1  31
HETATM   31  O1  UNL     1      26.974   4.161  49.272  1.00  0.00    -0.365 OA
HETATM   32  C1  UNL     1      27.188   5.443  48.676  1.00  0.00     0.209 C 
ENDBRANCH   1  31
TORSDOF 6
ENDMDL
MODEL 9
REMARK VINA RESULT:      -7.8      5.658      9.994
REMARK  6 active torsions:
REMARK  status: ('A' for Active; 'I' for Inactive)
REMARK    1  A    between atoms: O1_2  and  C2_3 
REMARK    2  A    between atoms: N1_9  and  C6_10 
REMARK    3  A    between atoms: C6_10  and  N2_11 
REMARK    4  A    between atoms: C12_18  and  C13_19 
REMARK    5  A    between atoms: C16_24  and  N5_25 
REMARK    6  A    between atoms: N5_25  and  C17_26 
ROOT
HETATM    1  C2  UNL     1      28.460   8.531  46.193  1.00  0.00     0.173 C 
HETATM    2  C3  UNL     1      27.325   8.122  46.716  1.00  0.00     0.118 C 
HETATM    3  O2  UNL     1      26.154   8.638  46.136  1.00  0.00    -0.338 OA
HETATM    4  C4  UNL     1      24.913   7.969  46.326  1.00  0.00     0.279 C 
HETATM    5  C5  UNL     1      24.853   7.380  47.701  1.00  0.00     0.250 C 
HETATM    6  O3  UNL     1      23.764   7.384  48.331  1.00  0.00    -0.271 OA
HETATM    7  N1  UNL     1      25.981   6.805  48.347  1.00  0.00    -0.286 N 
HETATM    8  C11 UNL     1      27.272   7.192  47.834  1.00  0.00     0.075 C 
HETATM    9  C12 UNL     1      28.320   6.642  48.399  1.00  0.00     0.049 C 
ENDROOT
BRANCH   7  10
HETATM   10  C6  UNL     1      25.744   5.891  49.445  1.00  0.00     0.405 C 
BRANCH  10  11
HETATM   11  N2  UNL     1      25.517   4.533  49.051  1.00  0.00     0.110 N 
HETATM   12  C7  UNL     1      26.543   3.725  49.670  1.00  0.00     0.300 C 
HETATM   13  C8  UNL     1      26.038   2.979  50.878  1.00  0.00     0.198 C 
HETATM   14  O4  UNL     1      25.015   3.727  51.475  1.00  0.00    -0.388 OA
HETATM   15  C9  UNL     1      23.895   3.620  50.651  1.00  0.00     0.198 C 
HETATM   16  C10 UNL     1      24.201   4.035  49.235  1.00  0.00     0.300 C 
ENDBRANCH  10  11
ENDBRANCH   7  10
BRANCH   9  17
HETATM   17  C13 UNL     1      29.763   6.595  48.322  1.00  0.00     0.030 A 
HETATM   18  C14 UNL     1      30.322   5.555  47.610  1.00  0.00     0.133 A 
HETATM   19  N3  UNL     1      31.648   5.440  47.447  1.00  0.00    -0.253 NA
HETATM   20  C15 UNL     1      32.473   6.359  47.988  1.00  0.00     0.234 A 
HETATM   21  N4  UNL     1      31.948   7.371  48.681  1.00  0.00    -0.224 NA
HETATM   22  C16 UNL     1      30.628   7.544  48.881  1.00  0.00     0.141 A 
BRANCH  22  23
HETATM   23  N5  UNL     1      30.049   8.606  49.612  1.00  0.00    -0.340 N 
HETATM   24  H20 UNL     1      29.687   8.389  50.588  1.00  0.00     0.167 HD
BRANCH  23  25
HETATM   25  C17 UNL     1      29.862   9.966  49.251  1.00  0.00     0.033 A 
HETATM   26  C18 UNL     1      28.590  10.544  49.165  1.00  0.00     0.029 A 
HETATM   27  C19 UNL     1      28.420  11.862  48.814  1.00  0.00     0.002 A 
HETATM   28  C20 UNL     1      29.487  12.675  48.530  1.00  0.00     0.000 A 
HETATM   29  C21 UNL     1      30.757  12.146  48.603  1.00  0.00     0.002 A 
HETATM   30  C22 UNL     1      30.903  10.821  48.958  1.00  0.00     0.029 A 
ENDBRANCH  23  25
ENDBRANCH  22  23
ENDBRANCH   9  17
BRANCH   1  31
HETATM   31  O1  UNL     1      28.453   9.406  45.148  1.00  0.00    -0.365 OA
HETATM   32  C1  UNL     1      29.094  10.676  45.285  1.00  0.00     0.209 C 
ENDBRANCH   1  31
TORSDOF 6
ENDMDL
