MODEL 1
REMARK VINA RESULT:      -9.2      0.000      0.000
REMARK  6 active torsions:
REMARK  status: ('A' for Active; 'I' for Inactive)
REMARK    1  A    between atoms: C5_5  and  C6_6 
REMARK    2  A    between atoms: C6_6  and  C7_7 
REMARK    3  A    between atoms: C7_7  and  C8_8 
REMARK    4  A    between atoms: C8_8  and  C11_16 
REMARK    5  A    between atoms: N1_9  and  N2_10 
REMARK    6  A    between atoms: C9_12  and  O1_13 
ROOT
HETATM    1  C8  UNL     1      25.843   0.941  52.086  1.00  0.00     0.068 C 
HETATM    2  N1  UNL     1      24.606   1.020  52.293  1.00  0.00    -0.149 NA
ENDROOT
BRANCH   1   3
HETATM    3  C7  UNL     1      26.293   2.056  51.201  1.00  0.00     0.067 C 
BRANCH   3   4
HETATM    4  C6  UNL     1      25.157   2.913  50.713  1.00  0.00     0.044 C 
BRANCH   4   5
HETATM    5  C5  UNL     1      25.775   4.068  49.967  1.00  0.00    -0.058 A 
HETATM    6  C4  UNL     1      26.974   3.800  49.337  1.00  0.00     0.007 A 
HETATM    7  C3  UNL     1      27.562   4.839  48.646  1.00  0.00     0.007 A 
HETATM    8  C2  UNL     1      27.023   6.102  48.557  1.00  0.00    -0.062 A 
HETATM    9  C1  UNL     1      27.688   7.200  47.802  1.00  0.00     0.048 C 
HETATM   10  C18 UNL     1      25.830   6.287  49.211  1.00  0.00     0.007 A 
HETATM   11  C17 UNL     1      25.171   5.301  49.927  1.00  0.00     0.007 A 
ENDBRANCH   4   5
ENDBRANCH   3   4
ENDBRANCH   1   3
BRANCH   1  12
HETATM   12  C11 UNL     1      26.798  -0.057  52.519  1.00  0.00    -0.010 A 
HETATM   13  C12 UNL     1      27.946   0.196  53.206  1.00  0.00     0.016 A 
HETATM   14  C13 UNL     1      28.873  -0.729  53.593  1.00  0.00     0.043 A 
HETATM   15  C14 UNL     1      28.668  -2.058  53.278  1.00  0.00     0.116 A 
HETATM   16  F1  UNL     1      29.567  -2.999  53.646  1.00  0.00    -0.206 F 
HETATM   17  C15 UNL     1      27.508  -2.368  52.575  1.00  0.00     0.043 A 
HETATM   18  C16 UNL     1      26.622  -1.372  52.221  1.00  0.00     0.016 A 
ENDBRANCH   1  12
BRANCH   2  19
HETATM   19  N2  UNL     1      23.755   0.226  53.034  1.00  0.00    -0.138 N 
HETATM   20  N3  UNL     1      24.008  -0.455  54.244  1.00  0.00    -0.250 N 
HETATM   21  C9  UNL     1      22.943  -1.185  54.781  1.00  0.00     0.164 A 
HETATM   22  H10 UNL     1      24.958  -0.382  54.670  1.00  0.00     0.192 HD
HETATM   23  C10 UNL     1      21.803  -1.171  54.108  1.00  0.00     0.128 A 
HETATM   24  S1  UNL     1      22.046  -0.140  52.636  1.00  0.00     0.024 SA
BRANCH  21  25
HETATM   25  O1  UNL     1      23.012  -1.915  55.961  1.00  0.00    -0.345 OA
HETATM   26  H11 UNL     1      22.988  -1.357  56.818  1.00  0.00     0.219 HD
ENDBRANCH  21  25
ENDBRANCH   2  19
TORSDOF 6
ENDMDL
MODEL 2
REMARK VINA RESULT:      -9.0      1.424      1.821
REMARK  6 active torsions:
REMARK  status: ('A' for Active; 'I' for Inactive)
REMARK    1  A    between atoms: C5_5  and  C6_6 
REMARK    2  A    between atoms: C6_6  and  C7_7 
REMARK    3  A    between atoms: C7_7  and  C8_8 
REMARK    4  A    between atoms: C8_8  and  C11_16 
REMARK    5  A    between atoms: N1_9  and  N2_10 
REMARK    6  A    between atoms: C9_12  and  O1_13 
ROOT
HETATM    1  C8  UNL     1      23.903   2.173  52.381  1.00  0.00     0.068 C 
HETATM    2  N1  UNL     1      22.760   1.724  52.648  1.00  0.00    -0.149 NA
ENDROOT
BRANCH   1   3
HETATM    3  C7  UNL     1      23.793   3.431  51.584  1.00  0.00     0.067 C 
BRANCH   3   4
HETATM    4  C6  UNL     1      23.864   3.194  50.100  1.00  0.00     0.044 C 
BRANCH   4   5
HETATM    5  C5  UNL     1      24.991   4.048  49.578  1.00  0.00    -0.058 A 
HETATM    6  C4  UNL     1      26.232   3.444  49.543  1.00  0.00     0.007 A 
HETATM    7  C3  UNL     1      27.281   4.203  49.069  1.00  0.00     0.007 A 
HETATM    8  C2  UNL     1      27.154   5.504  48.640  1.00  0.00    -0.062 A 
HETATM    9  C1  UNL     1      28.312   6.293  48.135  1.00  0.00     0.048 C 
HETATM   10  C18 UNL     1      25.888   6.031  48.707  1.00  0.00     0.007 A 
HETATM   11  C17 UNL     1      24.778   5.342  49.168  1.00  0.00     0.007 A 
ENDBRANCH   4   5
ENDBRANCH   3   4
ENDBRANCH   1   3
BRANCH   1  12
HETATM   12  C11 UNL     1      25.211   1.628  52.679  1.00  0.00    -0.010 A 
HETATM   13  C12 UNL     1      26.077   2.122  53.605  1.00  0.00     0.016 A 
HETATM   14  C13 UNL     1      27.326   1.640  53.876  1.00  0.00     0.043 A 
HETATM   15  C14 UNL     1      27.795   0.552  53.165  1.00  0.00     0.116 A 
HETATM   16  F1  UNL     1      29.028   0.051  53.408  1.00  0.00    -0.206 F 
HETATM   17  C15 UNL     1      26.945   0.012  52.205  1.00  0.00     0.043 A 
HETATM   18  C16 UNL     1      25.697   0.560  51.994  1.00  0.00     0.016 A 
ENDBRANCH   1  12
BRANCH   2  19
HETATM   19  N2  UNL     1      22.363   0.604  53.349  1.00  0.00    -0.138 N 
HETATM   20  N3  UNL     1      23.070  -0.124  54.329  1.00  0.00    -0.250 N 
HETATM   21  C9  UNL     1      22.410  -1.225  54.884  1.00  0.00     0.164 A 
HETATM   22  H10 UNL     1      24.033   0.188  54.587  1.00  0.00     0.192 HD
HETATM   23  C10 UNL     1      21.188  -1.480  54.441  1.00  0.00     0.128 A 
HETATM   24  S1  UNL     1      20.784  -0.230  53.191  1.00  0.00     0.024 SA
BRANCH  21  25
HETATM   25  O1  UNL     1      22.952  -2.053  55.859  1.00  0.00    -0.345 OA
HETATM   26  H11 UNL     1      23.188  -1.589  56.740  1.00  0.00     0.219 HD
ENDBRANCH  21  25
ENDBRANCH   2  19
TORSDOF 6
ENDMDL
MODEL 3
REMARK VINA RESULT:      -9.0      2.854      4.224
REMARK  6 active torsions:
REMARK  status: ('A' for Active; 'I' for Inactive)
REMARK    1  A    between atoms: C5_5  and  C6_6 
REMARK    2  A    between atoms: C6_6  and  C7_7 
REMARK    3  A    between atoms: C7_7  and  C8_8 
REMARK    4  A    between atoms: C8_8  and  C11_16 
REMARK    5  A    between atoms: N1_9  and  N2_10 
REMARK    6  A    between atoms: C9_12  and  O1_13 
ROOT
HETATM    1  C8  UNL     1      24.837   1.442  52.237  1.00  0.00     0.068 C 
HETATM    2  N1  UNL     1      26.086   1.337  52.145  1.00  0.00    -0.149 NA
ENDROOT
BRANCH   1   3
HETATM    3  C7  UNL     1      24.375   2.715  51.610  1.00  0.00     0.067 C 
BRANCH   3   4
HETATM    4  C6  UNL     1      24.316   2.642  50.108  1.00  0.00     0.044 C 
BRANCH   4   5
HETATM    5  C5  UNL     1      25.177   3.763  49.585  1.00  0.00    -0.058 A 
HETATM    6  C4  UNL     1      26.520   3.473  49.449  1.00  0.00     0.007 A 
HETATM    7  C3  UNL     1      27.331   4.481  48.971  1.00  0.00     0.007 A 
HETATM    8  C2  UNL     1      26.877   5.734  48.633  1.00  0.00    -0.062 A 
HETATM    9  C1  UNL     1      27.785   6.799  48.121  1.00  0.00     0.048 C 
HETATM   10  C18 UNL     1      25.530   5.943  48.797  1.00  0.00     0.007 A 
HETATM   11  C17 UNL     1      24.643   4.989  49.269  1.00  0.00     0.007 A 
ENDBRANCH   4   5
ENDBRANCH   3   4
ENDBRANCH   1   3
BRANCH   1  12
HETATM   12  C11 UNL     1      23.874   0.574  52.883  1.00  0.00    -0.010 A 
HETATM   13  C12 UNL     1      24.105  -0.162  54.004  1.00  0.00     0.016 A 
HETATM   14  C13 UNL     1      23.220  -1.010  54.606  1.00  0.00     0.043 A 
HETATM   15  C14 UNL     1      21.961  -1.166  54.060  1.00  0.00     0.116 A 
HETATM   16  F1  UNL     1      21.061  -1.999  54.632  1.00  0.00    -0.206 F 
HETATM   17  C15 UNL     1      21.677  -0.434  52.912  1.00  0.00     0.043 A 
HETATM   18  C16 UNL     1      22.629   0.401  52.365  1.00  0.00     0.016 A 
ENDBRANCH   1  12
BRANCH   2  19
HETATM   19  N2  UNL     1      26.950   0.351  52.572  1.00  0.00    -0.138 N 
HETATM   20  N3  UNL     1      26.909  -1.036  52.313  1.00  0.00    -0.250 N 
HETATM   21  C9  UNL     1      27.934  -1.805  52.875  1.00  0.00     0.164 A 
HETATM   22  H10 UNL     1      26.133  -1.412  51.726  1.00  0.00     0.192 HD
HETATM   23  C10 UNL     1      28.842  -1.164  53.595  1.00  0.00     0.128 A 
HETATM   24  S1  UNL     1      28.403   0.596  53.594  1.00  0.00     0.024 SA
BRANCH  21  25
HETATM   25  O1  UNL     1      28.052  -3.181  52.724  1.00  0.00    -0.345 OA
HETATM   26  H11 UNL     1      28.708  -3.482  51.999  1.00  0.00     0.219 HD
ENDBRANCH  21  25
ENDBRANCH   2  19
TORSDOF 6
ENDMDL
MODEL 4
REMARK VINA RESULT:      -8.7      3.744      7.256
REMARK  6 active torsions:
REMARK  status: ('A' for Active; 'I' for Inactive)
REMARK    1  A    between atoms: C5_5  and  C6_6 
REMARK    2  A    between atoms: C6_6  and  C7_7 
REMARK    3  A    between atoms: C7_7  and  C8_8 
REMARK    4  A    between atoms: C8_8  and  C11_16 
REMARK    5  A    between atoms: N1_9  and  N2_10 
REMARK    6  A    between atoms: C9_12  and  O1_13 
ROOT
HETATM    1  C8  UNL     1      24.718   1.787  52.688  1.00  0.00     0.068 C 
HETATM    2  N1  UNL     1      25.421   1.129  53.495  1.00  0.00    -0.149 NA
ENDROOT
BRANCH   1   3
HETATM    3  C7  UNL     1      23.270   1.502  52.911  1.00  0.00     0.067 C 
BRANCH   3   4
HETATM    4  C6  UNL     1      22.947   0.033  52.871  1.00  0.00     0.044 C 
BRANCH   4   5
HETATM    5  C5  UNL     1      21.460  -0.079  52.651  1.00  0.00    -0.058 A 
HETATM    6  C4  UNL     1      20.996   0.403  51.444  1.00  0.00     0.007 A 
HETATM    7  C3  UNL     1      19.638   0.313  51.217  1.00  0.00     0.007 A 
HETATM    8  C2  UNL     1      18.745  -0.220  52.116  1.00  0.00    -0.062 A 
HETATM    9  C1  UNL     1      17.284  -0.300  51.835  1.00  0.00     0.048 C 
HETATM   10  C18 UNL     1      19.285  -0.677  53.293  1.00  0.00     0.007 A 
HETATM   11  C17 UNL     1      20.634  -0.627  53.603  1.00  0.00     0.007 A 
ENDBRANCH   4   5
ENDBRANCH   3   4
ENDBRANCH   1   3
BRANCH   1  12
HETATM   12  C11 UNL     1      25.115   2.672  51.613  1.00  0.00    -0.010 A 
HETATM   13  C12 UNL     1      26.186   2.484  50.794  1.00  0.00     0.016 A 
HETATM   14  C13 UNL     1      26.593   3.324  49.797  1.00  0.00     0.043 A 
HETATM   15  C14 UNL     1      25.881   4.485  49.564  1.00  0.00     0.116 A 
HETATM   16  F1  UNL     1      26.258   5.339  48.584  1.00  0.00    -0.206 F 
HETATM   17  C15 UNL     1      24.777   4.722  50.377  1.00  0.00     0.043 A 
HETATM   18  C16 UNL     1      24.433   3.821  51.363  1.00  0.00     0.016 A 
ENDBRANCH   1  12
BRANCH   2  19
HETATM   19  N2  UNL     1      26.788   1.064  53.668  1.00  0.00    -0.138 N 
HETATM   20  N3  UNL     1      27.657   2.021  54.236  1.00  0.00    -0.250 N 
HETATM   21  C9  UNL     1      29.011   1.679  54.289  1.00  0.00     0.164 A 
HETATM   22  H10 UNL     1      27.252   2.920  54.582  1.00  0.00     0.192 HD
HETATM   23  C10 UNL     1      29.353   0.495  53.804  1.00  0.00     0.128 A 
HETATM   24  S1  UNL     1      27.842  -0.311  53.206  1.00  0.00     0.024 SA
BRANCH  21  25
HETATM   25  O1  UNL     1      30.005   2.496  54.813  1.00  0.00    -0.345 OA
HETATM   26  H11 UNL     1      30.801   2.002  55.225  1.00  0.00     0.219 HD
ENDBRANCH  21  25
ENDBRANCH   2  19
TORSDOF 6
ENDMDL
MODEL 5
REMARK VINA RESULT:      -8.5      4.205      7.381
REMARK  6 active torsions:
REMARK  status: ('A' for Active; 'I' for Inactive)
REMARK    1  A    between atoms: C5_5  and  C6_6 
REMARK    2  A    between atoms: C6_6  and  C7_7 
REMARK    3  A    between atoms: C7_7  and  C8_8 
REMARK    4  A    between atoms: C8_8  and  C11_16 
REMARK    5  A    between atoms: N1_9  and  N2_10 
REMARK    6  A    between atoms: C9_12  and  O1_13 
ROOT
HETATM    1  C8  UNL     1      23.385   4.197  51.584  1.00  0.00     0.068 C 
HETATM    2  N1  UNL     1      23.402   5.317  51.015  1.00  0.00    -0.149 NA
ENDROOT
BRANCH   1   3
HETATM    3  C7  UNL     1      21.989   3.826  51.959  1.00  0.00     0.067 C 
BRANCH   3   4
HETATM    4  C6  UNL     1      21.484   2.616  51.221  1.00  0.00     0.044 C 
BRANCH   4   5
HETATM    5  C5  UNL     1      21.506   1.470  52.200  1.00  0.00    -0.058 A 
HETATM    6  C4  UNL     1      22.403   0.460  51.917  1.00  0.00     0.007 A 
HETATM    7  C3  UNL     1      22.445  -0.601  52.798  1.00  0.00     0.007 A 
HETATM    8  C2  UNL     1      21.653  -0.700  53.918  1.00  0.00    -0.062 A 
HETATM    9  C1  UNL     1      21.726  -1.863  54.845  1.00  0.00     0.048 C 
HETATM   10  C18 UNL     1      20.788   0.346  54.128  1.00  0.00     0.007 A 
HETATM   11  C17 UNL     1      20.680   1.449  53.298  1.00  0.00     0.007 A 
ENDBRANCH   4   5
ENDBRANCH   3   4
ENDBRANCH   1   3
BRANCH   1  12
HETATM   12  C11 UNL     1      24.478   3.320  51.947  1.00  0.00    -0.010 A 
HETATM   13  C12 UNL     1      25.333   2.723  51.071  1.00  0.00     0.016 A 
HETATM   14  C13 UNL     1      26.348   1.869  51.393  1.00  0.00     0.043 A 
HETATM   15  C14 UNL     1      26.563   1.551  52.720  1.00  0.00     0.116 A 
HETATM   16  F1  UNL     1      27.560   0.707  53.073  1.00  0.00    -0.206 F 
HETATM   17  C15 UNL     1      25.714   2.136  53.654  1.00  0.00     0.043 A 
HETATM   18  C16 UNL     1      24.712   2.990  53.244  1.00  0.00     0.016 A 
ENDBRANCH   1  12
BRANCH   2  19
HETATM   19  N2  UNL     1      24.443   6.060  50.500  1.00  0.00    -0.138 N 
HETATM   20  N3  UNL     1      25.124   7.153  51.079  1.00  0.00    -0.250 N 
HETATM   21  C9  UNL     1      26.158   7.714  50.323  1.00  0.00     0.164 A 
HETATM   22  H10 UNL     1      24.827   7.482  52.024  1.00  0.00     0.192 HD
HETATM   23  C10 UNL     1      26.402   7.171  49.140  1.00  0.00     0.128 A 
HETATM   24  S1  UNL     1      25.231   5.806  48.909  1.00  0.00     0.024 SA
BRANCH  21  25
HETATM   25  O1  UNL     1      26.932   8.792  50.734  1.00  0.00    -0.345 OA
HETATM   26  H11 UNL     1      27.943   8.652  50.659  1.00  0.00     0.219 HD
ENDBRANCH  21  25
ENDBRANCH   2  19
TORSDOF 6
ENDMDL
MODEL 6
REMARK VINA RESULT:      -8.2      3.976      6.743
REMARK  6 active torsions:
REMARK  status: ('A' for Active; 'I' for Inactive)
REMARK    1  A    between atoms: C5_5  and  C6_6 
REMARK    2  A    between atoms: C6_6  and  C7_7 
REMARK    3  A    between atoms: C7_7  and  C8_8 
REMARK    4  A    between atoms: C8_8  and  C11_16 
REMARK    5  A    between atoms: N1_9  and  N2_10 
REMARK    6  A    between atoms: C9_12  and  O1_13 
ROOT
HETATM    1  C8  UNL     1      23.850   3.034  51.449  1.00  0.00     0.068 C 
HETATM    2  N1  UNL     1      22.655   2.741  51.192  1.00  0.00    -0.149 NA
ENDROOT
BRANCH   1   3
HETATM    3  C7  UNL     1      24.185   2.657  52.854  1.00  0.00     0.067 C 
BRANCH   3   4
HETATM    4  C6  UNL     1      24.253   1.169  53.063  1.00  0.00     0.044 C 
BRANCH   4   5
HETATM    5  C5  UNL     1      25.711   0.816  53.204  1.00  0.00    -0.058 A 
HETATM    6  C4  UNL     1      26.060  -0.459  52.805  1.00  0.00     0.007 A 
HETATM    7  C3  UNL     1      27.389  -0.808  52.923  1.00  0.00     0.007 A 
HETATM    8  C2  UNL     1      28.362   0.034  53.409  1.00  0.00    -0.062 A 
HETATM    9  C1  UNL     1      29.789  -0.380  53.522  1.00  0.00     0.048 C 
HETATM   10  C18 UNL     1      27.934   1.283  53.785  1.00  0.00     0.007 A 
HETATM   11  C17 UNL     1      26.622   1.718  53.700  1.00  0.00     0.007 A 
ENDBRANCH   4   5
ENDBRANCH   3   4
ENDBRANCH   1   3
BRANCH   1  12
HETATM   12  C11 UNL     1      24.844   3.696  50.631  1.00  0.00    -0.010 A 
HETATM   13  C12 UNL     1      24.793   4.994  50.226  1.00  0.00     0.016 A 
HETATM   14  C13 UNL     1      25.704   5.625  49.428  1.00  0.00     0.043 A 
HETATM   15  C14 UNL     1      26.795   4.916  48.965  1.00  0.00     0.116 A 
HETATM   16  F1  UNL     1      27.717   5.511  48.172  1.00  0.00    -0.206 F 
HETATM   17  C15 UNL     1      26.892   3.583  49.351  1.00  0.00     0.043 A 
HETATM   18  C16 UNL     1      25.926   3.021  50.160  1.00  0.00     0.016 A 
ENDBRANCH   1  12
BRANCH   2  19
HETATM   19  N2  UNL     1      21.907   2.898  50.043  1.00  0.00    -0.138 N 
HETATM   20  N3  UNL     1      21.184   4.028  49.604  1.00  0.00    -0.250 N 
HETATM   21  C9  UNL     1      20.518   3.904  48.381  1.00  0.00     0.164 A 
HETATM   22  H10 UNL     1      21.182   4.884  50.203  1.00  0.00     0.192 HD
HETATM   23  C10 UNL     1      20.626   2.745  47.751  1.00  0.00     0.128 A 
HETATM   24  S1  UNL     1      21.669   1.662  48.767  1.00  0.00     0.024 SA
BRANCH  21  25
HETATM   25  O1  UNL     1      19.760   4.912  47.798  1.00  0.00    -0.345 OA
HETATM   26  H11 UNL     1      18.755   4.863  47.987  1.00  0.00     0.219 HD
ENDBRANCH  21  25
ENDBRANCH   2  19
TORSDOF 6
ENDMDL
MODEL 7
REMARK VINA RESULT:      -8.0      3.490      5.007
REMARK  6 active torsions:
REMARK  status: ('A' for Active; 'I' for Inactive)
REMARK    1  A    between atoms: C5_5  and  C6_6 
REMARK    2  A    between atoms: C6_6  and  C7_7 
REMARK    3  A    between atoms: C7_7  and  C8_8 
REMARK    4  A    between atoms: C8_8  and  C11_16 
REMARK    5  A    between atoms: N1_9  and  N2_10 
REMARK    6  A    between atoms: C9_12  and  O1_13 
ROOT
HETATM    1  C8  UNL     1      24.577   1.587  52.083  1.00  0.00     0.068 C 
HETATM    2  N1  UNL     1      25.829   1.501  52.020  1.00  0.00    -0.149 NA
ENDROOT
BRANCH   1   3
HETATM    3  C7  UNL     1      24.111   2.853  51.443  1.00  0.00     0.067 C 
BRANCH   3   4
HETATM    4  C6  UNL     1      24.855   3.179  50.176  1.00  0.00     0.044 C 
BRANCH   4   5
HETATM    5  C5  UNL     1      23.815   3.480  49.128  1.00  0.00    -0.058 A 
HETATM    6  C4  UNL     1      23.057   2.404  48.711  1.00  0.00     0.007 A 
HETATM    7  C3  UNL     1      22.097   2.652  47.752  1.00  0.00     0.007 A 
HETATM    8  C2  UNL     1      21.865   3.891  47.202  1.00  0.00    -0.062 A 
HETATM    9  C1  UNL     1      20.818   4.119  46.167  1.00  0.00     0.048 C 
HETATM   10  C18 UNL     1      22.660   4.908  47.670  1.00  0.00     0.007 A 
HETATM   11  C17 UNL     1      23.646   4.750  48.630  1.00  0.00     0.007 A 
ENDBRANCH   4   5
ENDBRANCH   3   4
ENDBRANCH   1   3
BRANCH   1  12
HETATM   12  C11 UNL     1      23.613   0.706  52.707  1.00  0.00    -0.010 A 
HETATM   13  C12 UNL     1      23.838  -0.044  53.820  1.00  0.00     0.016 A 
HETATM   14  C13 UNL     1      22.952  -0.904  54.403  1.00  0.00     0.043 A 
HETATM   15  C14 UNL     1      21.699  -1.060  53.842  1.00  0.00     0.116 A 
HETATM   16  F1  UNL     1      20.797  -1.905  54.395  1.00  0.00    -0.206 F 
HETATM   17  C15 UNL     1      21.421  -0.314  52.701  1.00  0.00     0.043 A 
HETATM   18  C16 UNL     1      22.374   0.533  52.176  1.00  0.00     0.016 A 
ENDBRANCH   1  12
BRANCH   2  19
HETATM   19  N2  UNL     1      26.698   0.528  52.468  1.00  0.00    -0.138 N 
HETATM   20  N3  UNL     1      26.661  -0.865  52.243  1.00  0.00    -0.250 N 
HETATM   21  C9  UNL     1      27.690  -1.616  52.820  1.00  0.00     0.164 A 
HETATM   22  H10 UNL     1      25.883  -1.258  51.669  1.00  0.00     0.192 HD
HETATM   23  C10 UNL     1      28.599  -0.954  53.520  1.00  0.00     0.128 A 
HETATM   24  S1  UNL     1      28.155   0.804  53.477  1.00  0.00     0.024 SA
BRANCH  21  25
HETATM   25  O1  UNL     1      27.812  -2.995  52.704  1.00  0.00    -0.345 OA
HETATM   26  H11 UNL     1      27.123  -3.441  52.093  1.00  0.00     0.219 HD
ENDBRANCH  21  25
ENDBRANCH   2  19
TORSDOF 6
ENDMDL
MODEL 8
REMARK VINA RESULT:      -8.0      3.793      6.539
REMARK  6 active torsions:
REMARK  status: ('A' for Active; 'I' for Inactive)
REMARK    1  A    between atoms: C5_5  and  C6_6 
REMARK    2  A    between atoms: C6_6  and  C7_7 
REMARK    3  A    between atoms: C7_7  and  C8_8 
REMARK    4  A    between atoms: C8_8  and  C11_16 
REMARK    5  A    between atoms: N1_9  and  N2_10 
REMARK    6  A    between atoms: C9_12  and  O1_13 
ROOT
HETATM    1  C8  UNL     1      22.577   0.472  52.116  1.00  0.00     0.068 C 
HETATM    2  N1  UNL     1      21.395   0.257  52.486  1.00  0.00    -0.149 NA
ENDROOT
BRANCH   1   3
HETATM    3  C7  UNL     1      23.507  -0.501  52.760  1.00  0.00     0.067 C 
BRANCH   3   4
HETATM    4  C6  UNL     1      24.071  -0.002  54.063  1.00  0.00     0.044 C 
BRANCH   4   5
HETATM    5  C5  UNL     1      25.568  -0.156  53.976  1.00  0.00    -0.058 A 
HETATM    6  C4  UNL     1      26.036  -0.821  52.861  1.00  0.00     0.007 A 
HETATM    7  C3  UNL     1      27.403  -0.975  52.755  1.00  0.00     0.007 A 
HETATM    8  C2  UNL     1      28.301  -0.511  53.687  1.00  0.00    -0.062 A 
HETATM    9  C1  UNL     1      29.771  -0.698  53.539  1.00  0.00     0.048 C 
HETATM   10  C18 UNL     1      27.755   0.139  54.767  1.00  0.00     0.007 A 
HETATM   11  C17 UNL     1      26.397   0.339  54.953  1.00  0.00     0.007 A 
ENDBRANCH   4   5
ENDBRANCH   3   4
ENDBRANCH   1   3
BRANCH   1  12
HETATM   12  C11 UNL     1      23.110   1.508  51.257  1.00  0.00    -0.010 A 
HETATM   13  C12 UNL     1      22.654   1.809  50.010  1.00  0.00     0.016 A 
HETATM   14  C13 UNL     1      23.165   2.760  49.174  1.00  0.00     0.043 A 
HETATM   15  C14 UNL     1      24.248   3.509  49.591  1.00  0.00     0.116 A 
HETATM   16  F1  UNL     1      24.779   4.459  48.787  1.00  0.00    -0.206 F 
HETATM   17  C15 UNL     1      24.751   3.239  50.860  1.00  0.00     0.043 A 
HETATM   18  C16 UNL     1      24.175   2.259  51.642  1.00  0.00     0.016 A 
ENDBRANCH   1  12
BRANCH   2  19
HETATM   19  N2  UNL     1      20.212   0.888  52.164  1.00  0.00    -0.138 N 
HETATM   20  N3  UNL     1      19.875   2.254  52.283  1.00  0.00    -0.250 N 
HETATM   21  C9  UNL     1      18.591   2.617  51.866  1.00  0.00     0.164 A 
HETATM   22  H10 UNL     1      20.587   2.912  52.670  1.00  0.00     0.192 HD
HETATM   23  C10 UNL     1      17.813   1.651  51.400  1.00  0.00     0.128 A 
HETATM   24  S1  UNL     1      18.755   0.103  51.474  1.00  0.00     0.024 SA
BRANCH  21  25
HETATM   25  O1  UNL     1      18.090   3.912  51.912  1.00  0.00    -0.345 OA
HETATM   26  H11 UNL     1      17.160   4.032  51.500  1.00  0.00     0.219 HD
ENDBRANCH  21  25
ENDBRANCH   2  19
TORSDOF 6
ENDMDL
MODEL 9
REMARK VINA RESULT:      -8.0      3.677      7.438
REMARK  6 active torsions:
REMARK  status: ('A' for Active; 'I' for Inactive)
REMARK    1  A    between atoms: C5_5  and  C6_6 
REMARK    2  A    between atoms: C6_6  and  C7_7 
REMARK    3  A    between atoms: C7_7  and  C8_8 
REMARK    4  A    between atoms: C8_8  and  C11_16 
REMARK    5  A    between atoms: N1_9  and  N2_10 
REMARK    6  A    between atoms: C9_12  and  O1_13 
ROOT
HETATM    1  C8  UNL     1      23.020   1.277  51.908  1.00  0.00     0.068 C 
HETATM    2  N1  UNL     1      22.491   2.355  51.537  1.00  0.00    -0.149 NA
ENDROOT
BRANCH   1   3
HETATM    3  C7  UNL     1      21.977   0.226  52.101  1.00  0.00     0.067 C 
BRANCH   3   4
HETATM    4  C6  UNL     1      21.135   0.452  53.327  1.00  0.00     0.044 C 
BRANCH   4   5
HETATM    5  C5  UNL     1      19.781  -0.143  53.039  1.00  0.00    -0.058 A 
HETATM    6  C4  UNL     1      19.069   0.455  52.019  1.00  0.00     0.007 A 
HETATM    7  C3  UNL     1      17.826  -0.071  51.733  1.00  0.00     0.007 A 
HETATM    8  C2  UNL     1      17.274  -1.138  52.402  1.00  0.00    -0.062 A 
HETATM    9  C1  UNL     1      15.926  -1.678  52.066  1.00  0.00     0.048 C 
HETATM   10  C18 UNL     1      18.044  -1.676  53.403  1.00  0.00     0.007 A 
HETATM   11  C17 UNL     1      19.301  -1.213  53.756  1.00  0.00     0.007 A 
ENDBRANCH   4   5
ENDBRANCH   3   4
ENDBRANCH   1   3
BRANCH   1  12
HETATM   12  C11 UNL     1      24.404   0.973  52.206  1.00  0.00    -0.010 A 
HETATM   13  C12 UNL     1      25.483   1.581  51.641  1.00  0.00     0.016 A 
HETATM   14  C13 UNL     1      26.793   1.285  51.886  1.00  0.00     0.043 A 
HETATM   15  C14 UNL     1      27.098   0.280  52.783  1.00  0.00     0.116 A 
HETATM   16  F1  UNL     1      28.386  -0.038  53.048  1.00  0.00    -0.206 F 
HETATM   17  C15 UNL     1      26.028  -0.373  53.387  1.00  0.00     0.043 A 
HETATM   18  C16 UNL     1      24.732  -0.012  53.083  1.00  0.00     0.016 A 
ENDBRANCH   1  12
BRANCH   2  19
HETATM   19  N2  UNL     1      23.041   3.584  51.240  1.00  0.00    -0.138 N 
HETATM   20  N3  UNL     1      23.401   4.629  52.118  1.00  0.00    -0.250 N 
HETATM   21  C9  UNL     1      23.953   5.772  51.531  1.00  0.00     0.164 A 
HETATM   22  H10 UNL     1      23.241   4.500  53.141  1.00  0.00     0.192 HD
HETATM   23  C10 UNL     1      24.087   5.768  50.214  1.00  0.00     0.128 A 
HETATM   24  S1  UNL     1      23.465   4.178  49.602  1.00  0.00     0.024 SA
BRANCH  21  25
HETATM   25  O1  UNL     1      24.364   6.895  52.239  1.00  0.00    -0.345 OA
HETATM   26  H11 UNL     1      23.837   7.083  53.096  1.00  0.00     0.219 HD
ENDBRANCH  21  25
ENDBRANCH   2  19
TORSDOF 6
ENDMDL
