MODEL 1
REMARK VINA RESULT:      -8.6      0.000      0.000
REMARK  6 active torsions:
REMARK  status: ('A' for Active; 'I' for Inactive)
REMARK    1  A    between atoms: N1_1  and  C1_2 
REMARK    2  A    between atoms: N2_8  and  C6_9 
REMARK    3  A    between atoms: C11_15  and  C12_16 
REMARK    4  A    between atoms: C12_16  and  C13_18 
REMARK    5  A    between atoms: C13_18  and  O2_19 
REMARK    6  A    between atoms: O2_19  and  C14_20 
ROOT
HETATM    1  C6  UNL     1      22.121   3.179  52.399  1.00  0.00     0.162 A 
HETATM    2  C7  UNL     1      20.643   3.184  52.293  1.00  0.00     0.120 A 
HETATM    3  N3  UNL     1      20.124   2.003  52.531  1.00  0.00    -0.262 NA
HETATM    4  C8  UNL     1      21.178   1.089  52.818  1.00  0.00     0.065 A 
HETATM    5  C9  UNL     1      21.162  -0.254  53.129  1.00  0.00     0.033 A 
HETATM    6  C10 UNL     1      22.386  -0.844  53.352  1.00  0.00     0.017 A 
HETATM    7  C11 UNL     1      23.601  -0.207  53.289  1.00  0.00     0.013 A 
HETATM    8  C20 UNL     1      23.579   1.133  52.977  1.00  0.00     0.027 A 
HETATM    9  C21 UNL     1      22.381   1.765  52.746  1.00  0.00    -0.001 A 
ENDROOT
BRANCH   1  10
HETATM   10  N2  UNL     1      22.801   3.675  51.257  1.00  0.00    -0.343 N 
HETATM   11  C1  UNL     1      24.043   4.408  51.397  1.00  0.00     0.343 A 
HETATM   12  C2  UNL     1      24.587   4.837  50.083  1.00  0.00     0.030 A 
HETATM   13  C3  UNL     1      24.081   4.625  48.902  1.00  0.00     0.020 A 
HETATM   14  C4  UNL     1      22.830   3.879  48.858  1.00  0.00     0.026 A 
HETATM   15 BR1  UNL     1      22.031   3.531  47.161  1.00  0.00    -0.050 Br
HETATM   16  C5  UNL     1      22.257   3.449  49.962  1.00  0.00     0.108 A 
BRANCH  11  17
HETATM   17  N1  UNL     1      23.898   5.614  52.193  1.00  0.00     0.105 N 
HETATM   18  H1  UNL     1      23.335   5.410  53.028  1.00  0.00     0.315 HD
HETATM   19  H2  UNL     1      23.419   6.316  51.614  1.00  0.00     0.315 HD
ENDBRANCH  11  17
ENDBRANCH   1  10
BRANCH   7  20
HETATM   20  C12 UNL     1      24.909  -0.803  53.520  1.00  0.00     0.183 C 
HETATM   21  O1  UNL     1      25.316  -1.049  54.709  1.00  0.00    -0.290 OA
BRANCH  20  22
HETATM   22  C13 UNL     1      26.007  -1.246  52.646  1.00  0.00     0.259 C 
BRANCH  22  23
HETATM   23  O2  UNL     1      26.679  -0.166  52.040  1.00  0.00    -0.344 OA
BRANCH  23  24
HETATM   24  C14 UNL     1      27.563   0.606  52.751  1.00  0.00     0.069 A 
HETATM   25  C15 UNL     1      27.636   1.974  52.845  1.00  0.00     0.037 A 
HETATM   26  C16 UNL     1      28.600   2.587  53.615  1.00  0.00     0.003 A 
HETATM   27  C17 UNL     1      29.528   1.822  54.319  1.00  0.00     0.000 A 
HETATM   28  C18 UNL     1      29.481   0.431  54.246  1.00  0.00     0.003 A 
HETATM   29  C19 UNL     1      28.494  -0.149  53.459  1.00  0.00     0.037 A 
ENDBRANCH  23  24
ENDBRANCH  22  23
ENDBRANCH  20  22
ENDBRANCH   7  20
TORSDOF 6
ENDMDL
MODEL 2
REMARK VINA RESULT:      -8.1      1.452      2.335
REMARK  6 active torsions:
REMARK  status: ('A' for Active; 'I' for Inactive)
REMARK    1  A    between atoms: N1_1  and  C1_2 
REMARK    2  A    between atoms: N2_8  and  C6_9 
REMARK    3  A    between atoms: C11_15  and  C12_16 
REMARK    4  A    between atoms: C12_16  and  C13_18 
REMARK    5  A    between atoms: C13_18  and  O2_19 
REMARK    6  A    between atoms: O2_19  and  C14_20 
ROOT
HETATM    1  C6  UNL     1      20.519   3.026  52.208  1.00  0.00     0.162 A 
HETATM    2  C7  UNL     1      19.186   3.163  51.576  1.00  0.00     0.120 A 
HETATM    3  N3  UNL     1      18.471   2.069  51.682  1.00  0.00    -0.262 NA
HETATM    4  C8  UNL     1      19.231   1.091  52.384  1.00  0.00     0.065 A 
HETATM    5  C9  UNL     1      18.937  -0.205  52.750  1.00  0.00     0.033 A 
HETATM    6  C10 UNL     1      19.919  -0.885  53.434  1.00  0.00     0.017 A 
HETATM    7  C11 UNL     1      21.149  -0.379  53.776  1.00  0.00     0.013 A 
HETATM    8  C20 UNL     1      21.409   0.918  53.396  1.00  0.00     0.027 A 
HETATM    9  C21 UNL     1      20.459   1.636  52.710  1.00  0.00    -0.001 A 
ENDROOT
BRANCH   1  10
HETATM   10  N2  UNL     1      21.614   3.334  51.360  1.00  0.00    -0.343 N 
HETATM   11  C1  UNL     1      22.708   4.157  51.836  1.00  0.00     0.343 A 
HETATM   12  C2  UNL     1      23.747   4.359  50.793  1.00  0.00     0.030 A 
HETATM   13  C3  UNL     1      23.759   3.892  49.578  1.00  0.00     0.020 A 
HETATM   14  C4  UNL     1      22.617   3.075  49.187  1.00  0.00     0.026 A 
HETATM   15 BR1  UNL     1      22.567   2.358  47.420  1.00  0.00    -0.050 Br
HETATM   16  C5  UNL     1      21.637   2.830  50.030  1.00  0.00     0.108 A 
BRANCH  11  17
HETATM   17  N1  UNL     1      22.278   5.482  52.247  1.00  0.00     0.105 N 
HETATM   18  H1  UNL     1      21.373   5.701  51.813  1.00  0.00     0.315 HD
HETATM   19  H2  UNL     1      22.988   6.155  51.929  1.00  0.00     0.315 HD
ENDBRANCH  11  17
ENDBRANCH   1  10
BRANCH   7  20
HETATM   20  C12 UNL     1      22.205  -1.072  54.498  1.00  0.00     0.183 C 
HETATM   21  O1  UNL     1      21.934  -2.059  55.269  1.00  0.00    -0.290 OA
BRANCH  20  22
HETATM   22  C13 UNL     1      23.667  -0.919  54.583  1.00  0.00     0.259 C 
BRANCH  22  23
HETATM   23  O2  UNL     1      24.277  -0.886  53.314  1.00  0.00    -0.344 OA
BRANCH  23  24
HETATM   24  C14 UNL     1      25.390  -0.118  53.084  1.00  0.00     0.069 A 
HETATM   25  C15 UNL     1      26.715  -0.437  53.261  1.00  0.00     0.037 A 
HETATM   26  C16 UNL     1      27.713   0.468  52.975  1.00  0.00     0.003 A 
HETATM   27  C17 UNL     1      27.394   1.738  52.498  1.00  0.00     0.000 A 
HETATM   28  C18 UNL     1      26.060   2.095  52.307  1.00  0.00     0.003 A 
HETATM   29  C19 UNL     1      25.083   1.153  52.606  1.00  0.00     0.037 A 
ENDBRANCH  23  24
ENDBRANCH  22  23
ENDBRANCH  20  22
ENDBRANCH   7  20
TORSDOF 6
ENDMDL
MODEL 3
REMARK VINA RESULT:      -7.8      2.512      5.932
REMARK  6 active torsions:
REMARK  status: ('A' for Active; 'I' for Inactive)
REMARK    1  A    between atoms: N1_1  and  C1_2 
REMARK    2  A    between atoms: N2_8  and  C6_9 
REMARK    3  A    between atoms: C11_15  and  C12_16 
REMARK    4  A    between atoms: C12_16  and  C13_18 
REMARK    5  A    between atoms: C13_18  and  O2_19 
REMARK    6  A    between atoms: O2_19  and  C14_20 
ROOT
HETATM    1  C6  UNL     1      24.418   1.877  51.198  1.00  0.00     0.162 A 
HETATM    2  C7  UNL     1      25.859   2.141  50.972  1.00  0.00     0.120 A 
HETATM    3  N3  UNL     1      26.620   1.517  51.839  1.00  0.00    -0.262 NA
HETATM    4  C8  UNL     1      25.790   0.778  52.729  1.00  0.00     0.065 A 
HETATM    5  C9  UNL     1      26.094  -0.033  53.801  1.00  0.00     0.033 A 
HETATM    6  C10 UNL     1      25.027  -0.606  54.457  1.00  0.00     0.017 A 
HETATM    7  C11 UNL     1      23.705  -0.434  54.130  1.00  0.00     0.013 A 
HETATM    8  C20 UNL     1      23.438   0.381  53.053  1.00  0.00     0.027 A 
HETATM    9  C21 UNL     1      24.470   0.975  52.368  1.00  0.00    -0.001 A 
ENDROOT
BRANCH   1  10
HETATM   10  N2  UNL     1      23.616   3.038  51.342  1.00  0.00    -0.343 N 
HETATM   11  C1  UNL     1      24.130   4.212  52.020  1.00  0.00     0.343 A 
HETATM   12  C2  UNL     1      23.132   5.312  52.061  1.00  0.00     0.030 A 
HETATM   13  C3  UNL     1      21.925   5.313  51.575  1.00  0.00     0.020 A 
HETATM   14  C4  UNL     1      21.494   4.089  50.911  1.00  0.00     0.026 A 
HETATM   15 BR1  UNL     1      19.735   4.018  50.174  1.00  0.00    -0.050 Br
HETATM   16  C5  UNL     1      22.295   3.050  50.814  1.00  0.00     0.108 A 
BRANCH  11  17
HETATM   17  N1  UNL     1      24.505   3.947  53.397  1.00  0.00     0.105 N 
HETATM   18  H1  UNL     1      23.834   3.290  53.817  1.00  0.00     0.315 HD
HETATM   19  H2  UNL     1      24.481   4.840  53.906  1.00  0.00     0.315 HD
ENDBRANCH  11  17
ENDBRANCH   1  10
BRANCH   7  20
HETATM   20  C12 UNL     1      22.558  -1.026  54.802  1.00  0.00     0.183 C 
HETATM   21  O1  UNL     1      22.693  -2.070  55.531  1.00  0.00    -0.290 OA
BRANCH  20  22
HETATM   22  C13 UNL     1      21.124  -0.700  54.872  1.00  0.00     0.259 C 
BRANCH  22  23
HETATM   23  O2  UNL     1      20.336  -1.581  54.106  1.00  0.00    -0.344 OA
BRANCH  23  24
HETATM   24  C14 UNL     1      19.338  -1.110  53.292  1.00  0.00     0.069 A 
HETATM   25  C15 UNL     1      18.022  -1.499  53.222  1.00  0.00     0.037 A 
HETATM   26  C16 UNL     1      17.149  -0.910  52.334  1.00  0.00     0.003 A 
HETATM   27  C17 UNL     1      17.589   0.101  51.482  1.00  0.00     0.000 A 
HETATM   28  C18 UNL     1      18.917   0.519  51.527  1.00  0.00     0.003 A 
HETATM   29  C19 UNL     1      19.766  -0.099  52.436  1.00  0.00     0.037 A 
ENDBRANCH  23  24
ENDBRANCH  22  23
ENDBRANCH  20  22
ENDBRANCH   7  20
TORSDOF 6
ENDMDL
MODEL 4
REMARK VINA RESULT:      -7.6      2.032      2.720
REMARK  6 active torsions:
REMARK  status: ('A' for Active; 'I' for Inactive)
REMARK    1  A    between atoms: N1_1  and  C1_2 
REMARK    2  A    between atoms: N2_8  and  C6_9 
REMARK    3  A    between atoms: C11_15  and  C12_16 
REMARK    4  A    between atoms: C12_16  and  C13_18 
REMARK    5  A    between atoms: C13_18  and  O2_19 
REMARK    6  A    between atoms: O2_19  and  C14_20 
ROOT
HETATM    1  C6  UNL     1      21.065   2.718  52.026  1.00  0.00     0.162 A 
HETATM    2  C7  UNL     1      19.731   2.892  51.403  1.00  0.00     0.120 A 
HETATM    3  N3  UNL     1      18.937   1.876  51.640  1.00  0.00    -0.262 NA
HETATM    4  C8  UNL     1      19.636   0.923  52.435  1.00  0.00     0.065 A 
HETATM    5  C9  UNL     1      19.251  -0.298  52.946  1.00  0.00     0.033 A 
HETATM    6  C10 UNL     1      20.194  -0.974  53.687  1.00  0.00     0.017 A 
HETATM    7  C11 UNL     1      21.467  -0.533  53.951  1.00  0.00     0.013 A 
HETATM    8  C20 UNL     1      21.817   0.690  53.426  1.00  0.00     0.027 A 
HETATM    9  C21 UNL     1      20.910   1.402  52.680  1.00  0.00    -0.001 A 
ENDROOT
BRANCH   1  10
HETATM   10  N2  UNL     1      22.160   2.844  51.132  1.00  0.00    -0.343 N 
HETATM   11  C1  UNL     1      21.941   3.172  49.737  1.00  0.00     0.343 A 
HETATM   12  C2  UNL     1      23.216   3.255  48.978  1.00  0.00     0.030 A 
HETATM   13  C3  UNL     1      24.424   3.072  49.427  1.00  0.00     0.020 A 
HETATM   14  C4  UNL     1      24.548   2.746  50.842  1.00  0.00     0.026 A 
HETATM   15 BR1  UNL     1      26.290   2.466  51.568  1.00  0.00    -0.050 Br
HETATM   16  C5  UNL     1      23.485   2.647  51.611  1.00  0.00     0.108 A 
BRANCH  11  17
HETATM   17  N1  UNL     1      21.119   2.191  49.051  1.00  0.00     0.105 N 
HETATM   18  H1  UNL     1      20.140   2.502  49.049  1.00  0.00     0.315 HD
HETATM   19  H2  UNL     1      21.200   1.302  49.562  1.00  0.00     0.315 HD
ENDBRANCH  11  17
ENDBRANCH   1  10
BRANCH   7  20
HETATM   20  C12 UNL     1      22.484  -1.225  54.730  1.00  0.00     0.183 C 
HETATM   21  O1  UNL     1      22.213  -2.323  55.332  1.00  0.00    -0.290 OA
BRANCH  20  22
HETATM   22  C13 UNL     1      23.899  -0.963  55.040  1.00  0.00     0.259 C 
BRANCH  22  23
HETATM   23  O2  UNL     1      24.675  -0.774  53.880  1.00  0.00    -0.344 OA
BRANCH  23  24
HETATM   24  C14 UNL     1      26.027  -0.554  53.963  1.00  0.00     0.069 A 
HETATM   25  C15 UNL     1      26.723   0.233  54.847  1.00  0.00     0.037 A 
HETATM   26  C16 UNL     1      28.096   0.338  54.784  1.00  0.00     0.003 A 
HETATM   27  C17 UNL     1      28.809  -0.359  53.811  1.00  0.00     0.000 A 
HETATM   28  C18 UNL     1      28.134  -1.167  52.898  1.00  0.00     0.003 A 
HETATM   29  C19 UNL     1      26.750  -1.246  52.995  1.00  0.00     0.037 A 
ENDBRANCH  23  24
ENDBRANCH  22  23
ENDBRANCH  20  22
ENDBRANCH   7  20
TORSDOF 6
ENDMDL
MODEL 5
REMARK VINA RESULT:      -7.6      1.969      3.636
REMARK  6 active torsions:
REMARK  status: ('A' for Active; 'I' for Inactive)
REMARK    1  A    between atoms: N1_1  and  C1_2 
REMARK    2  A    between atoms: N2_8  and  C6_9 
REMARK    3  A    between atoms: C11_15  and  C12_16 
REMARK    4  A    between atoms: C12_16  and  C13_18 
REMARK    5  A    between atoms: C13_18  and  O2_19 
REMARK    6  A    between atoms: O2_19  and  C14_20 
ROOT
HETATM    1  C6  UNL     1      20.914   1.952  52.550  1.00  0.00     0.162 A 
HETATM    2  C7  UNL     1      19.937   0.838  52.526  1.00  0.00     0.120 A 
HETATM    3  N3  UNL     1      20.499  -0.321  52.773  1.00  0.00    -0.262 NA
HETATM    4  C8  UNL     1      21.893  -0.118  52.987  1.00  0.00     0.065 A 
HETATM    5  C9  UNL     1      22.910  -1.001  53.277  1.00  0.00     0.033 A 
HETATM    6  C10 UNL     1      24.168  -0.458  53.422  1.00  0.00     0.017 A 
HETATM    7  C11 UNL     1      24.480   0.873  53.303  1.00  0.00     0.013 A 
HETATM    8  C20 UNL     1      23.439   1.727  53.014  1.00  0.00     0.027 A 
HETATM    9  C21 UNL     1      22.167   1.231  52.859  1.00  0.00    -0.001 A 
ENDROOT
BRANCH   1  10
HETATM   10  N2  UNL     1      20.930   2.754  51.380  1.00  0.00    -0.343 N 
HETATM   11  C1  UNL     1      20.280   4.050  51.365  1.00  0.00     0.343 A 
HETATM   12  C2  UNL     1      20.414   4.724  50.047  1.00  0.00     0.030 A 
HETATM   13  C3  UNL     1      21.020   4.282  48.983  1.00  0.00     0.020 A 
HETATM   14  C4  UNL     1      21.644   2.969  49.091  1.00  0.00     0.026 A 
HETATM   15 BR1  UNL     1      22.551   2.258  47.571  1.00  0.00    -0.050 Br
HETATM   16  C5  UNL     1      21.589   2.281  50.212  1.00  0.00     0.108 A 
BRANCH  11  17
HETATM   17  N1  UNL     1      18.857   3.970  51.641  1.00  0.00     0.105 N 
HETATM   18  H1  UNL     1      18.388   3.453  50.888  1.00  0.00     0.315 HD
HETATM   19  H2  UNL     1      18.492   4.931  51.684  1.00  0.00     0.315 HD
ENDBRANCH  11  17
ENDBRANCH   1  10
BRANCH   7  20
HETATM   20  C12 UNL     1      25.796   1.475  53.452  1.00  0.00     0.183 C 
HETATM   21  O1  UNL     1      26.447   1.365  54.549  1.00  0.00    -0.290 OA
BRANCH  20  22
HETATM   22  C13 UNL     1      26.673   2.265  52.571  1.00  0.00     0.259 C 
BRANCH  22  23
HETATM   23  O2  UNL     1      26.263   2.218  51.224  1.00  0.00    -0.344 OA
BRANCH  23  24
HETATM   24  C14 UNL     1      25.909   3.361  50.553  1.00  0.00     0.069 A 
HETATM   25  C15 UNL     1      24.783   4.135  50.696  1.00  0.00     0.037 A 
HETATM   26  C16 UNL     1      24.589   5.263  49.930  1.00  0.00     0.003 A 
HETATM   27  C17 UNL     1      25.541   5.643  48.986  1.00  0.00     0.000 A 
HETATM   28  C18 UNL     1      26.695   4.880  48.815  1.00  0.00     0.003 A 
HETATM   29  C19 UNL     1      26.853   3.750  49.608  1.00  0.00     0.037 A 
ENDBRANCH  23  24
ENDBRANCH  22  23
ENDBRANCH  20  22
ENDBRANCH   7  20
TORSDOF 6
ENDMDL
MODEL 6
REMARK VINA RESULT:      -7.6      1.866      2.673
REMARK  6 active torsions:
REMARK  status: ('A' for Active; 'I' for Inactive)
REMARK    1  A    between atoms: N1_1  and  C1_2 
REMARK    2  A    between atoms: N2_8  and  C6_9 
REMARK    3  A    between atoms: C11_15  and  C12_16 
REMARK    4  A    between atoms: C12_16  and  C13_18 
REMARK    5  A    between atoms: C13_18  and  O2_19 
REMARK    6  A    between atoms: O2_19  and  C14_20 
ROOT
HETATM    1  C6  UNL     1      22.126   5.276  51.261  1.00  0.00     0.162 A 
HETATM    2  C7  UNL     1      20.759   5.178  50.696  1.00  0.00     0.120 A 
HETATM    3  N3  UNL     1      20.266   3.968  50.798  1.00  0.00    -0.262 NA
HETATM    4  C8  UNL     1      21.229   3.131  51.431  1.00  0.00     0.065 A 
HETATM    5  C9  UNL     1      21.198   1.795  51.767  1.00  0.00     0.033 A 
HETATM    6  C10 UNL     1      22.324   1.293  52.382  1.00  0.00     0.017 A 
HETATM    7  C11 UNL     1      23.454   2.011  52.683  1.00  0.00     0.013 A 
HETATM    8  C20 UNL     1      23.450   3.343  52.335  1.00  0.00     0.027 A 
HETATM    9  C21 UNL     1      22.350   3.888  51.719  1.00  0.00    -0.001 A 
ENDROOT
BRANCH   1  10
HETATM   10  N2  UNL     1      23.100   5.803  50.374  1.00  0.00    -0.343 N 
HETATM   11  C1  UNL     1      24.460   6.030  50.820  1.00  0.00     0.343 A 
HETATM   12  C2  UNL     1      25.315   6.586  49.739  1.00  0.00     0.030 A 
HETATM   13  C3  UNL     1      24.972   6.864  48.515  1.00  0.00     0.020 A 
HETATM   14  C4  UNL     1      23.584   6.604  48.156  1.00  0.00     0.026 A 
HETATM   15 BR1  UNL     1      23.011   6.988  46.377  1.00  0.00    -0.050 Br
HETATM   16  C5  UNL     1      22.736   6.111  49.034  1.00  0.00     0.108 A 
BRANCH  11  17
HETATM   17  N1  UNL     1      24.540   6.967  51.927  1.00  0.00     0.105 N 
HETATM   18  H1  UNL     1      23.873   6.693  52.659  1.00  0.00     0.315 HD
HETATM   19  H2  UNL     1      24.298   7.899  51.567  1.00  0.00     0.315 HD
ENDBRANCH  11  17
ENDBRANCH   1  10
BRANCH   7  20
HETATM   20  C12 UNL     1      24.656   1.509  53.333  1.00  0.00     0.183 C 
HETATM   21  O1  UNL     1      25.612   2.303  53.644  1.00  0.00    -0.290 OA
BRANCH  20  22
HETATM   22  C13 UNL     1      25.110   0.180  53.775  1.00  0.00     0.259 C 
BRANCH  22  23
HETATM   23  O2  UNL     1      25.757  -0.534  52.747  1.00  0.00    -0.344 OA
BRANCH  23  24
HETATM   24  C14 UNL     1      27.008  -1.066  52.937  1.00  0.00     0.069 A 
HETATM   25  C15 UNL     1      27.441  -2.354  52.731  1.00  0.00     0.037 A 
HETATM   26  C16 UNL     1      28.747  -2.716  52.976  1.00  0.00     0.003 A 
HETATM   27  C17 UNL     1      29.662  -1.774  53.441  1.00  0.00     0.000 A 
HETATM   28  C18 UNL     1      29.256  -0.459  53.660  1.00  0.00     0.003 A 
HETATM   29  C19 UNL     1      27.930  -0.133  53.401  1.00  0.00     0.037 A 
ENDBRANCH  23  24
ENDBRANCH  22  23
ENDBRANCH  20  22
ENDBRANCH   7  20
TORSDOF 6
ENDMDL
MODEL 7
REMARK VINA RESULT:      -7.6      2.009      2.834
REMARK  6 active torsions:
REMARK  status: ('A' for Active; 'I' for Inactive)
REMARK    1  A    between atoms: N1_1  and  C1_2 
REMARK    2  A    between atoms: N2_8  and  C6_9 
REMARK    3  A    between atoms: C11_15  and  C12_16 
REMARK    4  A    between atoms: C12_16  and  C13_18 
REMARK    5  A    between atoms: C13_18  and  O2_19 
REMARK    6  A    between atoms: O2_19  and  C14_20 
ROOT
HETATM    1  C6  UNL     1      20.628   2.079  52.440  1.00  0.00     0.162 A 
HETATM    2  C7  UNL     1      19.703   0.920  52.468  1.00  0.00     0.120 A 
HETATM    3  N3  UNL     1      20.324  -0.204  52.732  1.00  0.00    -0.262 NA
HETATM    4  C8  UNL     1      21.711   0.069  52.909  1.00  0.00     0.065 A 
HETATM    5  C9  UNL     1      22.774  -0.759  53.199  1.00  0.00     0.033 A 
HETATM    6  C10 UNL     1      24.008  -0.155  53.301  1.00  0.00     0.017 A 
HETATM    7  C11 UNL     1      24.255   1.185  53.140  1.00  0.00     0.013 A 
HETATM    8  C20 UNL     1      23.170   1.982  52.852  1.00  0.00     0.027 A 
HETATM    9  C21 UNL     1      21.919   1.425  52.739  1.00  0.00    -0.001 A 
ENDROOT
BRANCH   1  10
HETATM   10  N2  UNL     1      20.581   2.849  51.249  1.00  0.00    -0.343 N 
HETATM   11  C1  UNL     1      19.818   4.080  51.195  1.00  0.00     0.343 A 
HETATM   12  C2  UNL     1      19.902   4.728  49.860  1.00  0.00     0.030 A 
HETATM   13  C3  UNL     1      20.554   4.315  48.812  1.00  0.00     0.020 A 
HETATM   14  C4  UNL     1      21.292   3.067  48.960  1.00  0.00     0.026 A 
HETATM   15 BR1  UNL     1      22.273   2.401  47.464  1.00  0.00    -0.050 Br
HETATM   16  C5  UNL     1      21.290   2.406  50.098  1.00  0.00     0.108 A 
BRANCH  11  17
HETATM   17  N1  UNL     1      18.406   3.879  51.465  1.00  0.00     0.105 N 
HETATM   18  H1  UNL     1      18.028   3.175  50.819  1.00  0.00     0.315 HD
HETATM   19  H2  UNL     1      17.928   4.778  51.319  1.00  0.00     0.315 HD
ENDBRANCH  11  17
ENDBRANCH   1  10
BRANCH   7  20
HETATM   20  C12 UNL     1      25.545   1.851  53.243  1.00  0.00     0.183 C 
HETATM   21  O1  UNL     1      25.865   2.501  54.298  1.00  0.00    -0.290 OA
BRANCH  20  22
HETATM   22  C13 UNL     1      26.709   1.986  52.350  1.00  0.00     0.259 C 
BRANCH  22  23
HETATM   23  O2  UNL     1      27.901   1.536  52.952  1.00  0.00    -0.344 OA
BRANCH  23  24
HETATM   24  C14 UNL     1      28.196   0.198  53.022  1.00  0.00     0.069 A 
HETATM   25  C15 UNL     1      27.420  -0.879  52.667  1.00  0.00     0.037 A 
HETATM   26  C16 UNL     1      27.882  -2.169  52.806  1.00  0.00     0.003 A 
HETATM   27  C17 UNL     1      29.157  -2.408  53.315  1.00  0.00     0.000 A 
HETATM   28  C18 UNL     1      29.970  -1.338  53.685  1.00  0.00     0.003 A 
HETATM   29  C19 UNL     1      29.467  -0.052  53.529  1.00  0.00     0.037 A 
ENDBRANCH  23  24
ENDBRANCH  22  23
ENDBRANCH  20  22
ENDBRANCH   7  20
TORSDOF 6
ENDMDL
MODEL 8
REMARK VINA RESULT:      -7.5      3.015      5.365
REMARK  6 active torsions:
REMARK  status: ('A' for Active; 'I' for Inactive)
REMARK    1  A    between atoms: N1_1  and  C1_2 
REMARK    2  A    between atoms: N2_8  and  C6_9 
REMARK    3  A    between atoms: C11_15  and  C12_16 
REMARK    4  A    between atoms: C12_16  and  C13_18 
REMARK    5  A    between atoms: C13_18  and  O2_19 
REMARK    6  A    between atoms: O2_19  and  C14_20 
ROOT
HETATM    1  C6  UNL     1      21.889   0.632  53.899  1.00  0.00     0.162 A 
HETATM    2  C7  UNL     1      21.861  -0.632  54.672  1.00  0.00     0.120 A 
HETATM    3  N3  UNL     1      23.003  -1.273  54.617  1.00  0.00    -0.262 NA
HETATM    4  C8  UNL     1      23.911  -0.524  53.814  1.00  0.00     0.065 A 
HETATM    5  C9  UNL     1      25.219  -0.762  53.451  1.00  0.00     0.033 A 
HETATM    6  C10 UNL     1      25.812   0.187  52.649  1.00  0.00     0.017 A 
HETATM    7  C11 UNL     1      25.211   1.333  52.190  1.00  0.00     0.013 A 
HETATM    8  C20 UNL     1      23.904   1.538  52.573  1.00  0.00     0.027 A 
HETATM    9  C21 UNL     1      23.270   0.619  53.373  1.00  0.00    -0.001 A 
ENDROOT
BRANCH   1  10
HETATM   10  N2  UNL     1      20.857   0.763  52.935  1.00  0.00    -0.343 N 
HETATM   11  C1  UNL     1      20.947   1.759  51.886  1.00  0.00     0.343 A 
HETATM   12  C2  UNL     1      19.765   1.728  50.986  1.00  0.00     0.030 A 
HETATM   13  C3  UNL     1      18.731   0.940  51.054  1.00  0.00     0.020 A 
HETATM   14  C4  UNL     1      18.726  -0.030  52.142  1.00  0.00     0.026 A 
HETATM   15 BR1  UNL     1      17.242  -1.219  52.302  1.00  0.00    -0.050 Br
HETATM   16  C5  UNL     1      19.722  -0.094  53.000  1.00  0.00     0.108 A 
BRANCH  11  17
HETATM   17  N1  UNL     1      21.033   3.113  52.403  1.00  0.00     0.105 N 
HETATM   18  H1  UNL     1      20.520   3.177  53.291  1.00  0.00     0.315 HD
HETATM   19  H2  UNL     1      20.606   3.742  51.709  1.00  0.00     0.315 HD
ENDBRANCH  11  17
ENDBRANCH   1  10
BRANCH   7  20
HETATM   20  C12 UNL     1      25.811   2.352  51.343  1.00  0.00     0.183 C 
HETATM   21  O1  UNL     1      27.080   2.400  51.175  1.00  0.00    -0.290 OA
BRANCH  20  22
HETATM   22  C13 UNL     1      25.282   3.466  50.539  1.00  0.00     0.259 C 
BRANCH  22  23
HETATM   23  O2  UNL     1      25.981   3.631  49.327  1.00  0.00    -0.344 OA
BRANCH  23  24
HETATM   24  C14 UNL     1      26.450   4.863  48.944  1.00  0.00     0.069 A 
HETATM   25  C15 UNL     1      25.775   6.056  48.853  1.00  0.00     0.037 A 
HETATM   26  C16 UNL     1      26.412   7.208  48.446  1.00  0.00     0.003 A 
HETATM   27  C17 UNL     1      27.765   7.183  48.116  1.00  0.00     0.000 A 
HETATM   28  C18 UNL     1      28.480   5.989  48.197  1.00  0.00     0.003 A 
HETATM   29  C19 UNL     1      27.802   4.850  48.612  1.00  0.00     0.037 A 
ENDBRANCH  23  24
ENDBRANCH  22  23
ENDBRANCH  20  22
ENDBRANCH   7  20
TORSDOF 6
ENDMDL
MODEL 9
REMARK VINA RESULT:      -7.4      6.640      9.732
REMARK  6 active torsions:
REMARK  status: ('A' for Active; 'I' for Inactive)
REMARK    1  A    between atoms: N1_1  and  C1_2 
REMARK    2  A    between atoms: N2_8  and  C6_9 
REMARK    3  A    between atoms: C11_15  and  C12_16 
REMARK    4  A    between atoms: C12_16  and  C13_18 
REMARK    5  A    between atoms: C13_18  and  O2_19 
REMARK    6  A    between atoms: O2_19  and  C14_20 
ROOT
HETATM    1  C6  UNL     1      31.534   7.067  47.743  1.00  0.00     0.162 A 
HETATM    2  C7  UNL     1      31.764   8.325  46.993  1.00  0.00     0.120 A 
HETATM    3  N3  UNL     1      30.643   8.898  46.629  1.00  0.00    -0.262 NA
HETATM    4  C8  UNL     1      29.552   8.104  47.087  1.00  0.00     0.065 A 
HETATM    5  C9  UNL     1      28.189   8.268  46.965  1.00  0.00     0.033 A 
HETATM    6  C10 UNL     1      27.403   7.291  47.536  1.00  0.00     0.017 A 
HETATM    7  C11 UNL     1      27.866   6.186  48.206  1.00  0.00     0.013 A 
HETATM    8  C20 UNL     1      29.232   6.055  48.309  1.00  0.00     0.027 A 
HETATM    9  C21 UNL     1      30.057   7.004  47.755  1.00  0.00    -0.001 A 
ENDROOT
BRANCH   1  10
HETATM   10  N2  UNL     1      32.201   5.930  47.218  1.00  0.00    -0.343 N 
HETATM   11  C1  UNL     1      32.600   4.841  48.087  1.00  0.00     0.343 A 
HETATM   12  C2  UNL     1      33.283   3.754  47.339  1.00  0.00     0.030 A 
HETATM   13  C3  UNL     1      33.534   3.700  46.062  1.00  0.00     0.020 A 
HETATM   14  C4  UNL     1      33.097   4.840  45.268  1.00  0.00     0.026 A 
HETATM   15 BR1  UNL     1      33.432   4.829  43.389  1.00  0.00    -0.050 Br
HETATM   16  C5  UNL     1      32.481   5.861  45.825  1.00  0.00     0.108 A 
BRANCH  11  17
HETATM   17  N1  UNL     1      33.520   5.260  49.130  1.00  0.00     0.105 N 
HETATM   18  H1  UNL     1      34.162   5.970  48.757  1.00  0.00     0.315 HD
HETATM   19  H2  UNL     1      34.052   4.433  49.430  1.00  0.00     0.315 HD
ENDBRANCH  11  17
ENDBRANCH   1  10
BRANCH   7  20
HETATM   20  C12 UNL     1      27.061   5.140  48.820  1.00  0.00     0.183 C 
HETATM   21  O1  UNL     1      27.518   3.951  48.945  1.00  0.00    -0.290 OA
BRANCH  20  22
HETATM   22  C13 UNL     1      25.708   5.087  49.398  1.00  0.00     0.259 C 
BRANCH  22  23
HETATM   23  O2  UNL     1      25.577   4.068  50.362  1.00  0.00    -0.344 OA
BRANCH  23  24
HETATM   24  C14 UNL     1      24.511   3.205  50.336  1.00  0.00     0.069 A 
HETATM   25  C15 UNL     1      24.093   2.317  51.297  1.00  0.00     0.037 A 
HETATM   26  C16 UNL     1      22.987   1.518  51.101  1.00  0.00     0.003 A 
HETATM   27  C17 UNL     1      22.266   1.598  49.911  1.00  0.00     0.000 A 
HETATM   28  C18 UNL     1      22.663   2.488  48.915  1.00  0.00     0.003 A 
HETATM   29  C19 UNL     1      23.783   3.276  49.152  1.00  0.00     0.037 A 
ENDBRANCH  23  24
ENDBRANCH  22  23
ENDBRANCH  20  22
ENDBRANCH   7  20
TORSDOF 6
ENDMDL
