MODEL 1
REMARK VINA RESULT:      -7.5      0.000      0.000
REMARK  8 active torsions:
REMARK  status: ('A' for Active; 'I' for Inactive)
REMARK    1  A    between atoms: N1_2  and  C2_3 
REMARK    2  A    between atoms: N2_4  and  N3_5 
REMARK    3  A    between atoms: C4_7  and  C14_19 
REMARK    4  A    between atoms: C6_9  and  O1_10 
REMARK    5  A    between atoms: C6_9  and  C14_19 
REMARK    6  A    between atoms: O1_10  and  C7_11 
REMARK    7  A    between atoms: C7_11  and  C8_12 
REMARK    8  A    between atoms: C14_19  and  C15_20 
ROOT
HETATM    1  N3  UNL     1      24.189   1.783  52.087  1.00  0.00     0.074 N 
HETATM    2  C3  UNL     1      24.553   2.571  50.795  1.00  0.00     0.235 A 
HETATM    3  C4  UNL     1      25.222   3.305  49.710  1.00  0.00     0.123 A 
HETATM    4  C5  UNL     1      26.587   3.467  49.813  1.00  0.00    -0.000 A 
HETATM    5  C6  UNL     1      26.233   2.738  50.931  1.00  0.00     0.132 A 
HETATM    6  C14 UNL     1      24.841   2.495  50.997  1.00  0.00     0.235 A 
HETATM    7  C15 UNL     1      23.338   2.267  51.001  1.00  0.00     0.306 A 
ENDROOT
BRANCH   5   8
HETATM    8  O1  UNL     1      27.306   2.403  51.721  1.00  0.00    -0.369 OA
BRANCH   8   9
HETATM    9  C7  UNL     1      27.673   2.075  52.901  1.00  0.00     0.208 C 
BRANCH   9  10
HETATM   10  C8  UNL     1      28.318   0.797  53.180  1.00  0.00    -0.032 A 
HETATM   11  C9  UNL     1      29.596   0.415  53.685  1.00  0.00     0.009 A 
HETATM   12  C10 UNL     1      29.861  -0.940  53.690  1.00  0.00     0.004 A 
HETATM   13  C11 UNL     1      29.085  -1.991  53.281  1.00  0.00     0.042 A 
HETATM   14  C12 UNL     1      27.825  -1.601  52.797  1.00  0.00     0.117 A 
HETATM   15  F1  UNL     1      27.009  -2.607  52.393  1.00  0.00    -0.206 F 
HETATM   16  C13 UNL     1      27.506  -0.263  52.763  1.00  0.00     0.051 A 
ENDBRANCH   9  10
ENDBRANCH   8   9
ENDBRANCH   5   8
BRANCH   1  17
HETATM   17  N2  UNL     1      24.269   1.028  53.387  1.00  0.00    -0.072 NA
HETATM   18  C2  UNL     1      23.446  -0.030  53.455  1.00  0.00     0.311 C 
BRANCH  18  19
HETATM   19  N1  UNL     1      22.435  -0.983  53.012  1.00  0.00    -0.121 NA
HETATM   20  C1  UNL     1      21.528  -1.334  53.932  1.00  0.00     0.954 C 
ENDBRANCH  18  19
ENDBRANCH   1  17
TORSDOF 8
ENDMDL
MODEL 2
REMARK VINA RESULT:      -7.2      2.444      4.406
REMARK  8 active torsions:
REMARK  status: ('A' for Active; 'I' for Inactive)
REMARK    1  A    between atoms: N1_2  and  C2_3 
REMARK    2  A    between atoms: N2_4  and  N3_5 
REMARK    3  A    between atoms: C4_7  and  C14_19 
REMARK    4  A    between atoms: C6_9  and  O1_10 
REMARK    5  A    between atoms: C6_9  and  C14_19 
REMARK    6  A    between atoms: O1_10  and  C7_11 
REMARK    7  A    between atoms: C7_11  and  C8_12 
REMARK    8  A    between atoms: C14_19  and  C15_20 
ROOT
HETATM    1  N3  UNL     1      21.671   0.323  52.275  1.00  0.00     0.074 N 
HETATM    2  C3  UNL     1      21.620  -0.471  53.613  1.00  0.00     0.235 A 
HETATM    3  C4  UNL     1      21.921  -1.198  54.856  1.00  0.00     0.123 A 
HETATM    4  C5  UNL     1      23.249  -1.313  55.206  1.00  0.00    -0.000 A 
HETATM    5  C6  UNL     1      23.255  -0.580  54.035  1.00  0.00     0.132 A 
HETATM    6  C14 UNL     1      21.954  -0.382  53.516  1.00  0.00     0.235 A 
HETATM    7  C15 UNL     1      20.529  -0.204  53.020  1.00  0.00     0.306 A 
ENDROOT
BRANCH   5   8
HETATM    8  O1  UNL     1      24.515  -0.199  53.643  1.00  0.00    -0.369 OA
BRANCH   8   9
HETATM    9  C7  UNL     1      25.374  -0.245  52.695  1.00  0.00     0.208 C 
BRANCH   9  10
HETATM   10  C8  UNL     1      26.809  -0.207  52.953  1.00  0.00    -0.032 A 
HETATM   11  C9  UNL     1      27.819  -1.200  53.118  1.00  0.00     0.009 A 
HETATM   12  C10 UNL     1      29.069  -0.734  53.471  1.00  0.00     0.004 A 
HETATM   13  C11 UNL     1      29.503   0.546  53.691  1.00  0.00     0.042 A 
HETATM   14  C12 UNL     1      28.500   1.515  53.514  1.00  0.00     0.117 A 
HETATM   15  F1  UNL     1      28.882   2.803  53.705  1.00  0.00    -0.206 F 
HETATM   16  C13 UNL     1      27.232   1.110  53.168  1.00  0.00     0.051 A 
ENDBRANCH   9  10
ENDBRANCH   8   9
ENDBRANCH   5   8
BRANCH   1  17
HETATM   17  N2  UNL     1      22.146   1.099  51.075  1.00  0.00    -0.072 NA
HETATM   18  C2  UNL     1      22.641   2.311  51.371  1.00  0.00     0.311 C 
BRANCH  18  19
HETATM   19  N1  UNL     1      23.037   3.439  52.205  1.00  0.00    -0.121 NA
HETATM   20  C1  UNL     1      24.119   3.244  52.968  1.00  0.00     0.954 C 
ENDBRANCH  18  19
ENDBRANCH   1  17
TORSDOF 8
ENDMDL
MODEL 3
REMARK VINA RESULT:      -7.2      1.990      4.067
REMARK  8 active torsions:
REMARK  status: ('A' for Active; 'I' for Inactive)
REMARK    1  A    between atoms: N1_2  and  C2_3 
REMARK    2  A    between atoms: N2_4  and  N3_5 
REMARK    3  A    between atoms: C4_7  and  C14_19 
REMARK    4  A    between atoms: C6_9  and  O1_10 
REMARK    5  A    between atoms: C6_9  and  C14_19 
REMARK    6  A    between atoms: O1_10  and  C7_11 
REMARK    7  A    between atoms: C7_11  and  C8_12 
REMARK    8  A    between atoms: C14_19  and  C15_20 
ROOT
HETATM    1  N3  UNL     1      21.984   0.845  52.345  1.00  0.00     0.074 N 
HETATM    2  C3  UNL     1      21.820   0.133  53.720  1.00  0.00     0.235 A 
HETATM    3  C4  UNL     1      21.991  -0.654  54.951  1.00  0.00     0.123 A 
HETATM    4  C5  UNL     1      23.210  -1.270  55.135  1.00  0.00    -0.000 A 
HETATM    5  C6  UNL     1      23.333  -0.596  53.935  1.00  0.00     0.132 A 
HETATM    6  C14 UNL     1      22.147   0.086  53.577  1.00  0.00     0.235 A 
HETATM    7  C15 UNL     1      20.843   0.798  53.258  1.00  0.00     0.306 A 
ENDROOT
BRANCH   5   8
HETATM    8  O1  UNL     1      24.575  -0.730  53.365  1.00  0.00    -0.369 OA
BRANCH   8   9
HETATM    9  C7  UNL     1      25.497  -0.127  52.714  1.00  0.00     0.208 C 
BRANCH   9  10
HETATM   10  C8  UNL     1      26.865  -0.047  53.211  1.00  0.00    -0.032 A 
HETATM   11  C9  UNL     1      27.685   1.008  53.711  1.00  0.00     0.009 A 
HETATM   12  C10 UNL     1      28.998   0.676  53.976  1.00  0.00     0.004 A 
HETATM   13  C11 UNL     1      29.651  -0.519  53.833  1.00  0.00     0.042 A 
HETATM   14  C12 UNL     1      28.830  -1.552  53.350  1.00  0.00     0.117 A 
HETATM   15  F1  UNL     1      29.425  -2.762  53.205  1.00  0.00    -0.206 F 
HETATM   16  C13 UNL     1      27.512  -1.279  53.062  1.00  0.00     0.051 A 
ENDBRANCH   9  10
ENDBRANCH   8   9
ENDBRANCH   5   8
BRANCH   1  17
HETATM   17  N2  UNL     1      22.548   1.378  51.055  1.00  0.00    -0.072 NA
HETATM   18  C2  UNL     1      23.329   2.459  51.206  1.00  0.00     0.311 C 
BRANCH  18  19
HETATM   19  N1  UNL     1      24.029   3.530  51.906  1.00  0.00    -0.121 NA
HETATM   20  C1  UNL     1      24.456   3.234  53.140  1.00  0.00     0.954 C 
ENDBRANCH  18  19
ENDBRANCH   1  17
TORSDOF 8
ENDMDL
MODEL 4
REMARK VINA RESULT:      -7.2      2.169      4.345
REMARK  8 active torsions:
REMARK  status: ('A' for Active; 'I' for Inactive)
REMARK    1  A    between atoms: N1_2  and  C2_3 
REMARK    2  A    between atoms: N2_4  and  N3_5 
REMARK    3  A    between atoms: C4_7  and  C14_19 
REMARK    4  A    between atoms: C6_9  and  O1_10 
REMARK    5  A    between atoms: C6_9  and  C14_19 
REMARK    6  A    between atoms: O1_10  and  C7_11 
REMARK    7  A    between atoms: C7_11  and  C8_12 
REMARK    8  A    between atoms: C14_19  and  C15_20 
ROOT
HETATM    1  N3  UNL     1      24.881   2.261  51.110  1.00  0.00     0.074 N 
HETATM    2  C3  UNL     1      23.513   1.766  51.664  1.00  0.00     0.235 A 
HETATM    3  C4  UNL     1      22.422   1.065  52.359  1.00  0.00     0.123 A 
HETATM    4  C5  UNL     1      22.779   0.051  53.220  1.00  0.00    -0.000 A 
HETATM    5  C6  UNL     1      23.976   0.539  52.734  1.00  0.00     0.132 A 
HETATM    6  C14 UNL     1      23.793   1.589  51.805  1.00  0.00     0.235 A 
HETATM    7  C15 UNL     1      23.521   2.714  50.820  1.00  0.00     0.306 A 
ENDROOT
BRANCH   5   8
HETATM    8  O1  UNL     1      25.074  -0.094  53.266  1.00  0.00    -0.369 OA
BRANCH   8   9
HETATM    9  C7  UNL     1      25.947  -1.009  53.076  1.00  0.00     0.208 C 
BRANCH   9  10
HETATM   10  C8  UNL     1      27.377  -0.746  53.190  1.00  0.00    -0.032 A 
HETATM   11  C9  UNL     1      28.545  -1.563  53.177  1.00  0.00     0.009 A 
HETATM   12  C10 UNL     1      29.736  -0.915  53.436  1.00  0.00     0.004 A 
HETATM   13  C11 UNL     1      29.981   0.405  53.709  1.00  0.00     0.042 A 
HETATM   14  C12 UNL     1      28.822   1.200  53.707  1.00  0.00     0.117 A 
HETATM   15  F1  UNL     1      29.011   2.520  53.957  1.00  0.00    -0.206 F 
HETATM   16  C13 UNL     1      27.604   0.608  53.461  1.00  0.00     0.051 A 
ENDBRANCH   9  10
ENDBRANCH   8   9
ENDBRANCH   5   8
BRANCH   1  17
HETATM   17  N2  UNL     1      26.354   2.446  50.859  1.00  0.00    -0.072 NA
HETATM   18  C2  UNL     1      26.643   3.474  50.046  1.00  0.00     0.311 C 
BRANCH  18  19
HETATM   19  N1  UNL     1      26.394   4.621  49.180  1.00  0.00    -0.121 NA
HETATM   20  C1  UNL     1      27.475   5.148  48.591  1.00  0.00     0.954 C 
ENDBRANCH  18  19
ENDBRANCH   1  17
TORSDOF 8
ENDMDL
MODEL 5
REMARK VINA RESULT:      -7.2      2.334      4.073
REMARK  8 active torsions:
REMARK  status: ('A' for Active; 'I' for Inactive)
REMARK    1  A    between atoms: N1_2  and  C2_3 
REMARK    2  A    between atoms: N2_4  and  N3_5 
REMARK    3  A    between atoms: C4_7  and  C14_19 
REMARK    4  A    between atoms: C6_9  and  O1_10 
REMARK    5  A    between atoms: C6_9  and  C14_19 
REMARK    6  A    between atoms: O1_10  and  C7_11 
REMARK    7  A    between atoms: C7_11  and  C8_12 
REMARK    8  A    between atoms: C14_19  and  C15_20 
ROOT
HETATM    1  N3  UNL     1      21.652  -0.186  52.864  1.00  0.00     0.074 N 
HETATM    2  C3  UNL     1      22.339  -0.818  54.110  1.00  0.00     0.235 A 
HETATM    3  C4  UNL     1      23.280  -1.292  55.136  1.00  0.00     0.123 A 
HETATM    4  C5  UNL     1      24.609  -0.972  54.961  1.00  0.00    -0.000 A 
HETATM    5  C6  UNL     1      23.962  -0.394  53.886  1.00  0.00     0.132 A 
HETATM    6  C14 UNL     1      22.570  -0.644  53.896  1.00  0.00     0.235 A 
HETATM    7  C15 UNL     1      21.083  -0.948  53.974  1.00  0.00     0.306 A 
ENDROOT
BRANCH   5   8
HETATM    8  O1  UNL     1      24.808   0.300  53.056  1.00  0.00    -0.369 OA
BRANCH   8   9
HETATM    9  C7  UNL     1      25.847   0.215  52.313  1.00  0.00     0.208 C 
BRANCH   9  10
HETATM   10  C8  UNL     1      27.191   0.134  52.874  1.00  0.00    -0.032 A 
HETATM   11  C9  UNL     1      28.158   1.097  53.288  1.00  0.00     0.009 A 
HETATM   12  C10 UNL     1      29.386   0.593  53.667  1.00  0.00     0.004 A 
HETATM   13  C11 UNL     1      29.832  -0.701  53.708  1.00  0.00     0.042 A 
HETATM   14  C12 UNL     1      28.866  -1.640  53.308  1.00  0.00     0.117 A 
HETATM   15  F1  UNL     1      29.253  -2.940  53.347  1.00  0.00    -0.206 F 
HETATM   16  C13 UNL     1      27.625  -1.195  52.914  1.00  0.00     0.051 A 
ENDBRANCH   9  10
ENDBRANCH   8   9
ENDBRANCH   5   8
BRANCH   1  17
HETATM   17  N2  UNL     1      21.394   0.568  51.587  1.00  0.00    -0.072 NA
HETATM   18  C2  UNL     1      20.692   1.700  51.754  1.00  0.00     0.311 C 
BRANCH  18  19
HETATM   19  N1  UNL     1      19.960   2.740  52.468  1.00  0.00    -0.121 NA
HETATM   20  C1  UNL     1      19.510   3.752  51.715  1.00  0.00     0.954 C 
ENDBRANCH  18  19
ENDBRANCH   1  17
TORSDOF 8
ENDMDL
MODEL 6
REMARK VINA RESULT:      -7.0      2.746      5.746
REMARK  8 active torsions:
REMARK  status: ('A' for Active; 'I' for Inactive)
REMARK    1  A    between atoms: N1_2  and  C2_3 
REMARK    2  A    between atoms: N2_4  and  N3_5 
REMARK    3  A    between atoms: C4_7  and  C14_19 
REMARK    4  A    between atoms: C6_9  and  O1_10 
REMARK    5  A    between atoms: C6_9  and  C14_19 
REMARK    6  A    between atoms: O1_10  and  C7_11 
REMARK    7  A    between atoms: C7_11  and  C8_12 
REMARK    8  A    between atoms: C14_19  and  C15_20 
ROOT
HETATM    1  N3  UNL     1      25.084  -0.430  53.876  1.00  0.00     0.074 N 
HETATM    2  C3  UNL     1      23.681   0.135  53.509  1.00  0.00     0.235 A 
HETATM    3  C4  UNL     1      22.544   0.915  52.996  1.00  0.00     0.123 A 
HETATM    4  C5  UNL     1      22.839   2.008  52.209  1.00  0.00    -0.000 A 
HETATM    5  C6  UNL     1      24.066   1.459  52.526  1.00  0.00     0.132 A 
HETATM    6  C14 UNL     1      23.949   0.322  53.359  1.00  0.00     0.235 A 
HETATM    7  C15 UNL     1      23.748  -0.894  54.249  1.00  0.00     0.306 A 
ENDROOT
BRANCH   5   8
HETATM    8  O1  UNL     1      25.122   2.129  51.957  1.00  0.00    -0.369 OA
BRANCH   8   9
HETATM    9  C7  UNL     1      25.762   2.339  50.869  1.00  0.00     0.208 C 
BRANCH   9  10
HETATM   10  C8  UNL     1      25.843   3.664  50.266  1.00  0.00    -0.032 A 
HETATM   11  C9  UNL     1      24.969   4.790  50.213  1.00  0.00     0.009 A 
HETATM   12  C10 UNL     1      25.388   5.840  49.419  1.00  0.00     0.004 A 
HETATM   13  C11 UNL     1      26.522   5.976  48.664  1.00  0.00     0.042 A 
HETATM   14  C12 UNL     1      27.378   4.864  48.734  1.00  0.00     0.117 A 
HETATM   15  F1  UNL     1      28.525   4.954  48.016  1.00  0.00    -0.206 F 
HETATM   16  C13 UNL     1      27.011   3.785  49.505  1.00  0.00     0.051 A 
ENDBRANCH   9  10
ENDBRANCH   8   9
ENDBRANCH   5   8
BRANCH   1  17
HETATM   17  N2  UNL     1      26.569  -0.657  53.964  1.00  0.00    -0.072 NA
HETATM   18  C2  UNL     1      27.283   0.465  54.143  1.00  0.00     0.311 C 
BRANCH  18  19
HETATM   19  N1  UNL     1      27.532   1.891  54.319  1.00  0.00    -0.121 NA
HETATM   20  C1  UNL     1      28.535   2.398  53.590  1.00  0.00     0.954 C 
ENDBRANCH  18  19
ENDBRANCH   1  17
TORSDOF 8
ENDMDL
MODEL 7
REMARK VINA RESULT:      -6.9      2.118      5.266
REMARK  8 active torsions:
REMARK  status: ('A' for Active; 'I' for Inactive)
REMARK    1  A    between atoms: N1_2  and  C2_3 
REMARK    2  A    between atoms: N2_4  and  N3_5 
REMARK    3  A    between atoms: C4_7  and  C14_19 
REMARK    4  A    between atoms: C6_9  and  O1_10 
REMARK    5  A    between atoms: C6_9  and  C14_19 
REMARK    6  A    between atoms: O1_10  and  C7_11 
REMARK    7  A    between atoms: C7_11  and  C8_12 
REMARK    8  A    between atoms: C14_19  and  C15_20 
ROOT
HETATM    1  N3  UNL     1      26.387   1.654  52.878  1.00  0.00     0.074 N 
HETATM    2  C3  UNL     1      26.400   2.439  51.534  1.00  0.00     0.235 A 
HETATM    3  C4  UNL     1      26.070   3.101  50.262  1.00  0.00     0.123 A 
HETATM    4  C5  UNL     1      24.752   3.069  49.864  1.00  0.00    -0.000 A 
HETATM    5  C6  UNL     1      24.771   2.407  51.077  1.00  0.00     0.132 A 
HETATM    6  C14 UNL     1      26.071   2.328  51.627  1.00  0.00     0.235 A 
HETATM    7  C15 UNL     1      27.493   2.285  52.161  1.00  0.00     0.306 A 
ENDROOT
BRANCH   5   8
HETATM    8  O1  UNL     1      23.528   1.984  51.481  1.00  0.00    -0.369 OA
BRANCH   8   9
HETATM    9  C7  UNL     1      22.523   1.252  51.180  1.00  0.00     0.208 C 
BRANCH   9  10
HETATM   10  C8  UNL     1      21.859   0.411  52.169  1.00  0.00    -0.032 A 
HETATM   11  C9  UNL     1      20.503   0.044  52.416  1.00  0.00     0.009 A 
HETATM   12  C10 UNL     1      20.279  -0.703  53.556  1.00  0.00     0.004 A 
HETATM   13  C11 UNL     1      21.161  -1.153  54.501  1.00  0.00     0.042 A 
HETATM   14  C12 UNL     1      22.494  -0.794  54.240  1.00  0.00     0.117 A 
HETATM   15  F1  UNL     1      23.412  -1.230  55.139  1.00  0.00    -0.206 F 
HETATM   16  C13 UNL     1      22.778  -0.045  53.121  1.00  0.00     0.051 A 
ENDBRANCH   9  10
ENDBRANCH   8   9
ENDBRANCH   5   8
BRANCH   1  17
HETATM   17  N2  UNL     1      25.946   0.889  54.097  1.00  0.00    -0.072 NA
HETATM   18  C2  UNL     1      26.944   0.264  54.740  1.00  0.00     0.311 C 
BRANCH  18  19
HETATM   19  N1  UNL     1      28.309  -0.173  55.011  1.00  0.00    -0.121 NA
HETATM   20  C1  UNL     1      28.997  -0.618  53.952  1.00  0.00     0.954 C 
ENDBRANCH  18  19
ENDBRANCH   1  17
TORSDOF 8
ENDMDL
MODEL 8
REMARK VINA RESULT:      -6.7      1.781      2.071
REMARK  8 active torsions:
REMARK  status: ('A' for Active; 'I' for Inactive)
REMARK    1  A    between atoms: N1_2  and  C2_3 
REMARK    2  A    between atoms: N2_4  and  N3_5 
REMARK    3  A    between atoms: C4_7  and  C14_19 
REMARK    4  A    between atoms: C6_9  and  O1_10 
REMARK    5  A    between atoms: C6_9  and  C14_19 
REMARK    6  A    between atoms: O1_10  and  C7_11 
REMARK    7  A    between atoms: C7_11  and  C8_12 
REMARK    8  A    between atoms: C14_19  and  C15_20 
ROOT
HETATM    1  N3  UNL     1      23.026   2.430  51.133  1.00  0.00     0.074 N 
HETATM    2  C3  UNL     1      24.017   3.086  50.128  1.00  0.00     0.235 A 
HETATM    3  C4  UNL     1      25.194   3.600  49.410  1.00  0.00     0.123 A 
HETATM    4  C5  UNL     1      26.427   3.353  49.974  1.00  0.00    -0.000 A 
HETATM    5  C6  UNL     1      25.521   2.751  50.827  1.00  0.00     0.132 A 
HETATM    6  C14 UNL     1      24.183   2.927  50.404  1.00  0.00     0.235 A 
HETATM    7  C15 UNL     1      22.772   3.151  49.887  1.00  0.00     0.306 A 
ENDROOT
BRANCH   5   8
HETATM    8  O1  UNL     1      26.119   2.110  51.885  1.00  0.00    -0.369 OA
BRANCH   8   9
HETATM    9  C7  UNL     1      26.184   1.014  52.541  1.00  0.00     0.208 C 
BRANCH   9  10
HETATM   10  C8  UNL     1      27.455   0.466  53.001  1.00  0.00    -0.032 A 
HETATM   11  C9  UNL     1      28.672   1.035  53.479  1.00  0.00     0.009 A 
HETATM   12  C10 UNL     1      29.703   0.146  53.709  1.00  0.00     0.004 A 
HETATM   13  C11 UNL     1      29.747  -1.213  53.549  1.00  0.00     0.042 A 
HETATM   14  C12 UNL     1      28.538  -1.762  53.088  1.00  0.00     0.117 A 
HETATM   15  F1  UNL     1      28.523  -3.109  52.927  1.00  0.00    -0.206 F 
HETATM   16  C13 UNL     1      27.476  -0.924  52.836  1.00  0.00     0.051 A 
ENDBRANCH   9  10
ENDBRANCH   8   9
ENDBRANCH   5   8
BRANCH   1  17
HETATM   17  N2  UNL     1      22.440   1.675  52.296  1.00  0.00    -0.072 NA
HETATM   18  C2  UNL     1      21.241   2.128  52.693  1.00  0.00     0.311 C 
BRANCH  18  19
HETATM   19  N1  UNL     1      20.052   2.973  52.697  1.00  0.00    -0.121 NA
HETATM   20  C1  UNL     1      19.271   2.878  51.614  1.00  0.00     0.954 C 
ENDBRANCH  18  19
ENDBRANCH   1  17
TORSDOF 8
ENDMDL
MODEL 9
REMARK VINA RESULT:      -6.7      3.124      5.902
REMARK  8 active torsions:
REMARK  status: ('A' for Active; 'I' for Inactive)
REMARK    1  A    between atoms: N1_2  and  C2_3 
REMARK    2  A    between atoms: N2_4  and  N3_5 
REMARK    3  A    between atoms: C4_7  and  C14_19 
REMARK    4  A    between atoms: C6_9  and  O1_10 
REMARK    5  A    between atoms: C6_9  and  C14_19 
REMARK    6  A    between atoms: O1_10  and  C7_11 
REMARK    7  A    between atoms: C7_11  and  C8_12 
REMARK    8  A    between atoms: C14_19  and  C15_20 
ROOT
HETATM    1  N3  UNL     1      25.719   0.390  54.156  1.00  0.00     0.074 N 
HETATM    2  C3  UNL     1      24.309   0.025  53.609  1.00  0.00     0.235 A 
HETATM    3  C4  UNL     1      23.028  -0.038  52.888  1.00  0.00     0.123 A 
HETATM    4  C5  UNL     1      22.817   0.905  51.905  1.00  0.00    -0.000 A 
HETATM    5  C6  UNL     1      24.081   1.179  52.391  1.00  0.00     0.132 A 
HETATM    6  C14 UNL     1      24.457   0.305  53.437  1.00  0.00     0.235 A 
HETATM    7  C15 UNL     1      24.796  -0.672  54.551  1.00  0.00     0.306 A 
ENDROOT
BRANCH   5   8
HETATM    8  O1  UNL     1      24.693   2.226  51.747  1.00  0.00    -0.369 OA
BRANCH   8   9
HETATM    9  C7  UNL     1      24.519   3.392  51.248  1.00  0.00     0.208 C 
BRANCH   9  10
HETATM   10  C8  UNL     1      25.461   3.971  50.297  1.00  0.00    -0.032 A 
HETATM   11  C9  UNL     1      26.592   3.473  49.586  1.00  0.00     0.009 A 
HETATM   12  C10 UNL     1      27.298   4.404  48.850  1.00  0.00     0.004 A 
HETATM   13  C11 UNL     1      27.085   5.748  48.692  1.00  0.00     0.042 A 
HETATM   14  C12 UNL     1      25.961   6.222  49.389  1.00  0.00     0.117 A 
HETATM   15  F1  UNL     1      25.696   7.546  49.253  1.00  0.00    -0.206 F 
HETATM   16  C13 UNL     1      25.221   5.341  50.144  1.00  0.00     0.051 A 
ENDBRANCH   9  10
ENDBRANCH   8   9
ENDBRANCH   5   8
BRANCH   1  17
HETATM   17  N2  UNL     1      27.063   1.036  54.364  1.00  0.00    -0.072 NA
HETATM   18  C2  UNL     1      28.101   0.201  54.201  1.00  0.00     0.311 C 
BRANCH  18  19
HETATM   19  N1  UNL     1      28.793  -1.053  53.925  1.00  0.00    -0.121 NA
HETATM   20  C1  UNL     1      28.210  -1.850  53.021  1.00  0.00     0.954 C 
ENDBRANCH  18  19
ENDBRANCH   1  17
TORSDOF 8
ENDMDL
