MODEL 1
REMARK VINA RESULT:      -7.1      0.000      0.000
REMARK  7 active torsions:
REMARK  status: ('A' for Active; 'I' for Inactive)
REMARK    1  A    between atoms: N1_2  and  C3_4 
REMARK    2  A    between atoms: C3_4  and  C4_5 
REMARK    3  A    between atoms: C4_5  and  C5_6 
REMARK    4  A    between atoms: C5_6  and  C6_8 
REMARK    5  A    between atoms: C9_11  and  O2_12 
REMARK    6  A    between atoms: O2_12  and  C10_13 
REMARK    7  A    between atoms: C10_13  and  C11_14 
ROOT
HETATM    1  C6  UNL     1      25.482   0.778  52.295  1.00  0.00     0.010 A 
HETATM    2  C7  UNL     1      24.293   1.506  52.180  1.00  0.00     0.018 A 
HETATM    3  C8  UNL     1      24.153   2.741  51.617  1.00  0.00     0.037 A 
HETATM    4  C9  UNL     1      25.269   3.336  51.113  1.00  0.00     0.069 A 
HETATM    5  C17 UNL     1      26.499   2.726  51.163  1.00  0.00     0.037 A 
HETATM    6  C18 UNL     1      26.559   1.486  51.745  1.00  0.00     0.018 A 
ENDROOT
BRANCH   4   7
HETATM    7  O2  UNL     1      25.223   4.594  50.522  1.00  0.00    -0.347 OA
BRANCH   7   8
HETATM    8  C10 UNL     1      25.155   4.803  49.146  1.00  0.00     0.214 C 
BRANCH   8   9
HETATM    9  C11 UNL     1      26.418   5.448  48.701  1.00  0.00    -0.034 A 
HETATM   10  C12 UNL     1      26.250   6.781  48.311  1.00  0.00     0.009 A 
HETATM   11  C13 UNL     1      27.375   7.463  47.882  1.00  0.00     0.001 A 
HETATM   12  C14 UNL     1      28.611   6.876  47.834  1.00  0.00     0.000 A 
HETATM   13  C15 UNL     1      28.765   5.545  48.227  1.00  0.00     0.001 A 
HETATM   14  C16 UNL     1      27.653   4.856  48.655  1.00  0.00     0.009 A 
ENDBRANCH   8   9
ENDBRANCH   7   8
ENDBRANCH   4   7
BRANCH   1  15
HETATM   15  C5  UNL     1      25.615  -0.560  52.921  1.00  0.00     0.161 C 
HETATM   16  O1  UNL     1      24.748  -0.720  53.814  1.00  0.00    -0.292 OA
BRANCH  15  17
HETATM   17  C4  UNL     1      26.724  -1.316  52.310  1.00  0.00     0.114 C 
BRANCH  17  18
HETATM   18  C3  UNL     1      27.848  -1.554  53.231  1.00  0.00     0.279 C 
BRANCH  18  19
HETATM   19  N1  UNL     1      28.662  -0.527  53.695  1.00  0.00     0.080 N 
HETATM   20  C1  UNL     1      28.454   0.159  54.893  1.00  0.00     0.309 C 
HETATM   21  C2  UNL     1      30.053  -0.987  53.623  1.00  0.00     0.309 C 
ENDBRANCH  18  19
ENDBRANCH  17  18
ENDBRANCH  15  17
ENDBRANCH   1  15
TORSDOF 7
ENDMDL
MODEL 2
REMARK VINA RESULT:      -7.1      4.941      7.719
REMARK  7 active torsions:
REMARK  status: ('A' for Active; 'I' for Inactive)
REMARK    1  A    between atoms: N1_2  and  C3_4 
REMARK    2  A    between atoms: C3_4  and  C4_5 
REMARK    3  A    between atoms: C4_5  and  C5_6 
REMARK    4  A    between atoms: C5_6  and  C6_8 
REMARK    5  A    between atoms: C9_11  and  O2_12 
REMARK    6  A    between atoms: O2_12  and  C10_13 
REMARK    7  A    between atoms: C10_13  and  C11_14 
ROOT
HETATM    1  C6  UNL     1      24.065  -0.425  53.840  1.00  0.00     0.010 A 
HETATM    2  C7  UNL     1      22.903  -0.889  54.466  1.00  0.00     0.018 A 
HETATM    3  C8  UNL     1      21.621  -0.546  54.146  1.00  0.00     0.037 A 
HETATM    4  C9  UNL     1      21.439   0.331  53.121  1.00  0.00     0.069 A 
HETATM    5  C17 UNL     1      22.498   0.860  52.424  1.00  0.00     0.037 A 
HETATM    6  C18 UNL     1      23.755   0.467  52.805  1.00  0.00     0.018 A 
ENDROOT
BRANCH   4   7
HETATM    7  O2  UNL     1      20.170   0.739  52.726  1.00  0.00    -0.347 OA
BRANCH   7   8
HETATM    8  C10 UNL     1      19.646   0.524  51.452  1.00  0.00     0.214 C 
BRANCH   8   9
HETATM    9  C11 UNL     1      18.343  -0.178  51.587  1.00  0.00    -0.034 A 
HETATM   10  C12 UNL     1      17.502   0.002  50.482  1.00  0.00     0.009 A 
HETATM   11  C13 UNL     1      16.266  -0.618  50.519  1.00  0.00     0.001 A 
HETATM   12  C14 UNL     1      15.861  -1.379  51.583  1.00  0.00     0.000 A 
HETATM   13  C15 UNL     1      16.710  -1.550  52.679  1.00  0.00     0.001 A 
HETATM   14  C16 UNL     1      17.942  -0.938  52.654  1.00  0.00     0.009 A 
ENDBRANCH   8   9
ENDBRANCH   7   8
ENDBRANCH   4   7
BRANCH   1  15
HETATM   15  C5  UNL     1      25.451  -0.802  54.209  1.00  0.00     0.161 C 
HETATM   16  O1  UNL     1      25.581  -0.848  55.456  1.00  0.00    -0.292 OA
BRANCH  15  17
HETATM   17  C4  UNL     1      26.273  -1.018  53.004  1.00  0.00     0.114 C 
BRANCH  17  18
HETATM   18  C3  UNL     1      27.534  -0.256  53.012  1.00  0.00     0.279 C 
BRANCH  18  19
HETATM   19  N1  UNL     1      28.590  -0.569  53.860  1.00  0.00     0.080 N 
HETATM   20  C1  UNL     1      29.828  -1.049  53.428  1.00  0.00     0.309 C 
HETATM   21  C2  UNL     1      28.788   0.563  54.771  1.00  0.00     0.309 C 
ENDBRANCH  18  19
ENDBRANCH  17  18
ENDBRANCH  15  17
ENDBRANCH   1  15
TORSDOF 7
ENDMDL
MODEL 3
REMARK VINA RESULT:      -7.0      4.644      7.724
REMARK  7 active torsions:
REMARK  status: ('A' for Active; 'I' for Inactive)
REMARK    1  A    between atoms: N1_2  and  C3_4 
REMARK    2  A    between atoms: C3_4  and  C4_5 
REMARK    3  A    between atoms: C4_5  and  C5_6 
REMARK    4  A    between atoms: C5_6  and  C6_8 
REMARK    5  A    between atoms: C9_11  and  O2_12 
REMARK    6  A    between atoms: O2_12  and  C10_13 
REMARK    7  A    between atoms: C10_13  and  C11_14 
ROOT
HETATM    1  C6  UNL     1      24.202  -0.451  53.970  1.00  0.00     0.010 A 
HETATM    2  C7  UNL     1      23.211  -1.076  54.734  1.00  0.00     0.018 A 
HETATM    3  C8  UNL     1      21.863  -0.914  54.596  1.00  0.00     0.037 A 
HETATM    4  C9  UNL     1      21.424  -0.067  53.626  1.00  0.00     0.069 A 
HETATM    5  C17 UNL     1      22.296   0.608  52.806  1.00  0.00     0.037 A 
HETATM    6  C18 UNL     1      23.635   0.394  53.007  1.00  0.00     0.018 A 
ENDROOT
BRANCH   4   7
HETATM    7  O2  UNL     1      20.069   0.161  53.413  1.00  0.00    -0.347 OA
BRANCH   7   8
HETATM    8  C10 UNL     1      19.097  -0.838  53.454  1.00  0.00     0.214 C 
BRANCH   8   9
HETATM    9  C11 UNL     1      18.158  -0.633  52.321  1.00  0.00    -0.034 A 
HETATM   10  C12 UNL     1      18.706   0.125  51.280  1.00  0.00     0.009 A 
HETATM   11  C13 UNL     1      17.902   0.365  50.180  1.00  0.00     0.001 A 
HETATM   12  C14 UNL     1      16.620  -0.109  50.094  1.00  0.00     0.000 A 
HETATM   13  C15 UNL     1      16.086  -0.864  51.141  1.00  0.00     0.001 A 
HETATM   14  C16 UNL     1      16.876  -1.109  52.240  1.00  0.00     0.009 A 
ENDBRANCH   8   9
ENDBRANCH   7   8
ENDBRANCH   4   7
BRANCH   1  15
HETATM   15  C5  UNL     1      25.664  -0.632  54.143  1.00  0.00     0.161 C 
HETATM   16  O1  UNL     1      25.986  -0.516  55.350  1.00  0.00    -0.292 OA
BRANCH  15  17
HETATM   17  C4  UNL     1      26.315  -0.901  52.847  1.00  0.00     0.114 C 
BRANCH  17  18
HETATM   18  C3  UNL     1      27.304   0.122  52.465  1.00  0.00     0.279 C 
BRANCH  18  19
HETATM   19  N1  UNL     1      27.170   1.459  52.822  1.00  0.00     0.080 N 
HETATM   20  C1  UNL     1      28.154   2.197  53.483  1.00  0.00     0.309 C 
HETATM   21  C2  UNL     1      26.706   2.197  51.643  1.00  0.00     0.309 C 
ENDBRANCH  18  19
ENDBRANCH  17  18
ENDBRANCH  15  17
ENDBRANCH   1  15
TORSDOF 7
ENDMDL
MODEL 4
REMARK VINA RESULT:      -7.0      5.629      9.173
REMARK  7 active torsions:
REMARK  status: ('A' for Active; 'I' for Inactive)
REMARK    1  A    between atoms: N1_2  and  C3_4 
REMARK    2  A    between atoms: C3_4  and  C4_5 
REMARK    3  A    between atoms: C4_5  and  C5_6 
REMARK    4  A    between atoms: C5_6  and  C6_8 
REMARK    5  A    between atoms: C9_11  and  O2_12 
REMARK    6  A    between atoms: O2_12  and  C10_13 
REMARK    7  A    between atoms: C10_13  and  C11_14 
ROOT
HETATM    1  C6  UNL     1      23.366   0.175  53.383  1.00  0.00     0.010 A 
HETATM    2  C7  UNL     1      22.288   0.659  52.635  1.00  0.00     0.018 A 
HETATM    3  C8  UNL     1      20.992   0.238  52.719  1.00  0.00     0.037 A 
HETATM    4  C9  UNL     1      20.705  -0.748  53.612  1.00  0.00     0.069 A 
HETATM    5  C17 UNL     1      21.674  -1.308  54.408  1.00  0.00     0.037 A 
HETATM    6  C18 UNL     1      22.952  -0.832  54.265  1.00  0.00     0.018 A 
ENDROOT
BRANCH   4   7
HETATM    7  O2  UNL     1      19.414  -1.241  53.766  1.00  0.00    -0.347 OA
BRANCH   7   8
HETATM    8  C10 UNL     1      18.339  -0.867  52.961  1.00  0.00     0.214 C 
BRANCH   8   9
HETATM    9  C11 UNL     1      17.339  -1.966  52.965  1.00  0.00    -0.034 A 
HETATM   10  C12 UNL     1      17.756  -3.090  53.687  1.00  0.00     0.009 A 
HETATM   11  C13 UNL     1      16.886  -4.164  53.747  1.00  0.00     0.001 A 
HETATM   12  C14 UNL     1      15.663  -4.149  53.131  1.00  0.00     0.000 A 
HETATM   13  C15 UNL     1      15.259  -3.021  52.413  1.00  0.00     0.001 A 
HETATM   14  C16 UNL     1      16.116  -1.947  52.347  1.00  0.00     0.009 A 
ENDBRANCH   8   9
ENDBRANCH   7   8
ENDBRANCH   4   7
BRANCH   1  15
HETATM   15  C5  UNL     1      24.770   0.639  53.269  1.00  0.00     0.161 C 
HETATM   16  O1  UNL     1      24.841   1.668  52.555  1.00  0.00    -0.292 OA
BRANCH  15  17
HETATM   17  C4  UNL     1      25.675  -0.241  54.032  1.00  0.00     0.114 C 
BRANCH  17  18
HETATM   18  C3  UNL     1      26.844   0.462  54.587  1.00  0.00     0.279 C 
BRANCH  18  19
HETATM   19  N1  UNL     1      27.973   0.747  53.827  1.00  0.00     0.080 N 
HETATM   20  C1  UNL     1      28.478   2.033  53.622  1.00  0.00     0.309 C 
HETATM   21  C2  UNL     1      29.052  -0.143  54.270  1.00  0.00     0.309 C 
ENDBRANCH  18  19
ENDBRANCH  17  18
ENDBRANCH  15  17
ENDBRANCH   1  15
TORSDOF 7
ENDMDL
MODEL 5
REMARK VINA RESULT:      -6.8      3.950      4.786
REMARK  7 active torsions:
REMARK  status: ('A' for Active; 'I' for Inactive)
REMARK    1  A    between atoms: N1_2  and  C3_4 
REMARK    2  A    between atoms: C3_4  and  C4_5 
REMARK    3  A    between atoms: C4_5  and  C5_6 
REMARK    4  A    between atoms: C5_6  and  C6_8 
REMARK    5  A    between atoms: C9_11  and  O2_12 
REMARK    6  A    between atoms: O2_12  and  C10_13 
REMARK    7  A    between atoms: C10_13  and  C11_14 
ROOT
HETATM    1  C6  UNL     1      24.323  -0.106  53.558  1.00  0.00     0.010 A 
HETATM    2  C7  UNL     1      24.211   1.177  53.010  1.00  0.00     0.018 A 
HETATM    3  C8  UNL     1      23.065   1.767  52.562  1.00  0.00     0.037 A 
HETATM    4  C9  UNL     1      21.910   1.051  52.649  1.00  0.00     0.069 A 
HETATM    5  C17 UNL     1      21.884  -0.221  53.168  1.00  0.00     0.037 A 
HETATM    6  C18 UNL     1      23.077  -0.745  53.597  1.00  0.00     0.018 A 
ENDROOT
BRANCH   4   7
HETATM    7  O2  UNL     1      20.695   1.569  52.216  1.00  0.00    -0.347 OA
BRANCH   7   8
HETATM    8  C10 UNL     1      20.065   1.189  51.032  1.00  0.00     0.214 C 
BRANCH   8   9
HETATM    9  C11 UNL     1      20.815   1.770  49.888  1.00  0.00    -0.034 A 
HETATM   10  C12 UNL     1      20.796   3.169  49.870  1.00  0.00     0.009 A 
HETATM   11  C13 UNL     1      21.472   3.798  48.839  1.00  0.00     0.001 A 
HETATM   12  C14 UNL     1      22.137   3.099  47.867  1.00  0.00     0.000 A 
HETATM   13  C15 UNL     1      22.147   1.703  47.897  1.00  0.00     0.001 A 
HETATM   14  C16 UNL     1      21.478   1.066  48.918  1.00  0.00     0.009 A 
ENDBRANCH   8   9
ENDBRANCH   7   8
ENDBRANCH   4   7
BRANCH   1  15
HETATM   15  C5  UNL     1      25.581  -0.733  54.030  1.00  0.00     0.161 C 
HETATM   16  O1  UNL     1      25.579  -0.846  55.279  1.00  0.00    -0.292 OA
BRANCH  15  17
HETATM   17  C4  UNL     1      26.468  -1.047  52.894  1.00  0.00     0.114 C 
BRANCH  17  18
HETATM   18  C3  UNL     1      27.734  -0.296  52.915  1.00  0.00     0.279 C 
BRANCH  18  19
HETATM   19  N1  UNL     1      28.694  -0.480  53.904  1.00  0.00     0.080 N 
HETATM   20  C1  UNL     1      29.910  -1.137  53.705  1.00  0.00     0.309 C 
HETATM   21  C2  UNL     1      28.932   0.816  54.548  1.00  0.00     0.309 C 
ENDBRANCH  18  19
ENDBRANCH  17  18
ENDBRANCH  15  17
ENDBRANCH   1  15
TORSDOF 7
ENDMDL
MODEL 6
REMARK VINA RESULT:      -6.7      3.307      8.131
REMARK  7 active torsions:
REMARK  status: ('A' for Active; 'I' for Inactive)
REMARK    1  A    between atoms: N1_2  and  C3_4 
REMARK    2  A    between atoms: C3_4  and  C4_5 
REMARK    3  A    between atoms: C4_5  and  C5_6 
REMARK    4  A    between atoms: C5_6  and  C6_8 
REMARK    5  A    between atoms: C9_11  and  O2_12 
REMARK    6  A    between atoms: O2_12  and  C10_13 
REMARK    7  A    between atoms: C10_13  and  C11_14 
ROOT
HETATM    1  C6  UNL     1      26.228   4.268  49.470  1.00  0.00     0.010 A 
HETATM    2  C7  UNL     1      24.836   4.230  49.338  1.00  0.00     0.018 A 
HETATM    3  C8  UNL     1      23.986   3.379  49.983  1.00  0.00     0.037 A 
HETATM    4  C9  UNL     1      24.530   2.473  50.842  1.00  0.00     0.069 A 
HETATM    5  C17 UNL     1      25.885   2.407  51.061  1.00  0.00     0.037 A 
HETATM    6  C18 UNL     1      26.673   3.296  50.375  1.00  0.00     0.018 A 
ENDROOT
BRANCH   4   7
HETATM    7  O2  UNL     1      23.743   1.566  51.542  1.00  0.00    -0.347 OA
BRANCH   7   8
HETATM    8  C10 UNL     1      24.202   0.807  52.617  1.00  0.00     0.214 C 
BRANCH   8   9
HETATM    9  C11 UNL     1      23.051   0.073  53.205  1.00  0.00    -0.034 A 
HETATM   10  C12 UNL     1      21.828   0.391  52.603  1.00  0.00     0.009 A 
HETATM   11  C13 UNL     1      20.700  -0.248  53.085  1.00  0.00     0.001 A 
HETATM   12  C14 UNL     1      20.755  -1.157  54.109  1.00  0.00     0.000 A 
HETATM   13  C15 UNL     1      21.983  -1.465  54.700  1.00  0.00     0.001 A 
HETATM   14  C16 UNL     1      23.112  -0.835  54.229  1.00  0.00     0.009 A 
ENDBRANCH   8   9
ENDBRANCH   7   8
ENDBRANCH   4   7
BRANCH   1  15
HETATM   15  C5  UNL     1      27.136   5.195  48.751  1.00  0.00     0.161 C 
HETATM   16  O1  UNL     1      28.229   4.636  48.495  1.00  0.00    -0.292 OA
BRANCH  15  17
HETATM   17  C4  UNL     1      26.489   6.503  48.540  1.00  0.00     0.114 C 
BRANCH  17  18
HETATM   18  C3  UNL     1      27.443   7.592  48.274  1.00  0.00     0.279 C 
BRANCH  18  19
HETATM   19  N1  UNL     1      28.001   8.361  49.289  1.00  0.00     0.080 N 
HETATM   20  C1  UNL     1      28.975   9.341  49.087  1.00  0.00     0.309 C 
HETATM   21  C2  UNL     1      26.906   8.910  50.094  1.00  0.00     0.309 C 
ENDBRANCH  18  19
ENDBRANCH  17  18
ENDBRANCH  15  17
ENDBRANCH   1  15
TORSDOF 7
ENDMDL
MODEL 7
REMARK VINA RESULT:      -6.7      3.542      7.836
REMARK  7 active torsions:
REMARK  status: ('A' for Active; 'I' for Inactive)
REMARK    1  A    between atoms: N1_2  and  C3_4 
REMARK    2  A    between atoms: C3_4  and  C4_5 
REMARK    3  A    between atoms: C4_5  and  C5_6 
REMARK    4  A    between atoms: C5_6  and  C6_8 
REMARK    5  A    between atoms: C9_11  and  O2_12 
REMARK    6  A    between atoms: O2_12  and  C10_13 
REMARK    7  A    between atoms: C10_13  and  C11_14 
ROOT
HETATM    1  C6  UNL     1      26.933   5.151  48.929  1.00  0.00     0.010 A 
HETATM    2  C7  UNL     1      25.757   5.848  49.225  1.00  0.00     0.018 A 
HETATM    3  C8  UNL     1      24.639   5.333  49.813  1.00  0.00     0.037 A 
HETATM    4  C9  UNL     1      24.653   4.015  50.152  1.00  0.00     0.069 A 
HETATM    5  C17 UNL     1      25.748   3.219  49.916  1.00  0.00     0.037 A 
HETATM    6  C18 UNL     1      26.833   3.809  49.321  1.00  0.00     0.018 A 
ENDROOT
BRANCH   4   7
HETATM    7  O2  UNL     1      23.559   3.404  50.754  1.00  0.00    -0.347 OA
BRANCH   7   8
HETATM    8  C10 UNL     1      23.033   2.178  50.349  1.00  0.00     0.214 C 
BRANCH   8   9
HETATM    9  C11 UNL     1      23.038   1.252  51.511  1.00  0.00    -0.034 A 
HETATM   10  C12 UNL     1      21.823   0.578  51.684  1.00  0.00     0.009 A 
HETATM   11  C13 UNL     1      21.736  -0.309  52.742  1.00  0.00     0.001 A 
HETATM   12  C14 UNL     1      22.783  -0.532  53.597  1.00  0.00     0.000 A 
HETATM   13  C15 UNL     1      23.989   0.147  53.412  1.00  0.00     0.001 A 
HETATM   14  C16 UNL     1      24.087   1.032  52.363  1.00  0.00     0.009 A 
ENDBRANCH   8   9
ENDBRANCH   7   8
ENDBRANCH   4   7
BRANCH   1  15
HETATM   15  C5  UNL     1      28.136   5.727  48.279  1.00  0.00     0.161 C 
HETATM   16  O1  UNL     1      29.081   4.902  48.284  1.00  0.00    -0.292 OA
BRANCH  15  17
HETATM   17  C4  UNL     1      27.870   7.100  47.811  1.00  0.00     0.114 C 
BRANCH  17  18
HETATM   18  C3  UNL     1      28.894   8.070  48.234  1.00  0.00     0.279 C 
BRANCH  18  19
HETATM   19  N1  UNL     1      28.582   9.219  48.953  1.00  0.00     0.080 N 
HETATM   20  C1  UNL     1      27.679   9.258  50.017  1.00  0.00     0.309 C 
HETATM   21  C2  UNL     1      29.840   9.861  49.347  1.00  0.00     0.309 C 
ENDBRANCH  18  19
ENDBRANCH  17  18
ENDBRANCH  15  17
ENDBRANCH   1  15
TORSDOF 7
ENDMDL
MODEL 8
REMARK VINA RESULT:      -6.6      2.793      7.504
REMARK  7 active torsions:
REMARK  status: ('A' for Active; 'I' for Inactive)
REMARK    1  A    between atoms: N1_2  and  C3_4 
REMARK    2  A    between atoms: C3_4  and  C4_5 
REMARK    3  A    between atoms: C4_5  and  C5_6 
REMARK    4  A    between atoms: C5_6  and  C6_8 
REMARK    5  A    between atoms: C9_11  and  O2_12 
REMARK    6  A    between atoms: O2_12  and  C10_13 
REMARK    7  A    between atoms: C10_13  and  C11_14 
ROOT
HETATM    1  C6  UNL     1      26.556   5.653  48.943  1.00  0.00     0.010 A 
HETATM    2  C7  UNL     1      25.388   5.708  49.712  1.00  0.00     0.018 A 
HETATM    3  C8  UNL     1      24.823   4.672  50.397  1.00  0.00     0.037 A 
HETATM    4  C9  UNL     1      25.442   3.462  50.336  1.00  0.00     0.069 A 
HETATM    5  C17 UNL     1      26.597   3.275  49.616  1.00  0.00     0.037 A 
HETATM    6  C18 UNL     1      27.104   4.363  48.955  1.00  0.00     0.018 A 
ENDROOT
BRANCH   4   7
HETATM    7  O2  UNL     1      24.938   2.349  51.001  1.00  0.00    -0.347 OA
BRANCH   7   8
HETATM    8  C10 UNL     1      24.998   2.176  52.383  1.00  0.00     0.214 C 
BRANCH   8   9
HETATM    9  C11 UNL     1      26.194   1.355  52.707  1.00  0.00    -0.034 A 
HETATM   10  C12 UNL     1      25.997  -0.014  52.495  1.00  0.00     0.009 A 
HETATM   11  C13 UNL     1      27.060  -0.857  52.768  1.00  0.00     0.001 A 
HETATM   12  C14 UNL     1      28.262  -0.390  53.229  1.00  0.00     0.000 A 
HETATM   13  C15 UNL     1      28.445   0.979  53.436  1.00  0.00     0.001 A 
HETATM   14  C16 UNL     1      27.395   1.826  53.167  1.00  0.00     0.009 A 
ENDBRANCH   8   9
ENDBRANCH   7   8
ENDBRANCH   4   7
BRANCH   1  15
HETATM   15  C5  UNL     1      27.149   6.789  48.197  1.00  0.00     0.161 C 
HETATM   16  O1  UNL     1      26.298   7.691  48.009  1.00  0.00    -0.292 OA
BRANCH  15  17
HETATM   17  C4  UNL     1      28.570   6.532  47.895  1.00  0.00     0.114 C 
BRANCH  17  18
HETATM   18  C3  UNL     1      29.400   7.748  47.903  1.00  0.00     0.279 C 
BRANCH  18  19
HETATM   19  N1  UNL     1      29.975   8.251  49.065  1.00  0.00     0.080 N 
HETATM   20  C1  UNL     1      31.350   8.312  49.297  1.00  0.00     0.309 C 
HETATM   21  C2  UNL     1      29.368   9.558  49.339  1.00  0.00     0.309 C 
ENDBRANCH  18  19
ENDBRANCH  17  18
ENDBRANCH  15  17
ENDBRANCH   1  15
TORSDOF 7
ENDMDL
MODEL 9
REMARK VINA RESULT:      -6.6      3.376      5.925
REMARK  7 active torsions:
REMARK  status: ('A' for Active; 'I' for Inactive)
REMARK    1  A    between atoms: N1_2  and  C3_4 
REMARK    2  A    between atoms: C3_4  and  C4_5 
REMARK    3  A    between atoms: C4_5  and  C5_6 
REMARK    4  A    between atoms: C5_6  and  C6_8 
REMARK    5  A    between atoms: C9_11  and  O2_12 
REMARK    6  A    between atoms: O2_12  and  C10_13 
REMARK    7  A    between atoms: C10_13  and  C11_14 
ROOT
HETATM    1  C6  UNL     1      21.668   2.716  51.987  1.00  0.00     0.010 A 
HETATM    2  C7  UNL     1      22.528   3.494  52.769  1.00  0.00     0.018 A 
HETATM    3  C8  UNL     1      23.843   3.753  52.511  1.00  0.00     0.037 A 
HETATM    4  C9  UNL     1      24.385   3.209  51.387  1.00  0.00     0.069 A 
HETATM    5  C17 UNL     1      23.647   2.425  50.534  1.00  0.00     0.037 A 
HETATM    6  C18 UNL     1      22.334   2.210  50.862  1.00  0.00     0.018 A 
ENDROOT
BRANCH   4   7
HETATM    7  O2  UNL     1      25.717   3.417  51.044  1.00  0.00    -0.347 OA
BRANCH   7   8
HETATM    8  C10 UNL     1      26.579   2.405  50.626  1.00  0.00     0.214 C 
BRANCH   8   9
HETATM    9  C11 UNL     1      26.890   1.536  51.791  1.00  0.00    -0.034 A 
HETATM   10  C12 UNL     1      27.665   2.176  52.765  1.00  0.00     0.009 A 
HETATM   11  C13 UNL     1      28.002   1.442  53.889  1.00  0.00     0.001 A 
HETATM   12  C14 UNL     1      27.606   0.143  54.060  1.00  0.00     0.000 A 
HETATM   13  C15 UNL     1      26.833  -0.484  53.079  1.00  0.00     0.001 A 
HETATM   14  C16 UNL     1      26.491   0.236  51.957  1.00  0.00     0.009 A 
ENDBRANCH   8   9
ENDBRANCH   7   8
ENDBRANCH   4   7
BRANCH   1  15
HETATM   15  C5  UNL     1      20.244   2.437  52.290  1.00  0.00     0.161 C 
HETATM   16  O1  UNL     1      19.578   3.500  52.309  1.00  0.00    -0.292 OA
BRANCH  15  17
HETATM   17  C4  UNL     1      20.022   0.991  52.478  1.00  0.00     0.114 C 
BRANCH  17  18
HETATM   18  C3  UNL     1      20.727   0.438  53.646  1.00  0.00     0.279 C 
BRANCH  18  19
HETATM   19  N1  UNL     1      21.713  -0.536  53.530  1.00  0.00     0.080 N 
HETATM   20  C1  UNL     1      23.084  -0.280  53.618  1.00  0.00     0.309 C 
HETATM   21  C2  UNL     1      21.359  -1.646  54.420  1.00  0.00     0.309 C 
ENDBRANCH  18  19
ENDBRANCH  17  18
ENDBRANCH  15  17
ENDBRANCH   1  15
TORSDOF 7
ENDMDL
