MODEL 1
REMARK VINA RESULT:      -8.4      0.000      0.000
REMARK  5 active torsions:
REMARK  status: ('A' for Active; 'I' for Inactive)
REMARK    1  A    between atoms: C2_3  and  C3_4 
REMARK    2  A    between atoms: N4_19  and  C14_20 
REMARK    3  A    between atoms: C14_20  and  C15_21 
REMARK    4  A    between atoms: C15_21  and  C16_22 
REMARK    5  A    between atoms: C16_22  and  N5_23 
ROOT
HETATM    1  O1  UNL     1      22.279  -1.986  55.295  1.00  0.00    -0.284 OA
HETATM    2  C1  UNL     1      21.584  -1.032  54.861  1.00  0.00     0.218 C 
HETATM    3  C2  UNL     1      21.029   0.078  54.436  1.00  0.00     0.045 C 
ENDROOT
BRANCH   3   4
HETATM    4  C3  UNL     1      20.998   0.208  52.948  1.00  0.00     0.061 C 
HETATM    5  C4  UNL     1      19.576   0.358  52.486  1.00  0.00     0.003 C 
HETATM    6  C5  UNL     1      18.637  -0.226  51.709  1.00  0.00     0.086 C 
HETATM    7  N1  UNL     1      17.301   0.053  51.359  1.00  0.00    -0.354 N 
HETATM    8  C6  UNL     1      17.571   1.505  51.267  1.00  0.00     0.109 A 
HETATM    9  H5  UNL     1      16.692  -0.742  51.298  1.00  0.00     0.166 HD
HETATM   10  C7  UNL     1      18.884   2.021  50.821  1.00  0.00     0.201 A 
HETATM   11  N3  UNL     1      16.291   1.877  51.823  1.00  0.00    -0.234 NA
HETATM   12  C8  UNL     1      18.448   3.322  51.180  1.00  0.00     0.208 A 
HETATM   13  N2  UNL     1      17.367   4.087  51.713  1.00  0.00     0.346 NA
HETATM   14  C10 UNL     1      19.757   4.005  50.999  1.00  0.00     0.051 C 
HETATM   15  C9  UNL     1      16.271   3.267  52.026  1.00  0.00     0.444 A 
HETATM   16  C11 UNL     1      21.044   3.695  51.304  1.00  0.00     0.093 C 
HETATM   17  O2  UNL     1      21.862   4.731  50.903  1.00  0.00    -0.347 OA
HETATM   18  C21 UNL     1      21.894   2.644  51.922  1.00  0.00     0.060 C 
HETATM   19  C12 UNL     1      23.075   4.647  50.171  1.00  0.00     0.195 C 
HETATM   20  C13 UNL     1      24.023   3.656  50.803  1.00  0.00     0.149 C 
HETATM   21  N4  UNL     1      23.282   3.032  51.930  1.00  0.00    -0.377 N 
HETATM   22  C22 UNL     1      21.706   1.418  52.479  1.00  0.00     0.018 C 
BRANCH  21  23
HETATM   23  C14 UNL     1      24.087   2.825  53.117  1.00  0.00     0.125 C 
BRANCH  23  24
HETATM   24  C15 UNL     1      25.440   2.324  52.649  1.00  0.00     0.050 C 
BRANCH  24  25
HETATM   25  C16 UNL     1      25.518   0.802  52.769  1.00  0.00     0.274 C 
BRANCH  25  26
HETATM   26  N5  UNL     1      26.885   0.432  52.467  1.00  0.00     0.092 N 
HETATM   27  C17 UNL     1      27.839   1.175  53.260  1.00  0.00     0.298 C 
HETATM   28  C18 UNL     1      28.076   0.475  54.568  1.00  0.00     0.198 C 
HETATM   29  O3  UNL     1      28.674  -0.770  54.401  1.00  0.00    -0.388 OA
HETATM   30  C19 UNL     1      28.403  -1.340  53.178  1.00  0.00     0.198 C 
HETATM   31  C20 UNL     1      27.014  -0.990  52.651  1.00  0.00     0.298 C 
ENDBRANCH  25  26
ENDBRANCH  24  25
ENDBRANCH  23  24
ENDBRANCH  21  23
ENDBRANCH   3   4
TORSDOF 5
ENDMDL
MODEL 2
REMARK VINA RESULT:      -8.1      2.759      7.442
REMARK  5 active torsions:
REMARK  status: ('A' for Active; 'I' for Inactive)
REMARK    1  A    between atoms: C2_3  and  C3_4 
REMARK    2  A    between atoms: N4_19  and  C14_20 
REMARK    3  A    between atoms: C14_20  and  C15_21 
REMARK    4  A    between atoms: C15_21  and  C16_22 
REMARK    5  A    between atoms: C16_22  and  N5_23 
ROOT
HETATM    1  O1  UNL     1      22.875   5.991  51.405  1.00  0.00    -0.284 OA
HETATM    2  C1  UNL     1      23.309   4.972  52.001  1.00  0.00     0.218 C 
HETATM    3  C2  UNL     1      23.580   3.907  52.717  1.00  0.00     0.045 C 
ENDROOT
BRANCH   3   4
HETATM    4  C3  UNL     1      23.387   2.620  51.983  1.00  0.00     0.061 C 
HETATM    5  C4  UNL     1      24.227   1.549  52.618  1.00  0.00     0.003 C 
HETATM    6  C5  UNL     1      25.232   0.683  52.359  1.00  0.00     0.086 C 
HETATM    7  N1  UNL     1      25.930  -0.300  53.086  1.00  0.00    -0.354 N 
HETATM    8  C6  UNL     1      24.696  -0.749  53.767  1.00  0.00     0.109 A 
HETATM    9  H5  UNL     1      26.917  -0.353  52.910  1.00  0.00     0.166 HD
HETATM   10  C7  UNL     1      23.380  -0.704  53.093  1.00  0.00     0.201 A 
HETATM   11  N3  UNL     1      25.364  -0.992  55.026  1.00  0.00    -0.234 NA
HETATM   12  C8  UNL     1      22.781  -1.047  54.333  1.00  0.00     0.208 A 
HETATM   13  N2  UNL     1      23.026  -1.352  55.705  1.00  0.00     0.346 NA
HETATM   14  C10 UNL     1      21.370  -0.841  53.910  1.00  0.00     0.051 C 
HETATM   15  C9  UNL     1      24.399  -1.307  55.997  1.00  0.00     0.444 A 
HETATM   16  C11 UNL     1      20.724   0.095  53.166  1.00  0.00     0.093 C 
HETATM   17  O2  UNL     1      19.382  -0.222  53.113  1.00  0.00    -0.347 OA
HETATM   18  C21 UNL     1      20.937   1.345  52.392  1.00  0.00     0.060 C 
HETATM   19  C12 UNL     1      18.541  -0.253  51.970  1.00  0.00     0.195 C 
HETATM   20  C13 UNL     1      18.645   1.032  51.184  1.00  0.00     0.149 C 
HETATM   21  N4  UNL     1      19.697   1.843  51.850  1.00  0.00    -0.377 N 
HETATM   22  C22 UNL     1      21.990   2.138  52.060  1.00  0.00     0.018 C 
BRANCH  21  23
HETATM   23  C14 UNL     1      19.385   3.256  51.933  1.00  0.00     0.125 C 
BRANCH  23  24
HETATM   24  C15 UNL     1      18.904   3.680  50.558  1.00  0.00     0.050 C 
BRANCH  24  25
HETATM   25  C16 UNL     1      19.987   4.482  49.837  1.00  0.00     0.274 C 
BRANCH  25  26
HETATM   26  N5  UNL     1      20.745   3.536  49.044  1.00  0.00     0.092 N 
HETATM   27  C17 UNL     1      19.898   2.764  48.163  1.00  0.00     0.298 C 
HETATM   28  C18 UNL     1      19.702   3.496  46.866  1.00  0.00     0.198 C 
HETATM   29  O3  UNL     1      20.889   3.637  46.153  1.00  0.00    -0.388 OA
HETATM   30  C19 UNL     1      22.006   3.634  46.958  1.00  0.00     0.198 C 
HETATM   31  C20 UNL     1      21.757   4.266  48.326  1.00  0.00     0.298 C 
ENDBRANCH  25  26
ENDBRANCH  24  25
ENDBRANCH  23  24
ENDBRANCH  21  23
ENDBRANCH   3   4
TORSDOF 5
ENDMDL
MODEL 3
REMARK VINA RESULT:      -7.7      3.410      6.387
REMARK  5 active torsions:
REMARK  status: ('A' for Active; 'I' for Inactive)
REMARK    1  A    between atoms: C2_3  and  C3_4 
REMARK    2  A    between atoms: N4_19  and  C14_20 
REMARK    3  A    between atoms: C14_20  and  C15_21 
REMARK    4  A    between atoms: C15_21  and  C16_22 
REMARK    5  A    between atoms: C16_22  and  N5_23 
ROOT
HETATM    1  O1  UNL     1      29.139   5.662  48.384  1.00  0.00    -0.284 OA
HETATM    2  C1  UNL     1      28.055   5.056  48.582  1.00  0.00     0.218 C 
HETATM    3  C2  UNL     1      27.010   4.361  48.965  1.00  0.00     0.045 C 
ENDROOT
BRANCH   3   4
HETATM    4  C3  UNL     1      25.940   5.182  49.607  1.00  0.00     0.061 C 
HETATM    5  C4  UNL     1      25.320   6.090  48.582  1.00  0.00     0.003 C 
HETATM    6  C5  UNL     1      25.111   7.394  48.295  1.00  0.00     0.086 C 
HETATM    7  N1  UNL     1      24.481   8.110  47.259  1.00  0.00    -0.354 N 
HETATM    8  C6  UNL     1      23.380   7.126  47.174  1.00  0.00     0.109 A 
HETATM    9  H5  UNL     1      24.945   8.951  46.967  1.00  0.00     0.166 HD
HETATM   10  C7  UNL     1      22.896   6.402  48.369  1.00  0.00     0.201 A 
HETATM   11  N3  UNL     1      23.280   7.218  45.735  1.00  0.00    -0.234 NA
HETATM   12  C8  UNL     1      22.098   5.603  47.511  1.00  0.00     0.208 A 
HETATM   13  N2  UNL     1      21.719   5.362  46.156  1.00  0.00     0.346 NA
HETATM   14  C10 UNL     1      21.663   4.619  48.538  1.00  0.00     0.051 C 
HETATM   15  C9  UNL     1      22.374   6.245  45.281  1.00  0.00     0.444 A 
HETATM   16  C11 UNL     1      22.279   3.973  49.562  1.00  0.00     0.093 C 
HETATM   17  O2  UNL     1      21.365   3.151  50.188  1.00  0.00    -0.347 OA
HETATM   18  C21 UNL     1      23.588   3.824  50.250  1.00  0.00     0.060 C 
HETATM   19  C12 UNL     1      21.127   3.020  51.582  1.00  0.00     0.195 C 
HETATM   20  C13 UNL     1      22.414   2.776  52.332  1.00  0.00     0.149 C 
HETATM   21  N4  UNL     1      23.506   2.870  51.327  1.00  0.00    -0.377 N 
HETATM   22  C22 UNL     1      24.835   4.349  50.131  1.00  0.00     0.018 C 
BRANCH  21  23
HETATM   23  C14 UNL     1      24.551   1.881  51.502  1.00  0.00     0.125 C 
BRANCH  23  24
HETATM   24  C15 UNL     1      24.998   1.965  52.949  1.00  0.00     0.050 C 
BRANCH  24  25
HETATM   25  C16 UNL     1      25.473   0.599  53.442  1.00  0.00     0.274 C 
BRANCH  25  26
HETATM   26  N5  UNL     1      26.790   0.389  52.878  1.00  0.00     0.092 N 
HETATM   27  C17 UNL     1      27.815   1.104  53.606  1.00  0.00     0.298 C 
HETATM   28  C18 UNL     1      28.313   0.265  54.748  1.00  0.00     0.198 C 
HETATM   29  O3  UNL     1      28.953  -0.893  54.315  1.00  0.00    -0.388 OA
HETATM   30  C19 UNL     1      28.517  -1.322  53.083  1.00  0.00     0.198 C 
HETATM   31  C20 UNL     1      27.039  -1.028  52.838  1.00  0.00     0.298 C 
ENDBRANCH  25  26
ENDBRANCH  24  25
ENDBRANCH  23  24
ENDBRANCH  21  23
ENDBRANCH   3   4
TORSDOF 5
ENDMDL
MODEL 4
REMARK VINA RESULT:      -7.4      2.909      8.930
REMARK  5 active torsions:
REMARK  status: ('A' for Active; 'I' for Inactive)
REMARK    1  A    between atoms: C2_3  and  C3_4 
REMARK    2  A    between atoms: N4_19  and  C14_20 
REMARK    3  A    between atoms: C14_20  and  C15_21 
REMARK    4  A    between atoms: C15_21  and  C16_22 
REMARK    5  A    between atoms: C16_22  and  N5_23 
ROOT
HETATM    1  O1  UNL     1      22.160   6.146  51.147  1.00  0.00    -0.284 OA
HETATM    2  C1  UNL     1      22.448   5.111  51.801  1.00  0.00     0.218 C 
HETATM    3  C2  UNL     1      22.549   4.030  52.537  1.00  0.00     0.045 C 
ENDROOT
BRANCH   3   4
HETATM    4  C3  UNL     1      22.493   2.758  51.755  1.00  0.00     0.061 C 
HETATM    5  C4  UNL     1      23.367   1.727  52.410  1.00  0.00     0.003 C 
HETATM    6  C5  UNL     1      24.445   0.942  52.188  1.00  0.00     0.086 C 
HETATM    7  N1  UNL     1      25.166  -0.015  52.928  1.00  0.00    -0.354 N 
HETATM    8  C6  UNL     1      23.928  -0.570  53.518  1.00  0.00     0.109 A 
HETATM    9  H5  UNL     1      26.163   0.006  52.813  1.00  0.00     0.166 HD
HETATM   10  C7  UNL     1      22.655  -0.594  52.765  1.00  0.00     0.201 A 
HETATM   11  N3  UNL     1      24.534  -0.809  54.808  1.00  0.00    -0.234 NA
HETATM   12  C8  UNL     1      22.008  -1.018  53.954  1.00  0.00     0.208 A 
HETATM   13  N2  UNL     1      22.191  -1.352  55.329  1.00  0.00     0.346 NA
HETATM   14  C10 UNL     1      20.614  -0.896  53.450  1.00  0.00     0.051 C 
HETATM   15  C9  UNL     1      23.537  -1.222  55.708  1.00  0.00     0.444 A 
HETATM   16  C11 UNL     1      19.949   0.017  52.695  1.00  0.00     0.093 C 
HETATM   17  O2  UNL     1      18.639  -0.390  52.549  1.00  0.00    -0.347 OA
HETATM   18  C21 UNL     1      20.120   1.304  51.972  1.00  0.00     0.060 C 
HETATM   19  C12 UNL     1      17.873  -0.441  51.354  1.00  0.00     0.195 C 
HETATM   20  C13 UNL     1      17.932   0.875  50.615  1.00  0.00     0.149 C 
HETATM   21  N4  UNL     1      18.883   1.733  51.369  1.00  0.00    -0.377 N 
HETATM   22  C22 UNL     1      21.132   2.179  51.731  1.00  0.00     0.018 C 
BRANCH  21  23
HETATM   23  C14 UNL     1      18.466   3.117  51.473  1.00  0.00     0.125 C 
BRANCH  23  24
HETATM   24  C15 UNL     1      17.075   3.113  52.078  1.00  0.00     0.050 C 
BRANCH  24  25
HETATM   25  C16 UNL     1      16.149   4.045  51.296  1.00  0.00     0.274 C 
BRANCH  25  26
HETATM   26  N5  UNL     1      14.826   3.458  51.353  1.00  0.00     0.092 N 
HETATM   27  C17 UNL     1      14.423   3.154  52.709  1.00  0.00     0.298 C 
HETATM   28  C18 UNL     1      13.775   4.356  53.334  1.00  0.00     0.198 C 
HETATM   29  O3  UNL     1      12.587   4.708  52.701  1.00  0.00    -0.388 OA
HETATM   30  C19 UNL     1      12.543   4.319  51.381  1.00  0.00     0.198 C 
HETATM   31  C20 UNL     1      13.910   4.358  50.702  1.00  0.00     0.298 C 
ENDBRANCH  25  26
ENDBRANCH  24  25
ENDBRANCH  23  24
ENDBRANCH  21  23
ENDBRANCH   3   4
TORSDOF 5
ENDMDL
MODEL 5
REMARK VINA RESULT:      -7.4      2.729      7.412
REMARK  5 active torsions:
REMARK  status: ('A' for Active; 'I' for Inactive)
REMARK    1  A    between atoms: C2_3  and  C3_4 
REMARK    2  A    between atoms: N4_19  and  C14_20 
REMARK    3  A    between atoms: C14_20  and  C15_21 
REMARK    4  A    between atoms: C15_21  and  C16_22 
REMARK    5  A    between atoms: C16_22  and  N5_23 
ROOT
HETATM    1  O1  UNL     1      21.746   1.179  48.344  1.00  0.00    -0.284 OA
HETATM    2  C1  UNL     1      21.188   0.950  49.448  1.00  0.00     0.218 C 
HETATM    3  C2  UNL     1      20.741   0.557  50.617  1.00  0.00     0.045 C 
ENDROOT
BRANCH   3   4
HETATM    4  C3  UNL     1      21.274   1.348  51.766  1.00  0.00     0.061 C 
HETATM    5  C4  UNL     1      22.386   0.585  52.429  1.00  0.00     0.003 C 
HETATM    6  C5  UNL     1      22.749   0.032  53.607  1.00  0.00     0.086 C 
HETATM    7  N1  UNL     1      23.872  -0.669  54.089  1.00  0.00    -0.354 N 
HETATM    8  C6  UNL     1      24.804   0.197  53.335  1.00  0.00     0.109 A 
HETATM    9  H5  UNL     1      23.674  -1.431  54.712  1.00  0.00     0.166 HD
HETATM   10  C7  UNL     1      24.507   1.625  53.089  1.00  0.00     0.201 A 
HETATM   11  N3  UNL     1      25.707  -0.887  53.019  1.00  0.00    -0.234 NA
HETATM   12  C8  UNL     1      25.635   1.668  52.229  1.00  0.00     0.208 A 
HETATM   13  N2  UNL     1      26.711   0.914  51.674  1.00  0.00     0.346 NA
HETATM   14  C10 UNL     1      25.388   3.029  51.682  1.00  0.00     0.051 C 
HETATM   15  C9  UNL     1      26.689  -0.414  52.132  1.00  0.00     0.444 A 
HETATM   16  C11 UNL     1      24.285   3.704  51.265  1.00  0.00     0.093 C 
HETATM   17  O2  UNL     1      24.662   4.960  50.838  1.00  0.00    -0.347 OA
HETATM   18  C21 UNL     1      22.815   3.577  51.094  1.00  0.00     0.060 C 
HETATM   19  C12 UNL     1      24.064   6.206  51.164  1.00  0.00     0.195 C 
HETATM   20  C13 UNL     1      22.573   6.171  50.925  1.00  0.00     0.149 C 
HETATM   21  N4  UNL     1      22.249   4.776  50.526  1.00  0.00    -0.377 N 
HETATM   22  C22 UNL     1      21.867   2.632  51.331  1.00  0.00     0.018 C 
BRANCH  21  23
HETATM   23  C14 UNL     1      21.269   4.683  49.463  1.00  0.00     0.125 C 
BRANCH  23  24
HETATM   24  C15 UNL     1      20.037   5.434  49.934  1.00  0.00     0.050 C 
BRANCH  24  25
HETATM   25  C16 UNL     1      18.769   4.765  49.406  1.00  0.00     0.274 C 
BRANCH  25  26
HETATM   26  N5  UNL     1      18.653   3.495  50.094  1.00  0.00     0.092 N 
HETATM   27  C17 UNL     1      18.183   3.654  51.452  1.00  0.00     0.298 C 
HETATM   28  C18 UNL     1      16.681   3.658  51.480  1.00  0.00     0.198 C 
HETATM   29  O3  UNL     1      16.141   2.441  51.077  1.00  0.00    -0.388 OA
HETATM   30  C19 UNL     1      16.965   1.739  50.227  1.00  0.00     0.198 C 
HETATM   31  C20 UNL     1      17.792   2.643  49.316  1.00  0.00     0.298 C 
ENDBRANCH  25  26
ENDBRANCH  24  25
ENDBRANCH  23  24
ENDBRANCH  21  23
ENDBRANCH   3   4
TORSDOF 5
ENDMDL
MODEL 6
REMARK VINA RESULT:      -7.4      2.942      7.079
REMARK  5 active torsions:
REMARK  status: ('A' for Active; 'I' for Inactive)
REMARK    1  A    between atoms: C2_3  and  C3_4 
REMARK    2  A    between atoms: N4_19  and  C14_20 
REMARK    3  A    between atoms: C14_20  and  C15_21 
REMARK    4  A    between atoms: C15_21  and  C16_22 
REMARK    5  A    between atoms: C16_22  and  N5_23 
ROOT
HETATM    1  O1  UNL     1      18.927   0.585  51.275  1.00  0.00    -0.284 OA
HETATM    2  C1  UNL     1      19.833   0.037  51.953  1.00  0.00     0.218 C 
HETATM    3  C2  UNL     1      20.897  -0.507  52.495  1.00  0.00     0.045 C 
ENDROOT
BRANCH   3   4
HETATM    4  C3  UNL     1      21.658   0.416  53.390  1.00  0.00     0.061 C 
HETATM    5  C4  UNL     1      22.974  -0.209  53.755  1.00  0.00     0.003 C 
HETATM    6  C5  UNL     1      23.700  -0.632  54.813  1.00  0.00     0.086 C 
HETATM    7  N1  UNL     1      24.971  -1.211  54.999  1.00  0.00    -0.354 N 
HETATM    8  C6  UNL     1      25.574  -0.354  53.955  1.00  0.00     0.109 A 
HETATM    9  H5  UNL     1      25.025  -1.927  55.699  1.00  0.00     0.166 HD
HETATM   10  C7  UNL     1      25.094   1.025  53.713  1.00  0.00     0.201 A 
HETATM   11  N3  UNL     1      26.445  -1.397  53.464  1.00  0.00    -0.234 NA
HETATM   12  C8  UNL     1      25.926   1.069  52.565  1.00  0.00     0.208 A 
HETATM   13  N2  UNL     1      26.868   0.344  51.775  1.00  0.00     0.346 NA
HETATM   14  C10 UNL     1      25.416   2.357  52.025  1.00  0.00     0.051 C 
HETATM   15  C9  UNL     1      27.093  -0.939  52.305  1.00  0.00     0.444 A 
HETATM   16  C11 UNL     1      24.184   2.917  51.898  1.00  0.00     0.093 C 
HETATM   17  O2  UNL     1      24.313   4.154  51.302  1.00  0.00    -0.347 OA
HETATM   18  C21 UNL     1      22.742   2.677  52.164  1.00  0.00     0.060 C 
HETATM   19  C12 UNL     1      23.721   5.380  51.705  1.00  0.00     0.195 C 
HETATM   20  C13 UNL     1      22.233   5.224  51.905  1.00  0.00     0.149 C 
HETATM   21  N4  UNL     1      21.936   3.781  51.706  1.00  0.00    -0.377 N 
HETATM   22  C22 UNL     1      21.988   1.695  52.723  1.00  0.00     0.018 C 
BRANCH  21  23
HETATM   23  C14 UNL     1      20.709   3.530  50.976  1.00  0.00     0.125 C 
BRANCH  23  24
HETATM   24  C15 UNL     1      21.055   3.598  49.500  1.00  0.00     0.050 C 
BRANCH  24  25
HETATM   25  C16 UNL     1      20.238   4.690  48.810  1.00  0.00     0.274 C 
BRANCH  25  26
HETATM   26  N5  UNL     1      21.128   5.343  47.871  1.00  0.00     0.092 N 
HETATM   27  C17 UNL     1      20.958   6.779  47.870  1.00  0.00     0.298 C 
HETATM   28  C18 UNL     1      21.827   7.400  48.926  1.00  0.00     0.198 C 
HETATM   29  O3  UNL     1      23.183   7.221  48.669  1.00  0.00    -0.388 OA
HETATM   30  C19 UNL     1      23.446   6.100  47.914  1.00  0.00     0.198 C 
HETATM   31  C20 UNL     1      22.476   4.954  48.190  1.00  0.00     0.298 C 
ENDBRANCH  25  26
ENDBRANCH  24  25
ENDBRANCH  23  24
ENDBRANCH  21  23
ENDBRANCH   3   4
TORSDOF 5
ENDMDL
MODEL 7
REMARK VINA RESULT:      -7.1     10.168     14.657
REMARK  5 active torsions:
REMARK  status: ('A' for Active; 'I' for Inactive)
REMARK    1  A    between atoms: C2_3  and  C3_4 
REMARK    2  A    between atoms: N4_19  and  C14_20 
REMARK    3  A    between atoms: C14_20  and  C15_21 
REMARK    4  A    between atoms: C15_21  and  C16_22 
REMARK    5  A    between atoms: C16_22  and  N5_23 
ROOT
HETATM    1  O1  UNL     1      35.634   7.652  48.471  1.00  0.00    -0.284 OA
HETATM    2  C1  UNL     1      34.818   8.400  47.873  1.00  0.00     0.218 C 
HETATM    3  C2  UNL     1      34.112   9.194  47.104  1.00  0.00     0.045 C 
ENDROOT
BRANCH   3   4
HETATM    4  C3  UNL     1      33.116   8.480  46.250  1.00  0.00     0.061 C 
HETATM    5  C4  UNL     1      33.773   7.302  45.590  1.00  0.00     0.003 C 
HETATM    6  C5  UNL     1      34.071   6.784  44.377  1.00  0.00     0.086 C 
HETATM    7  N1  UNL     1      34.709   5.620  43.906  1.00  0.00    -0.354 N 
HETATM    8  C6  UNL     1      34.086   4.787  44.959  1.00  0.00     0.109 A 
HETATM    9  H5  UNL     1      35.301   5.742  43.106  1.00  0.00     0.166 HD
HETATM   10  C7  UNL     1      32.733   5.083  45.480  1.00  0.00     0.201 A 
HETATM   11  N3  UNL     1      35.261   3.966  45.140  1.00  0.00    -0.234 NA
HETATM   12  C8  UNL     1      32.945   4.093  46.473  1.00  0.00     0.208 A 
HETATM   13  N2  UNL     1      33.862   3.126  46.984  1.00  0.00     0.346 NA
HETATM   14  C10 UNL     1      31.727   4.385  47.277  1.00  0.00     0.051 C 
HETATM   15  C9  UNL     1      35.052   3.113  46.237  1.00  0.00     0.444 A 
HETATM   16  C11 UNL     1      31.102   5.521  47.682  1.00  0.00     0.093 C 
HETATM   17  O2  UNL     1      29.995   5.180  48.431  1.00  0.00    -0.347 OA
HETATM   18  C21 UNL     1      31.181   7.003  47.616  1.00  0.00     0.060 C 
HETATM   19  C12 UNL     1      28.676   5.696  48.317  1.00  0.00     0.195 C 
HETATM   20  C13 UNL     1      28.681   7.206  48.336  1.00  0.00     0.149 C 
HETATM   21  N4  UNL     1      30.109   7.617  48.358  1.00  0.00    -0.377 N 
HETATM   22  C22 UNL     1      31.996   7.927  47.042  1.00  0.00     0.018 C 
BRANCH  21  23
HETATM   23  C14 UNL     1      30.380   8.744  49.228  1.00  0.00     0.125 C 
BRANCH  23  24
HETATM   24  C15 UNL     1      29.132   9.606  49.234  1.00  0.00     0.050 C 
BRANCH  24  25
HETATM   25  C16 UNL     1      29.375  10.904  48.465  1.00  0.00     0.274 C 
BRANCH  25  26
HETATM   26  N5  UNL     1      28.154  11.678  48.560  1.00  0.00     0.092 N 
HETATM   27  C17 UNL     1      28.412  13.065  48.878  1.00  0.00     0.298 C 
HETATM   28  C18 UNL     1      28.654  13.845  47.618  1.00  0.00     0.198 C 
HETATM   29  O3  UNL     1      27.530  13.891  46.799  1.00  0.00    -0.388 OA
HETATM   30  C19 UNL     1      26.690  12.815  46.975  1.00  0.00     0.198 C 
HETATM   31  C20 UNL     1      27.433  11.528  47.323  1.00  0.00     0.298 C 
ENDBRANCH  25  26
ENDBRANCH  24  25
ENDBRANCH  23  24
ENDBRANCH  21  23
ENDBRANCH   3   4
TORSDOF 5
ENDMDL
MODEL 8
REMARK VINA RESULT:      -7.1      3.624      7.168
REMARK  5 active torsions:
REMARK  status: ('A' for Active; 'I' for Inactive)
REMARK    1  A    between atoms: C2_3  and  C3_4 
REMARK    2  A    between atoms: N4_19  and  C14_20 
REMARK    3  A    between atoms: C14_20  and  C15_21 
REMARK    4  A    between atoms: C15_21  and  C16_22 
REMARK    5  A    between atoms: C16_22  and  N5_23 
ROOT
HETATM    1  O1  UNL     1      22.533   1.813  47.569  1.00  0.00    -0.284 OA
HETATM    2  C1  UNL     1      21.781   1.355  48.467  1.00  0.00     0.218 C 
HETATM    3  C2  UNL     1      21.147   0.741  49.437  1.00  0.00     0.045 C 
ENDROOT
BRANCH   3   4
HETATM    4  C3  UNL     1      21.271   1.416  50.764  1.00  0.00     0.061 C 
HETATM    5  C4  UNL     1      22.189   0.621  51.649  1.00  0.00     0.003 C 
HETATM    6  C5  UNL     1      22.229  -0.048  52.822  1.00  0.00     0.086 C 
HETATM    7  N1  UNL     1      23.206  -0.760  53.545  1.00  0.00    -0.354 N 
HETATM    8  C6  UNL     1      24.260   0.215  53.188  1.00  0.00     0.109 A 
HETATM    9  H5  UNL     1      22.886  -1.593  54.004  1.00  0.00     0.166 HD
HETATM   10  C7  UNL     1      23.955   1.651  53.005  1.00  0.00     0.201 A 
HETATM   11  N3  UNL     1      25.283  -0.796  53.049  1.00  0.00    -0.234 NA
HETATM   12  C8  UNL     1      25.278   1.828  52.526  1.00  0.00     0.208 A 
HETATM   13  N2  UNL     1      26.516   1.177  52.244  1.00  0.00     0.346 NA
HETATM   14  C10 UNL     1      25.113   3.232  52.065  1.00  0.00     0.051 C 
HETATM   15  C9  UNL     1      26.448  -0.195  52.543  1.00  0.00     0.444 A 
HETATM   16  C11 UNL     1      24.138   3.913  51.408  1.00  0.00     0.093 C 
HETATM   17  O2  UNL     1      24.541   5.220  51.236  1.00  0.00    -0.347 OA
HETATM   18  C21 UNL     1      22.792   3.756  50.798  1.00  0.00     0.060 C 
HETATM   19  C12 UNL     1      23.794   6.401  51.490  1.00  0.00     0.195 C 
HETATM   20  C13 UNL     1      22.443   6.343  50.818  1.00  0.00     0.149 C 
HETATM   21  N4  UNL     1      22.339   4.991  50.208  1.00  0.00    -0.377 N 
HETATM   22  C22 UNL     1      21.880   2.760  50.651  1.00  0.00     0.018 C 
BRANCH  21  23
HETATM   23  C14 UNL     1      21.719   4.986  48.898  1.00  0.00     0.125 C 
BRANCH  23  24
HETATM   24  C15 UNL     1      22.809   5.309  47.894  1.00  0.00     0.050 C 
BRANCH  24  25
HETATM   25  C16 UNL     1      22.436   6.548  47.081  1.00  0.00     0.274 C 
BRANCH  25  26
HETATM   26  N5  UNL     1      23.648   7.328  46.933  1.00  0.00     0.092 N 
HETATM   27  C17 UNL     1      23.412   8.742  47.125  1.00  0.00     0.298 C 
HETATM   28  C18 UNL     1      23.522   9.088  48.582  1.00  0.00     0.198 C 
HETATM   29  O3  UNL     1      24.807   8.891  49.078  1.00  0.00    -0.388 OA
HETATM   30  C19 UNL     1      25.512   7.933  48.385  1.00  0.00     0.198 C 
HETATM   31  C20 UNL     1      24.627   6.810  47.852  1.00  0.00     0.298 C 
ENDBRANCH  25  26
ENDBRANCH  24  25
ENDBRANCH  23  24
ENDBRANCH  21  23
ENDBRANCH   3   4
TORSDOF 5
ENDMDL
MODEL 9
REMARK VINA RESULT:      -7.0     10.777     14.212
REMARK  5 active torsions:
REMARK  status: ('A' for Active; 'I' for Inactive)
REMARK    1  A    between atoms: C2_3  and  C3_4 
REMARK    2  A    between atoms: N4_19  and  C14_20 
REMARK    3  A    between atoms: C14_20  and  C15_21 
REMARK    4  A    between atoms: C15_21  and  C16_22 
REMARK    5  A    between atoms: C16_22  and  N5_23 
ROOT
HETATM    1  O1  UNL     1      30.058   6.580  48.869  1.00  0.00    -0.284 OA
HETATM    2  C1  UNL     1      31.042   7.341  49.058  1.00  0.00     0.218 C 
HETATM    3  C2  UNL     1      32.130   7.993  49.391  1.00  0.00     0.045 C 
ENDROOT
BRANCH   3   4
HETATM    4  C3  UNL     1      33.269   7.793  48.447  1.00  0.00     0.061 C 
HETATM    5  C4  UNL     1      33.770   6.380  48.556  1.00  0.00     0.003 C 
HETATM    6  C5  UNL     1      34.870   5.656  48.862  1.00  0.00     0.086 C 
HETATM    7  N1  UNL     1      35.194   4.286  48.911  1.00  0.00    -0.354 N 
HETATM    8  C6  UNL     1      34.409   4.001  47.691  1.00  0.00     0.109 A 
HETATM    9  H5  UNL     1      35.782   4.006  49.674  1.00  0.00     0.166 HD
HETATM   10  C7  UNL     1      34.286   4.993  46.600  1.00  0.00     0.201 A 
HETATM   11  N3  UNL     1      33.937   2.724  48.176  1.00  0.00    -0.234 NA
HETATM   12  C8  UNL     1      33.324   4.145  45.994  1.00  0.00     0.208 A 
HETATM   13  N2  UNL     1      32.619   2.909  46.105  1.00  0.00     0.346 NA
HETATM   14  C10 UNL     1      32.892   5.095  44.934  1.00  0.00     0.051 C 
HETATM   15  C9  UNL     1      32.990   2.217  47.270  1.00  0.00     0.444 A 
HETATM   16  C11 UNL     1      32.628   6.428  44.898  1.00  0.00     0.093 C 
HETATM   17  O2  UNL     1      32.248   6.775  43.619  1.00  0.00    -0.347 OA
HETATM   18  C21 UNL     1      32.594   7.650  45.742  1.00  0.00     0.060 C 
HETATM   19  C12 UNL     1      32.711   7.870  42.841  1.00  0.00     0.195 C 
HETATM   20  C13 UNL     1      32.617   9.163  43.615  1.00  0.00     0.149 C 
HETATM   21  N4  UNL     1      32.163   8.798  44.983  1.00  0.00    -0.377 N 
HETATM   22  C22 UNL     1      32.862   7.970  47.036  1.00  0.00     0.018 C 
BRANCH  21  23
HETATM   23  C14 UNL     1      31.197   9.719  45.546  1.00  0.00     0.125 C 
BRANCH  23  24
HETATM   24  C15 UNL     1      29.827   9.103  45.334  1.00  0.00     0.050 C 
BRANCH  24  25
HETATM   25  C16 UNL     1      28.745   9.971  45.977  1.00  0.00     0.274 C 
BRANCH  25  26
HETATM   26  N5  UNL     1      28.884   9.812  47.410  1.00  0.00     0.092 N 
HETATM   27  C17 UNL     1      28.903  11.083  48.099  1.00  0.00     0.298 C 
HETATM   28  C18 UNL     1      27.500  11.517  48.415  1.00  0.00     0.198 C 
HETATM   29  O3  UNL     1      26.868  10.659  49.309  1.00  0.00    -0.388 OA
HETATM   30  C19 UNL     1      27.362   9.375  49.265  1.00  0.00     0.198 C 
HETATM   31  C20 UNL     1      27.820   8.959  47.870  1.00  0.00     0.298 C 
ENDBRANCH  25  26
ENDBRANCH  24  25
ENDBRANCH  23  24
ENDBRANCH  21  23
ENDBRANCH   3   4
TORSDOF 5
ENDMDL
