MODEL 1
REMARK VINA RESULT:      -7.9      0.000      0.000
REMARK  3 active torsions:
REMARK  status: ('A' for Active; 'I' for Inactive)
REMARK    1  A    between atoms: N1_2  and  C2_3 
REMARK    2  A    between atoms: C2_3  and  N2_4 
REMARK    3  A    between atoms: N2_4  and  C3_5 
ROOT
HETATM    1  C2  UNL     1      25.029   3.308  50.198  1.00  0.00     0.155 C 
HETATM    2  C9  UNL     1      25.180   2.768  51.419  1.00  0.00     0.095 C 
HETATM    3  C10 UNL     1      23.919   2.575  52.179  1.00  0.00     0.179 C 
HETATM    4  N3  UNL     1      23.771   1.737  53.190  1.00  0.00    -0.138 NA
HETATM    5  O1  UNL     1      24.766   0.915  53.696  1.00  0.00    -0.216 OA
HETATM    6  C11 UNL     1      26.116   1.096  53.812  1.00  0.00     0.102 A 
HETATM    7  C12 UNL     1      26.659   0.038  54.439  1.00  0.00     0.040 A 
HETATM    8  C13 UNL     1      28.100   0.053  54.652  1.00  0.00     0.040 A 
HETATM    9  C14 UNL     1      28.804   1.085  54.230  1.00  0.00     0.096 A 
HETATM   10  F1  UNL     1      30.163   1.233  54.361  1.00  0.00    -0.211 F 
HETATM   11  C15 UNL     1      28.303   2.303  53.543  1.00  0.00     0.102 A 
HETATM   12  C16 UNL     1      26.832   2.290  53.311  1.00  0.00     0.148 A 
HETATM   13  N4  UNL     1      26.509   2.438  51.891  1.00  0.00    -0.375 N 
HETATM   14  H14 UNL     1      27.195   2.324  51.085  1.00  0.00     0.160 HD
ENDROOT
BRANCH   1  15
HETATM   15  N1  UNL     1      23.656   3.597  49.861  1.00  0.00    -0.252 NA
HETATM   16  C1  UNL     1      23.261   3.171  48.695  1.00  0.00     0.151 C 
ENDBRANCH   1  15
BRANCH   1  17
HETATM   17  N2  UNL     1      26.125   3.575  49.313  1.00  0.00    -0.339 N 
HETATM   18  H3  UNL     1      26.585   2.717  48.891  1.00  0.00     0.167 HD
BRANCH  17  19
HETATM   19  C3  UNL     1      26.629   4.878  48.959  1.00  0.00     0.035 A 
HETATM   20  C4  UNL     1      25.806   6.042  48.985  1.00  0.00     0.029 A 
HETATM   21  C5  UNL     1      26.659   7.026  48.602  1.00  0.00     0.004 A 
HETATM   22  C6  UNL     1      27.903   7.327  48.237  1.00  0.00     0.019 A 
HETATM   23  C7  UNL     1      28.588   6.088  48.260  1.00  0.00     0.013 A 
HETATM   24 BR1  UNL     1      30.448   6.045  47.800  1.00  0.00    -0.051 Br
HETATM   25  C8  UNL     1      27.976   4.869  48.613  1.00  0.00     0.048 A 
ENDBRANCH  17  19
ENDBRANCH   1  17
TORSDOF 3
ENDMDL
MODEL 2
REMARK VINA RESULT:      -7.9      3.966      5.743
REMARK  3 active torsions:
REMARK  status: ('A' for Active; 'I' for Inactive)
REMARK    1  A    between atoms: N1_2  and  C2_3 
REMARK    2  A    between atoms: C2_3  and  N2_4 
REMARK    3  A    between atoms: N2_4  and  C3_5 
ROOT
HETATM    1  C2  UNL     1      26.006   1.982  53.643  1.00  0.00     0.155 C 
HETATM    2  C9  UNL     1      25.224   0.903  53.820  1.00  0.00     0.095 C 
HETATM    3  C10 UNL     1      25.880  -0.240  54.505  1.00  0.00     0.179 C 
HETATM    4  N3  UNL     1      25.238  -1.216  55.121  1.00  0.00    -0.138 NA
HETATM    5  O1  UNL     1      23.860  -1.326  55.221  1.00  0.00    -0.216 OA
HETATM    6  C11 UNL     1      22.860  -0.973  54.357  1.00  0.00     0.102 A 
HETATM    7  C12 UNL     1      21.674  -1.345  54.867  1.00  0.00     0.040 A 
HETATM    8  C13 UNL     1      20.484  -1.049  54.080  1.00  0.00     0.040 A 
HETATM    9  C14 UNL     1      20.614  -0.438  52.918  1.00  0.00     0.096 A 
HETATM   10  F1  UNL     1      19.586  -0.095  52.075  1.00  0.00    -0.211 F 
HETATM   11  C15 UNL     1      21.872   0.001  52.261  1.00  0.00     0.102 A 
HETATM   12  C16 UNL     1      23.092  -0.289  53.065  1.00  0.00     0.148 A 
HETATM   13  N4  UNL     1      23.858   0.928  53.339  1.00  0.00    -0.375 N 
HETATM   14  H14 UNL     1      23.503   1.923  53.216  1.00  0.00     0.160 HD
ENDROOT
BRANCH   1  15
HETATM   15  N1  UNL     1      27.343   1.817  54.159  1.00  0.00    -0.252 NA
HETATM   16  C1  UNL     1      28.292   2.355  53.448  1.00  0.00     0.151 C 
ENDBRANCH   1  15
BRANCH   1  17
HETATM   17  N2  UNL     1      25.557   3.183  53.002  1.00  0.00    -0.339 N 
HETATM   18  H3  UNL     1      25.563   4.051  53.611  1.00  0.00     0.167 HD
BRANCH  17  19
HETATM   19  C3  UNL     1      25.119   3.298  51.633  1.00  0.00     0.035 A 
HETATM   20  C4  UNL     1      25.970   2.982  50.535  1.00  0.00     0.029 A 
HETATM   21  C5  UNL     1      25.177   3.213  49.458  1.00  0.00     0.004 A 
HETATM   22  C6  UNL     1      23.973   3.592  49.036  1.00  0.00     0.019 A 
HETATM   23  C7  UNL     1      23.252   3.867  50.224  1.00  0.00     0.013 A 
HETATM   24 BR1  UNL     1      21.431   4.450  50.094  1.00  0.00    -0.051 Br
HETATM   25  C8  UNL     1      23.801   3.729  51.514  1.00  0.00     0.048 A 
ENDBRANCH  17  19
ENDBRANCH   1  17
TORSDOF 3
ENDMDL
MODEL 3
REMARK VINA RESULT:      -7.9      3.980      5.687
REMARK  3 active torsions:
REMARK  status: ('A' for Active; 'I' for Inactive)
REMARK    1  A    between atoms: N1_2  and  C2_3 
REMARK    2  A    between atoms: C2_3  and  N2_4 
REMARK    3  A    between atoms: N2_4  and  C3_5 
ROOT
HETATM    1  C2  UNL     1      25.454   2.416  51.274  1.00  0.00     0.155 C 
HETATM    2  C9  UNL     1      25.503   1.336  52.072  1.00  0.00     0.095 C 
HETATM    3  C10 UNL     1      26.856   0.752  52.254  1.00  0.00     0.179 C 
HETATM    4  N3  UNL     1      27.208  -0.031  53.258  1.00  0.00    -0.138 NA
HETATM    5  O1  UNL     1      26.372  -0.429  54.290  1.00  0.00    -0.216 OA
HETATM    6  C11 UNL     1      25.033  -0.701  54.314  1.00  0.00     0.102 A 
HETATM    7  C12 UNL     1      24.682  -1.124  55.541  1.00  0.00     0.040 A 
HETATM    8  C13 UNL     1      23.282  -1.463  55.758  1.00  0.00     0.040 A 
HETATM    9  C14 UNL     1      22.426  -1.343  54.761  1.00  0.00     0.096 A 
HETATM   10  F1  UNL     1      21.084  -1.623  54.821  1.00  0.00    -0.211 F 
HETATM   11  C15 UNL     1      22.712  -0.901  53.372  1.00  0.00     0.102 A 
HETATM   12  C16 UNL     1      24.139  -0.542  53.145  1.00  0.00     0.148 A 
HETATM   13  N4  UNL     1      24.279   0.833  52.664  1.00  0.00    -0.375 N 
HETATM   14  H14 UNL     1      23.523   1.580  52.695  1.00  0.00     0.160 HD
ENDROOT
BRANCH   1  15
HETATM   15  N1  UNL     1      26.740   2.801  50.746  1.00  0.00    -0.252 NA
HETATM   16  C1  UNL     1      26.712   3.650  49.757  1.00  0.00     0.151 C 
ENDBRANCH   1  15
BRANCH   1  17
HETATM   17  N2  UNL     1      24.241   3.120  50.974  1.00  0.00    -0.339 N 
HETATM   18  H3  UNL     1      24.118   4.045  51.476  1.00  0.00     0.167 HD
BRANCH  17  19
HETATM   19  C3  UNL     1      23.213   2.681  50.064  1.00  0.00     0.035 A 
HETATM   20  C4  UNL     1      23.326   2.848  48.653  1.00  0.00     0.029 A 
HETATM   21  C5  UNL     1      22.174   2.301  48.188  1.00  0.00     0.004 A 
HETATM   22  C6  UNL     1      21.035   1.692  48.508  1.00  0.00     0.019 A 
HETATM   23  C7  UNL     1      21.068   1.599  49.921  1.00  0.00     0.013 A 
HETATM   24 BR1  UNL     1      19.601   0.768  50.832  1.00  0.00    -0.051 Br
HETATM   25  C8  UNL     1      22.133   2.082  50.705  1.00  0.00     0.048 A 
ENDBRANCH  17  19
ENDBRANCH   1  17
TORSDOF 3
ENDMDL
MODEL 4
REMARK VINA RESULT:      -7.9      3.338      6.433
REMARK  3 active torsions:
REMARK  status: ('A' for Active; 'I' for Inactive)
REMARK    1  A    between atoms: N1_2  and  C2_3 
REMARK    2  A    between atoms: C2_3  and  N2_4 
REMARK    3  A    between atoms: N2_4  and  C3_5 
ROOT
HETATM    1  C2  UNL     1      23.621   4.382  52.214  1.00  0.00     0.155 C 
HETATM    2  C9  UNL     1      23.987   4.906  51.032  1.00  0.00     0.095 C 
HETATM    3  C10 UNL     1      22.888   5.544  50.262  1.00  0.00     0.179 C 
HETATM    4  N3  UNL     1      23.061   6.436  49.304  1.00  0.00    -0.138 NA
HETATM    5  O1  UNL     1      24.289   6.913  48.870  1.00  0.00    -0.216 OA
HETATM    6  C11 UNL     1      25.509   6.305  48.769  1.00  0.00     0.102 A 
HETATM    7  C12 UNL     1      26.392   7.158  48.221  1.00  0.00     0.040 A 
HETATM    8  C13 UNL     1      27.756   6.681  48.034  1.00  0.00     0.040 A 
HETATM    9  C14 UNL     1      28.068   5.454  48.403  1.00  0.00     0.096 A 
HETATM   10  F1  UNL     1      29.308   4.876  48.289  1.00  0.00    -0.211 F 
HETATM   11  C15 UNL     1      27.170   4.433  49.002  1.00  0.00     0.102 A 
HETATM   12  C16 UNL     1      25.776   4.917  49.207  1.00  0.00     0.148 A 
HETATM   13  N4  UNL     1      25.368   4.807  50.608  1.00  0.00    -0.375 N 
HETATM   14  H14 UNL     1      26.022   4.646  51.432  1.00  0.00     0.160 HD
ENDROOT
BRANCH   1  15
HETATM   15  N1  UNL     1      22.217   4.542  52.506  1.00  0.00    -0.252 NA
HETATM   16  C1  UNL     1      21.481   3.481  52.335  1.00  0.00     0.151 C 
ENDBRANCH   1  15
BRANCH   1  17
HETATM   17  N2  UNL     1      24.534   3.723  53.101  1.00  0.00    -0.339 N 
HETATM   18  H3  UNL     1      24.919   4.326  53.884  1.00  0.00     0.167 HD
BRANCH  17  19
HETATM   19  C3  UNL     1      24.952   2.346  53.015  1.00  0.00     0.035 A 
HETATM   20  C4  UNL     1      24.213   1.373  52.280  1.00  0.00     0.029 A 
HETATM   21  C5  UNL     1      24.944   0.243  52.450  1.00  0.00     0.004 A 
HETATM   22  C6  UNL     1      26.031  -0.296  52.998  1.00  0.00     0.019 A 
HETATM   23  C7  UNL     1      26.650   0.777  53.684  1.00  0.00     0.013 A 
HETATM   24 BR1  UNL     1      28.284   0.456  54.632  1.00  0.00    -0.051 Br
HETATM   25  C8  UNL     1      26.132   2.087  53.704  1.00  0.00     0.048 A 
ENDBRANCH  17  19
ENDBRANCH   1  17
TORSDOF 3
ENDMDL
MODEL 5
REMARK VINA RESULT:      -7.8      2.387      3.330
REMARK  3 active torsions:
REMARK  status: ('A' for Active; 'I' for Inactive)
REMARK    1  A    between atoms: N1_2  and  C2_3 
REMARK    2  A    between atoms: C2_3  and  N2_4 
REMARK    3  A    between atoms: N2_4  and  C3_5 
ROOT
HETATM    1  C2  UNL     1      23.126   0.942  51.936  1.00  0.00     0.155 C 
HETATM    2  C9  UNL     1      24.078   0.676  52.848  1.00  0.00     0.095 C 
HETATM    3  C10 UNL     1      23.692  -0.312  53.887  1.00  0.00     0.179 C 
HETATM    4  N3  UNL     1      24.545  -1.003  54.621  1.00  0.00    -0.138 NA
HETATM    5  O1  UNL     1      25.926  -0.913  54.536  1.00  0.00    -0.216 OA
HETATM    6  C11 UNL     1      26.746   0.145  54.260  1.00  0.00     0.102 A 
HETATM    7  C12 UNL     1      28.029  -0.242  54.364  1.00  0.00     0.040 A 
HETATM    8  C13 UNL     1      29.055   0.759  54.102  1.00  0.00     0.040 A 
HETATM    9  C14 UNL     1      28.693   1.985  53.777  1.00  0.00     0.096 A 
HETATM   10  F1  UNL     1      29.546   3.024  53.501  1.00  0.00    -0.211 F 
HETATM   11  C15 UNL     1      27.311   2.516  53.648  1.00  0.00     0.102 A 
HETATM   12  C16 UNL     1      26.257   1.496  53.904  1.00  0.00     0.148 A 
HETATM   13  N4  UNL     1      25.355   1.354  52.760  1.00  0.00    -0.375 N 
HETATM   14  H14 UNL     1      25.537   1.723  51.779  1.00  0.00     0.160 HD
ENDROOT
BRANCH   1  15
HETATM   15  N1  UNL     1      21.903   0.206  52.149  1.00  0.00    -0.252 NA
HETATM   16  C1  UNL     1      21.011   0.313  51.205  1.00  0.00     0.151 C 
ENDBRANCH   1  15
BRANCH   1  17
HETATM   17  N2  UNL     1      23.306   1.868  50.857  1.00  0.00    -0.339 N 
HETATM   18  H3  UNL     1      23.273   1.443  49.886  1.00  0.00     0.167 HD
BRANCH  17  19
HETATM   19  C3  UNL     1      23.515   3.288  50.987  1.00  0.00     0.035 A 
HETATM   20  C4  UNL     1      22.781   4.081  51.916  1.00  0.00     0.029 A 
HETATM   21  C5  UNL     1      23.286   5.325  51.720  1.00  0.00     0.004 A 
HETATM   22  C6  UNL     1      24.160   6.067  51.044  1.00  0.00     0.019 A 
HETATM   23  C7  UNL     1      24.803   5.152  50.175  1.00  0.00     0.013 A 
HETATM   24 BR1  UNL     1      26.170   5.794  48.995  1.00  0.00    -0.051 Br
HETATM   25  C8  UNL     1      24.498   3.778  50.132  1.00  0.00     0.048 A 
ENDBRANCH  17  19
ENDBRANCH   1  17
TORSDOF 3
ENDMDL
MODEL 6
REMARK VINA RESULT:      -7.7      3.937      6.036
REMARK  3 active torsions:
REMARK  status: ('A' for Active; 'I' for Inactive)
REMARK    1  A    between atoms: N1_2  and  C2_3 
REMARK    2  A    between atoms: C2_3  and  N2_4 
REMARK    3  A    between atoms: N2_4  and  C3_5 
ROOT
HETATM    1  C2  UNL     1      24.795   2.569  51.400  1.00  0.00     0.155 C 
HETATM    2  C9  UNL     1      23.625   2.343  52.022  1.00  0.00     0.095 C 
HETATM    3  C10 UNL     1      22.716   3.515  52.092  1.00  0.00     0.179 C 
HETATM    4  N3  UNL     1      21.412   3.444  52.289  1.00  0.00    -0.138 NA
HETATM    5  O1  UNL     1      20.694   2.270  52.463  1.00  0.00    -0.216 OA
HETATM    6  C11 UNL     1      21.029   1.086  53.060  1.00  0.00     0.102 A 
HETATM    7  C12 UNL     1      19.968   0.261  53.046  1.00  0.00     0.040 A 
HETATM    8  C13 UNL     1      20.138  -1.058  53.643  1.00  0.00     0.040 A 
HETATM    9  C14 UNL     1      21.304  -1.385  54.163  1.00  0.00     0.096 A 
HETATM   10  F1  UNL     1      21.607  -2.587  54.754  1.00  0.00    -0.211 F 
HETATM   11  C15 UNL     1      22.529  -0.547  54.242  1.00  0.00     0.102 A 
HETATM   12  C16 UNL     1      22.366   0.798  53.624  1.00  0.00     0.148 A 
HETATM   13  N4  UNL     1      23.352   1.028  52.567  1.00  0.00    -0.375 N 
HETATM   14  H14 UNL     1      23.952   0.280  52.106  1.00  0.00     0.160 HD
ENDROOT
BRANCH   1  15
HETATM   15  N1  UNL     1      24.939   3.921  50.916  1.00  0.00    -0.252 NA
HETATM   16  C1  UNL     1      25.834   4.094  49.985  1.00  0.00     0.151 C 
ENDBRANCH   1  15
BRANCH   1  17
HETATM   17  N2  UNL     1      25.805   1.566  51.233  1.00  0.00    -0.339 N 
HETATM   18  H3  UNL     1      25.785   1.053  50.305  1.00  0.00     0.167 HD
BRANCH  17  19
HETATM   19  C3  UNL     1      26.818   1.217  52.197  1.00  0.00     0.035 A 
HETATM   20  C4  UNL     1      27.423   2.188  53.047  1.00  0.00     0.029 A 
HETATM   21  C5  UNL     1      28.290   1.450  53.785  1.00  0.00     0.004 A 
HETATM   22  C6  UNL     1      28.774   0.234  54.028  1.00  0.00     0.019 A 
HETATM   23  C7  UNL     1      28.086  -0.608  53.121  1.00  0.00     0.013 A 
HETATM   24 BR1  UNL     1      28.469  -2.486  53.122  1.00  0.00    -0.051 Br
HETATM   25  C8  UNL     1      27.119  -0.141  52.210  1.00  0.00     0.048 A 
ENDBRANCH  17  19
ENDBRANCH   1  17
TORSDOF 3
ENDMDL
MODEL 7
REMARK VINA RESULT:      -7.6      3.396      5.068
REMARK  3 active torsions:
REMARK  status: ('A' for Active; 'I' for Inactive)
REMARK    1  A    between atoms: N1_2  and  C2_3 
REMARK    2  A    between atoms: C2_3  and  N2_4 
REMARK    3  A    between atoms: N2_4  and  C3_5 
ROOT
HETATM    1  C2  UNL     1      25.407   2.524  51.172  1.00  0.00     0.155 C 
HETATM    2  C9  UNL     1      25.447   1.429  51.950  1.00  0.00     0.095 C 
HETATM    3  C10 UNL     1      26.789   0.809  52.092  1.00  0.00     0.179 C 
HETATM    4  N3  UNL     1      27.143   0.000  53.074  1.00  0.00    -0.138 NA
HETATM    5  O1  UNL     1      26.321  -0.395  54.118  1.00  0.00    -0.216 OA
HETATM    6  C11 UNL     1      24.975  -0.634  54.168  1.00  0.00     0.102 A 
HETATM    7  C12 UNL     1      24.642  -1.070  55.395  1.00  0.00     0.040 A 
HETATM    8  C13 UNL     1      23.238  -1.378  55.637  1.00  0.00     0.040 A 
HETATM    9  C14 UNL     1      22.364  -1.220  54.662  1.00  0.00     0.096 A 
HETATM   10  F1  UNL     1      21.017  -1.467  54.748  1.00  0.00    -0.211 F 
HETATM   11  C15 UNL     1      22.630  -0.760  53.274  1.00  0.00     0.102 A 
HETATM   12  C16 UNL     1      24.061  -0.432  53.022  1.00  0.00     0.148 A 
HETATM   13  N4  UNL     1      24.225   0.947  52.561  1.00  0.00    -0.375 N 
HETATM   14  H14 UNL     1      23.488   1.711  52.622  1.00  0.00     0.160 HD
ENDROOT
BRANCH   1  15
HETATM   15  N1  UNL     1      26.691   2.887  50.621  1.00  0.00    -0.252 NA
HETATM   16  C1  UNL     1      26.662   3.751  49.647  1.00  0.00     0.151 C 
ENDBRANCH   1  15
BRANCH   1  17
HETATM   17  N2  UNL     1      24.207   3.263  50.911  1.00  0.00    -0.339 N 
HETATM   18  H3  UNL     1      23.991   4.036  51.603  1.00  0.00     0.167 HD
BRANCH  17  19
HETATM   19  C3  UNL     1      23.302   3.044  49.810  1.00  0.00     0.035 A 
HETATM   20  C4  UNL     1      22.576   1.828  49.654  1.00  0.00     0.029 A 
HETATM   21  C5  UNL     1      21.857   2.046  48.524  1.00  0.00     0.004 A 
HETATM   22  C6  UNL     1      21.565   2.905  47.550  1.00  0.00     0.019 A 
HETATM   23  C7  UNL     1      22.351   4.047  47.839  1.00  0.00     0.013 A 
HETATM   24 BR1  UNL     1      22.243   5.568  46.679  1.00  0.00    -0.051 Br
HETATM   25  C8  UNL     1      23.215   4.134  48.949  1.00  0.00     0.048 A 
ENDBRANCH  17  19
ENDBRANCH   1  17
TORSDOF 3
ENDMDL
MODEL 8
REMARK VINA RESULT:      -7.5      2.140      2.566
REMARK  3 active torsions:
REMARK  status: ('A' for Active; 'I' for Inactive)
REMARK    1  A    between atoms: N1_2  and  C2_3 
REMARK    2  A    between atoms: C2_3  and  N2_4 
REMARK    3  A    between atoms: N2_4  and  C3_5 
ROOT
HETATM    1  C2  UNL     1      23.295   4.311  52.206  1.00  0.00     0.155 C 
HETATM    2  C9  UNL     1      23.766   3.109  52.579  1.00  0.00     0.095 C 
HETATM    3  C10 UNL     1      22.731   2.061  52.765  1.00  0.00     0.179 C 
HETATM    4  N3  UNL     1      22.965   0.761  52.742  1.00  0.00    -0.138 NA
HETATM    5  O1  UNL     1      24.207   0.178  52.542  1.00  0.00    -0.216 OA
HETATM    6  C11 UNL     1      25.462   0.577  52.908  1.00  0.00     0.102 A 
HETATM    7  C12 UNL     1      26.354  -0.363  52.552  1.00  0.00     0.040 A 
HETATM    8  C13 UNL     1      27.755  -0.109  52.863  1.00  0.00     0.040 A 
HETATM    9  C14 UNL     1      28.089   1.013  53.470  1.00  0.00     0.096 A 
HETATM   10  F1  UNL     1      29.363   1.385  53.820  1.00  0.00    -0.211 F 
HETATM   11  C15 UNL     1      27.185   2.105  53.915  1.00  0.00     0.102 A 
HETATM   12  C16 UNL     1      25.752   1.857  53.591  1.00  0.00     0.148 A 
HETATM   13  N4  UNL     1      25.191   2.934  52.773  1.00  0.00    -0.375 N 
HETATM   14  H14 UNL     1      25.752   3.675  52.256  1.00  0.00     0.160 HD
ENDROOT
BRANCH   1  15
HETATM   15  N1  UNL     1      21.860   4.348  52.059  1.00  0.00    -0.252 NA
HETATM   16  C1  UNL     1      21.401   5.238  51.226  1.00  0.00     0.151 C 
ENDBRANCH   1  15
BRANCH   1  17
HETATM   17  N2  UNL     1      24.134   5.451  51.978  1.00  0.00    -0.339 N 
HETATM   18  H3  UNL     1      24.295   6.071  52.823  1.00  0.00     0.167 HD
BRANCH  17  19
HETATM   19  C3  UNL     1      24.762   5.802  50.729  1.00  0.00     0.035 A 
HETATM   20  C4  UNL     1      25.003   4.842  49.704  1.00  0.00     0.029 A 
HETATM   21  C5  UNL     1      25.585   5.580  48.726  1.00  0.00     0.004 A 
HETATM   22  C6  UNL     1      25.995   6.790  48.353  1.00  0.00     0.019 A 
HETATM   23  C7  UNL     1      25.692   7.622  49.458  1.00  0.00     0.013 A 
HETATM   24 BR1  UNL     1      26.113   9.489  49.359  1.00  0.00    -0.051 Br
HETATM   25  C8  UNL     1      25.085   7.153  50.639  1.00  0.00     0.048 A 
ENDBRANCH  17  19
ENDBRANCH   1  17
TORSDOF 3
ENDMDL
MODEL 9
REMARK VINA RESULT:      -7.5      3.892      6.167
REMARK  3 active torsions:
REMARK  status: ('A' for Active; 'I' for Inactive)
REMARK    1  A    between atoms: N1_2  and  C2_3 
REMARK    2  A    between atoms: C2_3  and  N2_4 
REMARK    3  A    between atoms: N2_4  and  C3_5 
ROOT
HETATM    1  C2  UNL     1      22.933   3.428  51.106  1.00  0.00     0.155 C 
HETATM    2  C9  UNL     1      24.193   2.965  51.174  1.00  0.00     0.095 C 
HETATM    3  C10 UNL     1      25.033   3.256  49.985  1.00  0.00     0.179 C 
HETATM    4  N3  UNL     1      26.354   3.255  49.979  1.00  0.00    -0.138 NA
HETATM    5  O1  UNL     1      27.156   2.980  51.076  1.00  0.00    -0.216 OA
HETATM    6  C11 UNL     1      26.982   2.129  52.132  1.00  0.00     0.102 A 
HETATM    7  C12 UNL     1      28.075   2.154  52.914  1.00  0.00     0.040 A 
HETATM    8  C13 UNL     1      28.072   1.304  54.098  1.00  0.00     0.040 A 
HETATM    9  C14 UNL     1      27.016   0.556  54.353  1.00  0.00     0.096 A 
HETATM   10  F1  UNL     1      26.873  -0.287  55.427  1.00  0.00    -0.211 F 
HETATM   11  C15 UNL     1      25.770   0.445  53.550  1.00  0.00     0.102 A 
HETATM   12  C16 UNL     1      25.761   1.320  52.345  1.00  0.00     0.148 A 
HETATM   13  N4  UNL     1      24.619   2.234  52.351  1.00  0.00    -0.375 N 
HETATM   14  H14 UNL     1      24.002   2.449  53.190  1.00  0.00     0.160 HD
ENDROOT
BRANCH   1  15
HETATM   15  N1  UNL     1      22.642   4.126  49.877  1.00  0.00    -0.252 NA
HETATM   16  C1  UNL     1      21.967   5.233  50.004  1.00  0.00     0.151 C 
ENDBRANCH   1  15
BRANCH   1  17
HETATM   17  N2  UNL     1      21.969   3.246  52.151  1.00  0.00    -0.339 N 
HETATM   18  H3  UNL     1      21.978   3.988  52.909  1.00  0.00     0.167 HD
BRANCH  17  19
HETATM   19  C3  UNL     1      21.014   2.171  52.242  1.00  0.00     0.035 A 
HETATM   20  C4  UNL     1      19.757   2.212  51.571  1.00  0.00     0.029 A 
HETATM   21  C5  UNL     1      19.192   1.026  51.910  1.00  0.00     0.004 A 
HETATM   22  C6  UNL     1      19.337  -0.113  52.583  1.00  0.00     0.019 A 
HETATM   23  C7  UNL     1      20.614  -0.007  53.186  1.00  0.00     0.013 A 
HETATM   24 BR1  UNL     1      21.255  -1.454  54.267  1.00  0.00    -0.051 Br
HETATM   25  C8  UNL     1      21.455   1.112  53.031  1.00  0.00     0.048 A 
ENDBRANCH  17  19
ENDBRANCH   1  17
TORSDOF 3
ENDMDL
