MODEL 1
REMARK VINA RESULT:      -7.5      0.000      0.000
REMARK  5 active torsions:
REMARK  status: ('A' for Active; 'I' for Inactive)
REMARK    1  A    between atoms: N2_5  and  C4_6 
REMARK    2  A    between atoms: C7_9  and  N3_10 
REMARK    3  A    between atoms: N3_10  and  C8_11 
REMARK    4  A    between atoms: C8_11  and  C9_12 
REMARK    5  A    between atoms: N5_16  and  O1_17 
ROOT
HETATM    1  C4  UNL     1      21.452  -0.602  53.514  1.00  0.00     0.030 A 
HETATM    2  C5  UNL     1      22.477  -0.077  52.754  1.00  0.00     0.031 A 
HETATM    3  C6  UNL     1      23.807  -0.128  53.164  1.00  0.00     0.031 A 
HETATM    4  C7  UNL     1      24.107  -0.722  54.372  1.00  0.00     0.028 A 
HETATM    5  C12 UNL     1      23.111  -1.253  55.152  1.00  0.00     0.031 A 
HETATM    6  C13 UNL     1      21.782  -1.189  54.718  1.00  0.00     0.031 A 
ENDROOT
BRANCH   4   7
HETATM    7  N3  UNL     1      25.456  -0.780  54.799  1.00  0.00    -0.383 N 
HETATM    8  H10 UNL     1      25.917  -1.701  54.978  1.00  0.00     0.160 HD
BRANCH   7   9
HETATM    9  C8  UNL     1      26.183   0.464  54.983  1.00  0.00     0.200 C 
BRANCH   9  10
HETATM   10  C9  UNL     1      27.565   0.303  54.458  1.00  0.00     0.148 A 
HETATM   11  N4  UNL     1      28.256  -0.825  54.247  1.00  0.00    -0.242 NA
HETATM   12  C10 UNL     1      29.476  -0.551  53.764  1.00  0.00     0.138 A 
HETATM   13  C11 UNL     1      29.552   0.827  53.668  1.00  0.00     0.144 A 
HETATM   14  N5  UNL     1      28.379   1.323  54.095  1.00  0.00    -0.219 N 
BRANCH  14  15
HETATM   15  O1  UNL     1      28.033   2.650  54.165  1.00  0.00    -0.282 OA
HETATM   16  H15 UNL     1      27.369   2.882  54.910  1.00  0.00     0.245 HD
ENDBRANCH  14  15
ENDBRANCH   9  10
ENDBRANCH   7   9
ENDBRANCH   4   7
BRANCH   1  17
HETATM   17  N2  UNL     1      20.087  -0.564  53.122  1.00  0.00    -0.378 N 
HETATM   18  C3  UNL     1      19.464   0.506  52.412  1.00  0.00     0.153 C 
HETATM   19  C2  UNL     1      18.460  -0.109  51.437  1.00  0.00     0.291 C 
HETATM   20  N1  UNL     1      17.392  -0.784  52.125  1.00  0.00     0.087 N 
HETATM   21  C1  UNL     1      16.165  -0.033  52.164  1.00  0.00     0.310 C 
HETATM   22  C15 UNL     1      17.751  -1.189  53.464  1.00  0.00     0.291 C 
HETATM   23  C14 UNL     1      19.186  -1.660  53.429  1.00  0.00     0.153 C 
ENDBRANCH   1  17
TORSDOF 5
ENDMDL
MODEL 2
REMARK VINA RESULT:      -7.3      2.480      2.903
REMARK  5 active torsions:
REMARK  status: ('A' for Active; 'I' for Inactive)
REMARK    1  A    between atoms: N2_5  and  C4_6 
REMARK    2  A    between atoms: C7_9  and  N3_10 
REMARK    3  A    between atoms: N3_10  and  C8_11 
REMARK    4  A    between atoms: C8_11  and  C9_12 
REMARK    5  A    between atoms: N5_16  and  O1_17 
ROOT
HETATM    1  C4  UNL     1      22.038   1.219  52.535  1.00  0.00     0.030 A 
HETATM    2  C5  UNL     1      23.291   1.616  52.114  1.00  0.00     0.031 A 
HETATM    3  C6  UNL     1      24.452   0.958  52.512  1.00  0.00     0.031 A 
HETATM    4  C7  UNL     1      24.343  -0.127  53.357  1.00  0.00     0.028 A 
HETATM    5  C12 UNL     1      23.112  -0.547  53.794  1.00  0.00     0.031 A 
HETATM    6  C13 UNL     1      21.961   0.131  53.380  1.00  0.00     0.031 A 
ENDROOT
BRANCH   4   7
HETATM    7  N3  UNL     1      25.516  -0.805  53.769  1.00  0.00    -0.383 N 
HETATM    8  H10 UNL     1      25.719  -0.945  54.785  1.00  0.00     0.160 HD
BRANCH   7   9
HETATM    9  C8  UNL     1      26.428  -1.300  52.753  1.00  0.00     0.200 C 
BRANCH   9  10
HETATM   10  C9  UNL     1      27.821  -0.934  53.128  1.00  0.00     0.148 A 
HETATM   11  N4  UNL     1      28.340   0.282  53.342  1.00  0.00    -0.242 NA
HETATM   12  C10 UNL     1      29.638   0.194  53.663  1.00  0.00     0.138 A 
HETATM   13  C11 UNL     1      29.948  -1.154  53.650  1.00  0.00     0.144 A 
HETATM   14  N5  UNL     1      28.828  -1.818  53.322  1.00  0.00    -0.219 N 
BRANCH  14  15
HETATM   15  O1  UNL     1      28.695  -3.180  53.197  1.00  0.00    -0.282 OA
HETATM   16  H15 UNL     1      27.761  -3.542  53.413  1.00  0.00     0.245 HD
ENDBRANCH  14  15
ENDBRANCH   9  10
ENDBRANCH   7   9
ENDBRANCH   4   7
BRANCH   1  17
HETATM   17  N2  UNL     1      20.838   1.872  52.145  1.00  0.00    -0.378 N 
HETATM   18  C3  UNL     1      20.508   3.229  52.435  1.00  0.00     0.153 C 
HETATM   19  C2  UNL     1      19.767   3.794  51.223  1.00  0.00     0.291 C 
HETATM   20  N1  UNL     1      18.508   3.132  51.010  1.00  0.00     0.087 N 
HETATM   21  C1  UNL     1      17.372   3.895  51.455  1.00  0.00     0.310 C 
HETATM   22  C15 UNL     1      18.460   1.811  51.594  1.00  0.00     0.291 C 
HETATM   23  C14 UNL     1      19.814   1.173  51.390  1.00  0.00     0.153 C 
ENDBRANCH   1  17
TORSDOF 5
ENDMDL
MODEL 3
REMARK VINA RESULT:      -7.3      1.731      2.301
REMARK  5 active torsions:
REMARK  status: ('A' for Active; 'I' for Inactive)
REMARK    1  A    between atoms: N2_5  and  C4_6 
REMARK    2  A    between atoms: C7_9  and  N3_10 
REMARK    3  A    between atoms: N3_10  and  C8_11 
REMARK    4  A    between atoms: C8_11  and  C9_12 
REMARK    5  A    between atoms: N5_16  and  O1_17 
ROOT
HETATM    1  C4  UNL     1      22.205   0.603  52.754  1.00  0.00     0.030 A 
HETATM    2  C5  UNL     1      22.184  -0.431  53.667  1.00  0.00     0.031 A 
HETATM    3  C6  UNL     1      23.339  -0.889  54.298  1.00  0.00     0.031 A 
HETATM    4  C7  UNL     1      24.542  -0.285  53.998  1.00  0.00     0.028 A 
HETATM    5  C12 UNL     1      24.597   0.746  53.094  1.00  0.00     0.031 A 
HETATM    6  C13 UNL     1      23.423   1.186  52.473  1.00  0.00     0.031 A 
ENDROOT
BRANCH   4   7
HETATM    7  N3  UNL     1      25.723  -0.741  54.633  1.00  0.00    -0.383 N 
HETATM    8  H10 UNL     1      25.847  -1.755  54.857  1.00  0.00     0.160 HD
BRANCH   7   9
HETATM    9  C8  UNL     1      26.753   0.227  54.968  1.00  0.00     0.200 C 
BRANCH   9  10
HETATM   10  C9  UNL     1      28.036  -0.192  54.343  1.00  0.00     0.148 A 
HETATM   11  N4  UNL     1      28.339  -1.350  53.744  1.00  0.00    -0.242 NA
HETATM   12  C10 UNL     1      29.606  -1.342  53.307  1.00  0.00     0.138 A 
HETATM   13  C11 UNL     1      30.126  -0.108  53.653  1.00  0.00     0.144 A 
HETATM   14  N5  UNL     1      29.153   0.573  54.281  1.00  0.00    -0.219 N 
BRANCH  14  15
HETATM   15  O1  UNL     1      29.247   1.845  54.791  1.00  0.00    -0.282 OA
HETATM   16  H15 UNL     1      30.091   2.356  54.516  1.00  0.00     0.245 HD
ENDBRANCH  14  15
ENDBRANCH   9  10
ENDBRANCH   7   9
ENDBRANCH   4   7
BRANCH   1  17
HETATM   17  N2  UNL     1      21.044   1.089  52.095  1.00  0.00    -0.378 N 
HETATM   18  C3  UNL     1      20.544   0.610  50.847  1.00  0.00     0.153 C 
HETATM   19  C2  UNL     1      19.017   0.626  50.923  1.00  0.00     0.291 C 
HETATM   20  N1  UNL     1      18.504   1.964  51.052  1.00  0.00     0.087 N 
HETATM   21  C1  UNL     1      17.968   2.496  49.827  1.00  0.00     0.310 C 
HETATM   22  C15 UNL     1      19.470   2.889  51.598  1.00  0.00     0.291 C 
HETATM   23  C14 UNL     1      20.247   2.158  52.668  1.00  0.00     0.153 C 
ENDBRANCH   1  17
TORSDOF 5
ENDMDL
MODEL 4
REMARK VINA RESULT:      -7.2      2.890      8.611
REMARK  5 active torsions:
REMARK  status: ('A' for Active; 'I' for Inactive)
REMARK    1  A    between atoms: N2_5  and  C4_6 
REMARK    2  A    between atoms: C7_9  and  N3_10 
REMARK    3  A    between atoms: N3_10  and  C8_11 
REMARK    4  A    between atoms: C8_11  and  C9_12 
REMARK    5  A    between atoms: N5_16  and  O1_17 
ROOT
HETATM    1  C4  UNL     1      24.168  -0.322  53.997  1.00  0.00     0.030 A 
HETATM    2  C5  UNL     1      23.469  -1.079  54.914  1.00  0.00     0.031 A 
HETATM    3  C6  UNL     1      22.078  -1.052  54.996  1.00  0.00     0.031 A 
HETATM    4  C7  UNL     1      21.379  -0.238  54.128  1.00  0.00     0.028 A 
HETATM    5  C12 UNL     1      22.044   0.527  53.204  1.00  0.00     0.031 A 
HETATM    6  C13 UNL     1      23.441   0.482  53.143  1.00  0.00     0.031 A 
ENDROOT
BRANCH   4   7
HETATM    7  N3  UNL     1      19.966  -0.202  54.201  1.00  0.00    -0.383 N 
HETATM    8  H10 UNL     1      19.482   0.533  54.766  1.00  0.00     0.160 HD
BRANCH   7   9
HETATM    9  C8  UNL     1      19.204  -1.206  53.478  1.00  0.00     0.200 C 
BRANCH   9  10
HETATM   10  C9  UNL     1      18.410  -0.539  52.411  1.00  0.00     0.148 A 
HETATM   11  N4  UNL     1      18.834  -0.003  51.260  1.00  0.00    -0.242 NA
HETATM   12  C10 UNL     1      17.806   0.505  50.565  1.00  0.00     0.138 A 
HETATM   13  C11 UNL     1      16.674   0.273  51.326  1.00  0.00     0.144 A 
HETATM   14  N5  UNL     1      17.067  -0.363  52.442  1.00  0.00    -0.219 N 
BRANCH  14  15
HETATM   15  O1  UNL     1      16.257  -0.780  53.470  1.00  0.00    -0.282 OA
HETATM   16  H15 UNL     1      16.217  -0.142  54.271  1.00  0.00     0.245 HD
ENDBRANCH  14  15
ENDBRANCH   9  10
ENDBRANCH   7   9
ENDBRANCH   4   7
BRANCH   1  17
HETATM   17  N2  UNL     1      25.584  -0.330  53.891  1.00  0.00    -0.378 N 
HETATM   18  C3  UNL     1      26.344  -1.224  53.080  1.00  0.00     0.153 C 
HETATM   19  C2  UNL     1      27.528  -0.441  52.511  1.00  0.00     0.291 C 
HETATM   20  N1  UNL     1      28.427  -0.007  53.547  1.00  0.00     0.087 N 
HETATM   21  C1  UNL     1      29.621  -0.804  53.645  1.00  0.00     0.310 C 
HETATM   22  C15 UNL     1      27.796   0.077  54.843  1.00  0.00     0.291 C 
HETATM   23  C14 UNL     1      26.398   0.612  54.636  1.00  0.00     0.153 C 
ENDBRANCH   1  17
TORSDOF 5
ENDMDL
MODEL 5
REMARK VINA RESULT:      -7.0      3.328      4.165
REMARK  5 active torsions:
REMARK  status: ('A' for Active; 'I' for Inactive)
REMARK    1  A    between atoms: N2_5  and  C4_6 
REMARK    2  A    between atoms: C7_9  and  N3_10 
REMARK    3  A    between atoms: N3_10  and  C8_11 
REMARK    4  A    between atoms: C8_11  and  C9_12 
REMARK    5  A    between atoms: N5_16  and  O1_17 
ROOT
HETATM    1  C4  UNL     1      23.108   2.397  52.075  1.00  0.00     0.030 A 
HETATM    2  C5  UNL     1      22.704   1.110  52.362  1.00  0.00     0.031 A 
HETATM    3  C6  UNL     1      23.513   0.214  53.058  1.00  0.00     0.031 A 
HETATM    4  C7  UNL     1      24.761   0.632  53.472  1.00  0.00     0.028 A 
HETATM    5  C12 UNL     1      25.193   1.906  53.203  1.00  0.00     0.031 A 
HETATM    6  C13 UNL     1      24.361   2.786  52.502  1.00  0.00     0.031 A 
ENDROOT
BRANCH   4   7
HETATM    7  N3  UNL     1      25.592  -0.269  54.181  1.00  0.00    -0.383 N 
HETATM    8  H10 UNL     1      25.418  -1.299  54.136  1.00  0.00     0.160 HD
BRANCH   7   9
HETATM    9  C8  UNL     1      26.688   0.266  54.969  1.00  0.00     0.200 C 
BRANCH   9  10
HETATM   10  C9  UNL     1      27.978  -0.144  54.352  1.00  0.00     0.148 A 
HETATM   11  N4  UNL     1      28.307  -1.318  53.799  1.00  0.00    -0.242 NA
HETATM   12  C10 UNL     1      29.571  -1.295  53.352  1.00  0.00     0.138 A 
HETATM   13  C11 UNL     1      30.059  -0.034  53.643  1.00  0.00     0.144 A 
HETATM   14  N5  UNL     1      29.073   0.646  54.250  1.00  0.00    -0.219 N 
BRANCH  14  15
HETATM   15  O1  UNL     1      29.137   1.941  54.705  1.00  0.00    -0.282 OA
HETATM   16  H15 UNL     1      28.234   2.421  54.762  1.00  0.00     0.245 HD
ENDBRANCH  14  15
ENDBRANCH   9  10
ENDBRANCH   7   9
ENDBRANCH   4   7
BRANCH   1  17
HETATM   17  N2  UNL     1      22.305   3.331  51.367  1.00  0.00    -0.378 N 
HETATM   18  C3  UNL     1      21.515   4.358  51.966  1.00  0.00     0.153 C 
HETATM   19  C2  UNL     1      21.589   5.586  51.059  1.00  0.00     0.291 C 
HETATM   20  N1  UNL     1      20.985   5.340  49.776  1.00  0.00     0.087 N 
HETATM   21  C1  UNL     1      19.673   5.912  49.637  1.00  0.00     0.310 C 
HETATM   22  C15 UNL     1      20.939   3.937  49.436  1.00  0.00     0.291 C 
HETATM   23  C14 UNL     1      22.225   3.307  49.919  1.00  0.00     0.153 C 
ENDBRANCH   1  17
TORSDOF 5
ENDMDL
MODEL 6
REMARK VINA RESULT:      -6.8      4.886      6.339
REMARK  5 active torsions:
REMARK  status: ('A' for Active; 'I' for Inactive)
REMARK    1  A    between atoms: N2_5  and  C4_6 
REMARK    2  A    between atoms: C7_9  and  N3_10 
REMARK    3  A    between atoms: N3_10  and  C8_11 
REMARK    4  A    between atoms: C8_11  and  C9_12 
REMARK    5  A    between atoms: N5_16  and  O1_17 
ROOT
HETATM    1  C4  UNL     1      24.748   3.603  51.389  1.00  0.00     0.030 A 
HETATM    2  C5  UNL     1      23.943   3.200  52.434  1.00  0.00     0.031 A 
HETATM    3  C6  UNL     1      24.098   1.963  53.058  1.00  0.00     0.031 A 
HETATM    4  C7  UNL     1      25.089   1.114  52.611  1.00  0.00     0.028 A 
HETATM    5  C12 UNL     1      25.906   1.485  51.573  1.00  0.00     0.031 A 
HETATM    6  C13 UNL     1      25.730   2.732  50.963  1.00  0.00     0.031 A 
ENDROOT
BRANCH   4   7
HETATM    7  N3  UNL     1      25.256  -0.145  53.236  1.00  0.00    -0.383 N 
HETATM    8  H10 UNL     1      24.917  -1.018  52.771  1.00  0.00     0.160 HD
BRANCH   7   9
HETATM    9  C8  UNL     1      25.905  -0.198  54.535  1.00  0.00     0.200 C 
BRANCH   9  10
HETATM   10  C9  UNL     1      27.356   0.085  54.365  1.00  0.00     0.148 A 
HETATM   11  N4  UNL     1      28.062   1.136  54.802  1.00  0.00    -0.242 NA
HETATM   12  C10 UNL     1      29.349   1.023  54.445  1.00  0.00     0.138 A 
HETATM   13  C11 UNL     1      29.454  -0.166  53.747  1.00  0.00     0.144 A 
HETATM   14  N5  UNL     1      28.230  -0.717  53.712  1.00  0.00    -0.219 N 
BRANCH  14  15
HETATM   15  O1  UNL     1      27.889  -1.906  53.115  1.00  0.00    -0.282 OA
HETATM   16  H15 UNL     1      28.408  -2.722  53.454  1.00  0.00     0.245 HD
ENDBRANCH  14  15
ENDBRANCH   9  10
ENDBRANCH   7   9
ENDBRANCH   4   7
BRANCH   1  17
HETATM   17  N2  UNL     1      24.613   4.857  50.735  1.00  0.00    -0.378 N 
HETATM   18  C3  UNL     1      25.340   5.263  49.576  1.00  0.00     0.153 C 
HETATM   19  C2  UNL     1      24.394   6.084  48.701  1.00  0.00     0.291 C 
HETATM   20  N1  UNL     1      23.993   7.305  49.348  1.00  0.00     0.087 N 
HETATM   21  C1  UNL     1      24.681   8.470  48.859  1.00  0.00     0.310 C 
HETATM   22  C15 UNL     1      24.108   7.245  50.786  1.00  0.00     0.291 C 
HETATM   23  C14 UNL     1      23.685   5.861  51.220  1.00  0.00     0.153 C 
ENDBRANCH   1  17
TORSDOF 5
ENDMDL
MODEL 7
REMARK VINA RESULT:      -6.8      2.564      8.758
REMARK  5 active torsions:
REMARK  status: ('A' for Active; 'I' for Inactive)
REMARK    1  A    between atoms: N2_5  and  C4_6 
REMARK    2  A    between atoms: C7_9  and  N3_10 
REMARK    3  A    between atoms: N3_10  and  C8_11 
REMARK    4  A    between atoms: C8_11  and  C9_12 
REMARK    5  A    between atoms: N5_16  and  O1_17 
ROOT
HETATM    1  C4  UNL     1      24.379   0.611  52.748  1.00  0.00     0.030 A 
HETATM    2  C5  UNL     1      23.580  -0.356  53.321  1.00  0.00     0.031 A 
HETATM    3  C6  UNL     1      22.256  -0.552  52.935  1.00  0.00     0.031 A 
HETATM    4  C7  UNL     1      21.728   0.251  51.946  1.00  0.00     0.028 A 
HETATM    5  C12 UNL     1      22.495   1.223  51.355  1.00  0.00     0.031 A 
HETATM    6  C13 UNL     1      23.823   1.400  51.761  1.00  0.00     0.031 A 
ENDROOT
BRANCH   4   7
HETATM    7  N3  UNL     1      20.383   0.061  51.545  1.00  0.00    -0.383 N 
HETATM    8  H10 UNL     1      20.157  -0.512  50.700  1.00  0.00     0.160 HD
BRANCH   7   9
HETATM    9  C8  UNL     1      19.328   0.678  52.330  1.00  0.00     0.200 C 
BRANCH   9  10
HETATM   10  C9  UNL     1      18.187  -0.270  52.442  1.00  0.00     0.148 A 
HETATM   11  N4  UNL     1      16.995  -0.223  51.834  1.00  0.00    -0.242 NA
HETATM   12  C10 UNL     1      16.236  -1.267  52.197  1.00  0.00     0.138 A 
HETATM   13  C11 UNL     1      16.997  -2.008  53.082  1.00  0.00     0.144 A 
HETATM   14  N5  UNL     1      18.178  -1.382  53.214  1.00  0.00    -0.219 N 
BRANCH  14  15
HETATM   15  O1  UNL     1      19.229  -1.784  54.002  1.00  0.00    -0.282 OA
HETATM   16  H15 UNL     1      19.053  -1.738  55.010  1.00  0.00     0.245 HD
ENDBRANCH  14  15
ENDBRANCH   9  10
ENDBRANCH   7   9
ENDBRANCH   4   7
BRANCH   1  17
HETATM   17  N2  UNL     1      25.731   0.834  53.122  1.00  0.00    -0.378 N 
HETATM   18  C3  UNL     1      26.303   0.493  54.384  1.00  0.00     0.153 C 
HETATM   19  C2  UNL     1      27.731   0.011  54.130  1.00  0.00     0.291 C 
HETATM   20  N1  UNL     1      28.563   1.061  53.605  1.00  0.00     0.087 N 
HETATM   21  C1  UNL     1      29.445   1.641  54.583  1.00  0.00     0.310 C 
HETATM   22  C15 UNL     1      27.808   2.107  52.956  1.00  0.00     0.291 C 
HETATM   23  C14 UNL     1      26.672   1.452  52.206  1.00  0.00     0.153 C 
ENDBRANCH   1  17
TORSDOF 5
ENDMDL
MODEL 8
REMARK VINA RESULT:      -6.6      2.692      8.653
REMARK  5 active torsions:
REMARK  status: ('A' for Active; 'I' for Inactive)
REMARK    1  A    between atoms: N2_5  and  C4_6 
REMARK    2  A    between atoms: C7_9  and  N3_10 
REMARK    3  A    between atoms: N3_10  and  C8_11 
REMARK    4  A    between atoms: C8_11  and  C9_12 
REMARK    5  A    between atoms: N5_16  and  O1_17 
ROOT
HETATM    1  C4  UNL     1      24.368   0.463  52.886  1.00  0.00     0.030 A 
HETATM    2  C5  UNL     1      23.510  -0.433  53.489  1.00  0.00     0.031 A 
HETATM    3  C6  UNL     1      22.155  -0.496  53.169  1.00  0.00     0.031 A 
HETATM    4  C7  UNL     1      21.658   0.370  52.217  1.00  0.00     0.028 A 
HETATM    5  C12 UNL     1      22.485   1.273  51.598  1.00  0.00     0.031 A 
HETATM    6  C13 UNL     1      23.842   1.316  51.937  1.00  0.00     0.031 A 
ENDROOT
BRANCH   4   7
HETATM    7  N3  UNL     1      20.283   0.315  51.883  1.00  0.00    -0.383 N 
HETATM    8  H10 UNL     1      19.596  -0.130  52.534  1.00  0.00     0.160 HD
BRANCH   7   9
HETATM    9  C8  UNL     1      19.849   0.889  50.621  1.00  0.00     0.200 C 
BRANCH   9  10
HETATM   10  C9  UNL     1      18.621   1.697  50.850  1.00  0.00     0.148 A 
HETATM   11  N4  UNL     1      17.395   1.524  50.340  1.00  0.00    -0.242 NA
HETATM   12  C10 UNL     1      16.556   2.467  50.791  1.00  0.00     0.138 A 
HETATM   13  C11 UNL     1      17.300   3.276  51.631  1.00  0.00     0.144 A 
HETATM   14  N5  UNL     1      18.551   2.788  51.650  1.00  0.00    -0.219 N 
BRANCH  14  15
HETATM   15  O1  UNL     1      19.612   3.295  52.361  1.00  0.00    -0.282 OA
HETATM   16  H15 UNL     1      20.012   4.157  51.978  1.00  0.00     0.245 HD
ENDBRANCH  14  15
ENDBRANCH   9  10
ENDBRANCH   7   9
ENDBRANCH   4   7
BRANCH   1  17
HETATM   17  N2  UNL     1      25.753   0.549  53.192  1.00  0.00    -0.378 N 
HETATM   18  C3  UNL     1      26.786   0.848  52.255  1.00  0.00     0.153 C 
HETATM   19  C2  UNL     1      27.823   1.714  52.970  1.00  0.00     0.291 C 
HETATM   20  N1  UNL     1      28.471   0.998  54.037  1.00  0.00     0.087 N 
HETATM   21  C1  UNL     1      29.793   0.537  53.703  1.00  0.00     0.310 C 
HETATM   22  C15 UNL     1      27.686  -0.108  54.532  1.00  0.00     0.291 C 
HETATM   23  C14 UNL     1      26.239   0.328  54.541  1.00  0.00     0.153 C 
ENDBRANCH   1  17
TORSDOF 5
ENDMDL
MODEL 9
REMARK VINA RESULT:      -6.5      6.359      7.999
REMARK  5 active torsions:
REMARK  status: ('A' for Active; 'I' for Inactive)
REMARK    1  A    between atoms: N2_5  and  C4_6 
REMARK    2  A    between atoms: C7_9  and  N3_10 
REMARK    3  A    between atoms: N3_10  and  C8_11 
REMARK    4  A    between atoms: C8_11  and  C9_12 
REMARK    5  A    between atoms: N5_16  and  O1_17 
ROOT
HETATM    1  C4  UNL     1      25.311   3.053  51.119  1.00  0.00     0.030 A 
HETATM    2  C5  UNL     1      24.599   4.234  51.104  1.00  0.00     0.031 A 
HETATM    3  C6  UNL     1      24.954   5.307  50.289  1.00  0.00     0.031 A 
HETATM    4  C7  UNL     1      26.058   5.180  49.470  1.00  0.00     0.028 A 
HETATM    5  C12 UNL     1      26.788   4.018  49.462  1.00  0.00     0.031 A 
HETATM    6  C13 UNL     1      26.410   2.956  50.290  1.00  0.00     0.031 A 
ENDROOT
BRANCH   4   7
HETATM    7  N3  UNL     1      26.429   6.263  48.637  1.00  0.00    -0.383 N 
HETATM    8  H10 UNL     1      26.769   6.091  47.663  1.00  0.00     0.160 HD
BRANCH   7   9
HETATM    9  C8  UNL     1      26.327   7.613  49.162  1.00  0.00     0.200 C 
BRANCH   9  10
HETATM   10  C9  UNL     1      27.639   8.297  49.005  1.00  0.00     0.148 A 
HETATM   11  N4  UNL     1      28.534   8.177  48.017  1.00  0.00    -0.242 NA
HETATM   12  C10 UNL     1      29.596   8.964  48.241  1.00  0.00     0.138 A 
HETATM   13  C11 UNL     1      29.351   9.612  49.438  1.00  0.00     0.144 A 
HETATM   14  N5  UNL     1      28.155   9.191  49.882  1.00  0.00    -0.219 N 
BRANCH  14  15
HETATM   15  O1  UNL     1      27.531   9.586  51.040  1.00  0.00    -0.282 OA
HETATM   16  H15 UNL     1      27.941   9.209  51.900  1.00  0.00     0.245 HD
ENDBRANCH  14  15
ENDBRANCH   9  10
ENDBRANCH   7   9
ENDBRANCH   4   7
BRANCH   1  17
HETATM   17  N2  UNL     1      24.972   1.944  51.940  1.00  0.00    -0.378 N 
HETATM   18  C3  UNL     1      23.795   1.842  52.740  1.00  0.00     0.153 C 
HETATM   19  C2  UNL     1      23.327   0.388  52.690  1.00  0.00     0.291 C 
HETATM   20  N1  UNL     1      24.280  -0.502  53.298  1.00  0.00     0.087 N 
HETATM   21  C1  UNL     1      23.907  -0.931  54.620  1.00  0.00     0.310 C 
HETATM   22  C15 UNL     1      25.618   0.041  53.328  1.00  0.00     0.291 C 
HETATM   23  C14 UNL     1      25.838   0.783  52.030  1.00  0.00     0.153 C 
ENDBRANCH   1  17
TORSDOF 5
ENDMDL
