MODEL 1
REMARK VINA RESULT:      -6.3      0.000      0.000
REMARK  11 active torsions:
REMARK  status: ('A' for Active; 'I' for Inactive)
REMARK    1  A    between atoms: O1_2  and  C2_3 
REMARK    2  A    between atoms: C2_3  and  C3_4 
REMARK    3  A    between atoms: C3_4  and  O2_5 
REMARK    4  A    between atoms: O2_5  and  C4_6 
REMARK    5  A    between atoms: C4_6  and  C5_7 
REMARK    6  A    between atoms: C5_7  and  C6_8 
REMARK    7  A    between atoms: C10_12  and  C11_13 
REMARK    8  A    between atoms: C11_13  and  O3_14 
REMARK    9  A    between atoms: O3_14  and  C12_15 
REMARK   10  A    between atoms: C12_15  and  C13_16 
REMARK   11  A    between atoms: C13_16  and  O4_17 
ROOT
HETATM    1  C6  UNL     1      23.618   0.971  52.221  1.00  0.00    -0.050 C 
HETATM    2  C7  UNL     1      22.417   0.435  52.106  1.00  0.00    -0.009 C 
HETATM    3  C8  UNL     1      22.616  -0.658  53.036  1.00  0.00     0.053 C 
HETATM    4  C9  UNL     1      23.863   0.088  53.354  1.00  0.00    -0.017 C 
HETATM    5  C10 UNL     1      24.407  -0.573  54.394  1.00  0.00     0.065 C 
HETATM    6  N1  UNL     1      23.807  -1.425  55.355  1.00  0.00    -0.266 NA
HETATM    7  C15 UNL     1      22.525  -1.634  55.283  1.00  0.00     0.095 C 
HETATM    8  C16 UNL     1      21.761  -0.948  54.185  1.00  0.00     0.034 C 
HETATM    9  C17 UNL     1      21.021   0.259  54.705  1.00  0.00     0.016 C 
ENDROOT
BRANCH   1  10
HETATM   10  C5  UNL     1      24.667   2.005  51.875  1.00  0.00     0.065 C 
BRANCH  10  11
HETATM   11  C4  UNL     1      24.068   3.254  51.302  1.00  0.00     0.172 C 
BRANCH  11  12
HETATM   12  O2  UNL     1      24.256   3.324  49.953  1.00  0.00    -0.389 OA
BRANCH  12  13
HETATM   13  C3  UNL     1      25.254   4.163  49.527  1.00  0.00     0.193 C 
BRANCH  13  14
HETATM   14  C2  UNL     1      26.559   3.353  49.396  1.00  0.00     0.193 C 
BRANCH  14  15
HETATM   15  O1  UNL     1      27.586   4.264  49.538  1.00  0.00    -0.394 OA
HETATM   16  C1  UNL     1      27.583   5.228  48.526  1.00  0.00     0.201 C 
ENDBRANCH  14  15
ENDBRANCH  13  14
ENDBRANCH  12  13
ENDBRANCH  11  12
ENDBRANCH  10  11
ENDBRANCH   1  10
BRANCH   5  17
HETATM   17  C11 UNL     1      25.822  -0.303  54.819  1.00  0.00     0.227 C 
BRANCH  17  18
HETATM   18  O3  UNL     1      26.679  -0.973  53.959  1.00  0.00    -0.383 OA
BRANCH  18  19
HETATM   19  C12 UNL     1      27.720  -0.193  53.497  1.00  0.00     0.194 C 
BRANCH  19  20
HETATM   20  C13 UNL     1      28.733   0.193  54.531  1.00  0.00     0.193 C 
BRANCH  20  21
HETATM   21  O4  UNL     1      28.838   1.563  54.735  1.00  0.00    -0.394 OA
HETATM   22  C14 UNL     1      28.606   2.312  53.599  1.00  0.00     0.201 C 
ENDBRANCH  20  21
ENDBRANCH  19  20
ENDBRANCH  18  19
ENDBRANCH  17  18
ENDBRANCH   5  17
TORSDOF 11
ENDMDL
MODEL 2
REMARK VINA RESULT:      -6.2      1.617      2.680
REMARK  11 active torsions:
REMARK  status: ('A' for Active; 'I' for Inactive)
REMARK    1  A    between atoms: O1_2  and  C2_3 
REMARK    2  A    between atoms: C2_3  and  C3_4 
REMARK    3  A    between atoms: C3_4  and  O2_5 
REMARK    4  A    between atoms: O2_5  and  C4_6 
REMARK    5  A    between atoms: C4_6  and  C5_7 
REMARK    6  A    between atoms: C5_7  and  C6_8 
REMARK    7  A    between atoms: C10_12  and  C11_13 
REMARK    8  A    between atoms: C11_13  and  O3_14 
REMARK    9  A    between atoms: O3_14  and  C12_15 
REMARK   10  A    between atoms: C12_15  and  C13_16 
REMARK   11  A    between atoms: C13_16  and  O4_17 
ROOT
HETATM    1  C6  UNL     1      23.634   0.978  52.186  1.00  0.00    -0.050 C 
HETATM    2  C7  UNL     1      22.453   0.396  52.090  1.00  0.00    -0.009 C 
HETATM    3  C8  UNL     1      22.700  -0.672  53.038  1.00  0.00     0.053 C 
HETATM    4  C9  UNL     1      23.920   0.125  53.332  1.00  0.00    -0.017 C 
HETATM    5  C10 UNL     1      24.496  -0.496  54.380  1.00  0.00     0.065 C 
HETATM    6  N1  UNL     1      23.936  -1.352  55.360  1.00  0.00    -0.266 NA
HETATM    7  C15 UNL     1      22.662  -1.610  55.303  1.00  0.00     0.095 C 
HETATM    8  C16 UNL     1      21.865  -0.973  54.199  1.00  0.00     0.034 C 
HETATM    9  C17 UNL     1      21.083   0.215  54.703  1.00  0.00     0.016 C 
ENDROOT
BRANCH   1  10
HETATM   10  C5  UNL     1      24.641   2.044  51.813  1.00  0.00     0.065 C 
BRANCH  10  11
HETATM   11  C4  UNL     1      24.031   3.142  50.994  1.00  0.00     0.172 C 
BRANCH  11  12
HETATM   12  O2  UNL     1      24.100   4.341  51.637  1.00  0.00    -0.389 OA
BRANCH  12  13
HETATM   13  C3  UNL     1      22.971   5.119  51.586  1.00  0.00     0.193 C 
BRANCH  13  14
HETATM   14  C2  UNL     1      21.797   4.330  52.200  1.00  0.00     0.193 C 
BRANCH  14  15
HETATM   15  O1  UNL     1      20.712   4.568  51.383  1.00  0.00    -0.394 OA
HETATM   16  C1  UNL     1      20.290   3.417  50.711  1.00  0.00     0.201 C 
ENDBRANCH  14  15
ENDBRANCH  13  14
ENDBRANCH  12  13
ENDBRANCH  11  12
ENDBRANCH  10  11
ENDBRANCH   1  10
BRANCH   5  17
HETATM   17  C11 UNL     1      25.903  -0.165  54.788  1.00  0.00     0.227 C 
BRANCH  17  18
HETATM   18  O3  UNL     1      26.777  -0.909  54.010  1.00  0.00    -0.383 OA
BRANCH  18  19
HETATM   19  C12 UNL     1      27.856  -0.185  53.546  1.00  0.00     0.194 C 
BRANCH  19  20
HETATM   20  C13 UNL     1      28.850   0.218  54.592  1.00  0.00     0.193 C 
BRANCH  20  21
HETATM   21  O4  UNL     1      28.964   1.592  54.764  1.00  0.00    -0.394 OA
HETATM   22  C14 UNL     1      28.641   2.319  53.636  1.00  0.00     0.201 C 
ENDBRANCH  20  21
ENDBRANCH  19  20
ENDBRANCH  18  19
ENDBRANCH  17  18
ENDBRANCH   5  17
TORSDOF 11
ENDMDL
MODEL 3
REMARK VINA RESULT:      -6.1      2.389      6.156
REMARK  11 active torsions:
REMARK  status: ('A' for Active; 'I' for Inactive)
REMARK    1  A    between atoms: O1_2  and  C2_3 
REMARK    2  A    between atoms: C2_3  and  C3_4 
REMARK    3  A    between atoms: C3_4  and  O2_5 
REMARK    4  A    between atoms: O2_5  and  C4_6 
REMARK    5  A    between atoms: C4_6  and  C5_7 
REMARK    6  A    between atoms: C5_7  and  C6_8 
REMARK    7  A    between atoms: C10_12  and  C11_13 
REMARK    8  A    between atoms: C11_13  and  O3_14 
REMARK    9  A    between atoms: O3_14  and  C12_15 
REMARK   10  A    between atoms: C12_15  and  C13_16 
REMARK   11  A    between atoms: C13_16  and  O4_17 
ROOT
HETATM    1  C6  UNL     1      26.445   2.497  50.836  1.00  0.00    -0.050 C 
HETATM    2  C7  UNL     1      26.519   3.224  49.737  1.00  0.00    -0.009 C 
HETATM    3  C8  UNL     1      25.097   3.443  49.568  1.00  0.00     0.053 C 
HETATM    4  C9  UNL     1      25.034   2.849  50.930  1.00  0.00    -0.017 C 
HETATM    5  C10 UNL     1      23.744   2.963  51.299  1.00  0.00     0.065 C 
HETATM    6  N1  UNL     1      22.735   3.850  50.847  1.00  0.00    -0.266 NA
HETATM    7  C15 UNL     1      23.044   4.729  49.940  1.00  0.00     0.095 C 
HETATM    8  C16 UNL     1      24.459   4.751  49.435  1.00  0.00     0.034 C 
HETATM    9  C17 UNL     1      25.248   5.873  50.064  1.00  0.00     0.016 C 
ENDROOT
BRANCH   1  10
HETATM   10  C5  UNL     1      27.062   1.693  51.960  1.00  0.00     0.065 C 
BRANCH  10  11
HETATM   11  C4  UNL     1      26.866   2.341  53.298  1.00  0.00     0.172 C 
BRANCH  11  12
HETATM   12  O2  UNL     1      28.038   2.427  53.987  1.00  0.00    -0.389 OA
BRANCH  12  13
HETATM   13  C3  UNL     1      28.902   1.372  53.842  1.00  0.00     0.193 C 
BRANCH  13  14
HETATM   14  C2  UNL     1      28.556   0.299  54.893  1.00  0.00     0.193 C 
BRANCH  14  15
HETATM   15  O1  UNL     1      28.513  -0.900  54.211  1.00  0.00    -0.394 OA
HETATM   16  C1  UNL     1      29.665  -1.119  53.451  1.00  0.00     0.201 C 
ENDBRANCH  14  15
ENDBRANCH  13  14
ENDBRANCH  12  13
ENDBRANCH  11  12
ENDBRANCH  10  11
ENDBRANCH   1  10
BRANCH   5  17
HETATM   17  C11 UNL     1      23.219   2.216  52.492  1.00  0.00     0.227 C 
BRANCH  17  18
HETATM   18  O3  UNL     1      23.289   0.857  52.231  1.00  0.00    -0.383 OA
BRANCH  18  19
HETATM   19  C12 UNL     1      23.947   0.139  53.208  1.00  0.00     0.194 C 
BRANCH  19  20
HETATM   20  C13 UNL     1      23.083  -0.788  54.008  1.00  0.00     0.193 C 
BRANCH  20  21
HETATM   21  O4  UNL     1      21.919  -1.177  53.359  1.00  0.00    -0.394 OA
HETATM   22  C14 UNL     1      20.890  -1.508  54.218  1.00  0.00     0.201 C 
ENDBRANCH  20  21
ENDBRANCH  19  20
ENDBRANCH  18  19
ENDBRANCH  17  18
ENDBRANCH   5  17
TORSDOF 11
ENDMDL
MODEL 4
REMARK VINA RESULT:      -6.1      1.783      5.035
REMARK  11 active torsions:
REMARK  status: ('A' for Active; 'I' for Inactive)
REMARK    1  A    between atoms: O1_2  and  C2_3 
REMARK    2  A    between atoms: C2_3  and  C3_4 
REMARK    3  A    between atoms: C3_4  and  O2_5 
REMARK    4  A    between atoms: O2_5  and  C4_6 
REMARK    5  A    between atoms: C4_6  and  C5_7 
REMARK    6  A    between atoms: C5_7  and  C6_8 
REMARK    7  A    between atoms: C10_12  and  C11_13 
REMARK    8  A    between atoms: C11_13  and  O3_14 
REMARK    9  A    between atoms: O3_14  and  C12_15 
REMARK   10  A    between atoms: C12_15  and  C13_16 
REMARK   11  A    between atoms: C13_16  and  O4_17 
ROOT
HETATM    1  C6  UNL     1      23.995   0.116  53.075  1.00  0.00    -0.050 C 
HETATM    2  C7  UNL     1      22.816  -0.352  53.438  1.00  0.00    -0.009 C 
HETATM    3  C8  UNL     1      22.101   0.908  53.400  1.00  0.00     0.053 C 
HETATM    4  C9  UNL     1      23.352   1.383  52.752  1.00  0.00    -0.017 C 
HETATM    5  C10 UNL     1      23.089   2.649  52.376  1.00  0.00     0.065 C 
HETATM    6  N1  UNL     1      21.851   3.294  52.125  1.00  0.00    -0.266 NA
HETATM    7  C15 UNL     1      20.757   2.602  52.246  1.00  0.00     0.095 C 
HETATM    8  C16 UNL     1      20.879   1.156  52.639  1.00  0.00     0.034 C 
HETATM    9  C17 UNL     1      20.717   0.248  51.445  1.00  0.00     0.016 C 
ENDROOT
BRANCH   1  10
HETATM   10  C5  UNL     1      25.466  -0.046  52.756  1.00  0.00     0.065 C 
BRANCH  10  11
HETATM   11  C4  UNL     1      26.239  -0.614  53.908  1.00  0.00     0.172 C 
BRANCH  11  12
HETATM   12  O2  UNL     1      27.422  -1.153  53.498  1.00  0.00    -0.389 OA
BRANCH  12  13
HETATM   13  C3  UNL     1      28.503  -0.309  53.503  1.00  0.00     0.193 C 
BRANCH  13  14
HETATM   14  C2  UNL     1      28.619   0.339  54.896  1.00  0.00     0.193 C 
BRANCH  14  15
HETATM   15  O1  UNL     1      29.197   1.575  54.693  1.00  0.00    -0.394 OA
HETATM   16  C1  UNL     1      28.585   2.282  53.654  1.00  0.00     0.201 C 
ENDBRANCH  14  15
ENDBRANCH  13  14
ENDBRANCH  12  13
ENDBRANCH  11  12
ENDBRANCH  10  11
ENDBRANCH   1  10
BRANCH   5  17
HETATM   17  C11 UNL     1      24.197   3.568  51.947  1.00  0.00     0.227 C 
BRANCH  17  18
HETATM   18  O3  UNL     1      24.744   3.084  50.769  1.00  0.00    -0.383 OA
BRANCH  18  19
HETATM   19  C12 UNL     1      26.123   3.118  50.746  1.00  0.00     0.194 C 
BRANCH  19  20
HETATM   20  C13 UNL     1      26.724   3.739  49.522  1.00  0.00     0.193 C 
BRANCH  20  21
HETATM   21  O4  UNL     1      25.983   4.790  48.999  1.00  0.00    -0.394 OA
HETATM   22  C14 UNL     1      26.709   5.952  48.833  1.00  0.00     0.201 C 
ENDBRANCH  20  21
ENDBRANCH  19  20
ENDBRANCH  18  19
ENDBRANCH  17  18
ENDBRANCH   5  17
TORSDOF 11
ENDMDL
MODEL 5
REMARK VINA RESULT:      -6.0      1.633      2.017
REMARK  11 active torsions:
REMARK  status: ('A' for Active; 'I' for Inactive)
REMARK    1  A    between atoms: O1_2  and  C2_3 
REMARK    2  A    between atoms: C2_3  and  C3_4 
REMARK    3  A    between atoms: C3_4  and  O2_5 
REMARK    4  A    between atoms: O2_5  and  C4_6 
REMARK    5  A    between atoms: C4_6  and  C5_7 
REMARK    6  A    between atoms: C5_7  and  C6_8 
REMARK    7  A    between atoms: C10_12  and  C11_13 
REMARK    8  A    between atoms: C11_13  and  O3_14 
REMARK    9  A    between atoms: O3_14  and  C12_15 
REMARK   10  A    between atoms: C12_15  and  C13_16 
REMARK   11  A    between atoms: C13_16  and  O4_17 
ROOT
HETATM    1  C6  UNL     1      23.422   0.966  52.042  1.00  0.00    -0.050 C 
HETATM    2  C7  UNL     1      22.212   0.450  51.932  1.00  0.00    -0.009 C 
HETATM    3  C8  UNL     1      22.392  -0.637  52.874  1.00  0.00     0.053 C 
HETATM    4  C9  UNL     1      23.652   0.090  53.183  1.00  0.00    -0.017 C 
HETATM    5  C10 UNL     1      24.184  -0.568  54.231  1.00  0.00     0.065 C 
HETATM    6  N1  UNL     1      23.569  -1.400  55.200  1.00  0.00    -0.266 NA
HETATM    7  C15 UNL     1      22.284  -1.587  55.131  1.00  0.00     0.095 C 
HETATM    8  C16 UNL     1      21.532  -0.899  54.025  1.00  0.00     0.034 C 
HETATM    9  C17 UNL     1      20.812   0.326  54.532  1.00  0.00     0.016 C 
ENDROOT
BRANCH   1  10
HETATM   10  C5  UNL     1      24.489   1.977  51.685  1.00  0.00     0.065 C 
BRANCH  10  11
HETATM   11  C4  UNL     1      23.938   3.135  50.908  1.00  0.00     0.172 C 
BRANCH  11  12
HETATM   12  O2  UNL     1      24.515   4.311  51.287  1.00  0.00    -0.389 OA
BRANCH  12  13
HETATM   13  C3  UNL     1      23.658   5.355  51.520  1.00  0.00     0.193 C 
BRANCH  13  14
HETATM   14  C2  UNL     1      24.332   6.662  51.058  1.00  0.00     0.193 C 
BRANCH  14  15
HETATM   15  O1  UNL     1      23.309   7.561  50.842  1.00  0.00    -0.394 OA
HETATM   16  C1  UNL     1      23.532   8.358  49.715  1.00  0.00     0.201 C 
ENDBRANCH  14  15
ENDBRANCH  13  14
ENDBRANCH  12  13
ENDBRANCH  11  12
ENDBRANCH  10  11
ENDBRANCH   1  10
BRANCH   5  17
HETATM   17  C11 UNL     1      25.603  -0.319  54.653  1.00  0.00     0.227 C 
BRANCH  17  18
HETATM   18  O3  UNL     1      26.447  -1.040  53.822  1.00  0.00    -0.383 OA
BRANCH  18  19
HETATM   19  C12 UNL     1      27.467  -0.286  53.280  1.00  0.00     0.194 C 
BRANCH  19  20
HETATM   20  C13 UNL     1      28.549   0.107  54.239  1.00  0.00     0.193 C 
BRANCH  20  21
HETATM   21  O4  UNL     1      28.466   1.422  54.678  1.00  0.00    -0.394 OA
HETATM   22  C14 UNL     1      28.738   2.351  53.694  1.00  0.00     0.201 C 
ENDBRANCH  20  21
ENDBRANCH  19  20
ENDBRANCH  18  19
ENDBRANCH  17  18
ENDBRANCH   5  17
TORSDOF 11
ENDMDL
MODEL 6
REMARK VINA RESULT:      -5.8      3.815      6.248
REMARK  11 active torsions:
REMARK  status: ('A' for Active; 'I' for Inactive)
REMARK    1  A    between atoms: O1_2  and  C2_3 
REMARK    2  A    between atoms: C2_3  and  C3_4 
REMARK    3  A    between atoms: C3_4  and  O2_5 
REMARK    4  A    between atoms: O2_5  and  C4_6 
REMARK    5  A    between atoms: C4_6  and  C5_7 
REMARK    6  A    between atoms: C5_7  and  C6_8 
REMARK    7  A    between atoms: C10_12  and  C11_13 
REMARK    8  A    between atoms: C11_13  and  O3_14 
REMARK    9  A    between atoms: O3_14  and  C12_15 
REMARK   10  A    between atoms: C12_15  and  C13_16 
REMARK   11  A    between atoms: C13_16  and  O4_17 
ROOT
HETATM    1  C6  UNL     1      27.070   5.655  48.568  1.00  0.00    -0.050 C 
HETATM    2  C7  UNL     1      26.070   6.507  48.441  1.00  0.00    -0.009 C 
HETATM    3  C8  UNL     1      25.031   5.649  48.973  1.00  0.00     0.053 C 
HETATM    4  C9  UNL     1      26.190   4.795  49.348  1.00  0.00    -0.017 C 
HETATM    5  C10 UNL     1      25.661   3.791  50.073  1.00  0.00     0.065 C 
HETATM    6  N1  UNL     1      24.446   3.725  50.800  1.00  0.00    -0.266 NA
HETATM    7  C15 UNL     1      23.678   4.775  50.822  1.00  0.00     0.095 C 
HETATM    8  C16 UNL     1      24.138   5.997  50.076  1.00  0.00     0.034 C 
HETATM    9  C17 UNL     1      24.714   7.027  51.016  1.00  0.00     0.016 C 
ENDROOT
BRANCH   1  10
HETATM   10  C5  UNL     1      28.522   5.257  48.424  1.00  0.00     0.065 C 
BRANCH  10  11
HETATM   11  C4  UNL     1      29.429   6.444  48.303  1.00  0.00     0.172 C 
BRANCH  11  12
HETATM   12  O2  UNL     1      30.720   6.119  48.598  1.00  0.00    -0.389 OA
BRANCH  12  13
HETATM   13  C3  UNL     1      31.523   5.814  47.529  1.00  0.00     0.193 C 
BRANCH  13  14
HETATM   14  C2  UNL     1      32.737   5.010  48.035  1.00  0.00     0.193 C 
BRANCH  14  15
HETATM   15  O1  UNL     1      32.322   3.695  48.098  1.00  0.00    -0.394 OA
HETATM   16  C1  UNL     1      32.439   3.043  46.867  1.00  0.00     0.201 C 
ENDBRANCH  14  15
ENDBRANCH  13  14
ENDBRANCH  12  13
ENDBRANCH  11  12
ENDBRANCH  10  11
ENDBRANCH   1  10
BRANCH   5  17
HETATM   17  C11 UNL     1      26.468   2.564  50.389  1.00  0.00     0.227 C 
BRANCH  17  18
HETATM   18  O3  UNL     1      27.358   2.869  51.407  1.00  0.00    -0.383 OA
BRANCH  18  19
HETATM   19  C12 UNL     1      27.188   2.097  52.539  1.00  0.00     0.194 C 
BRANCH  19  20
HETATM   20  C13 UNL     1      28.365   2.060  53.466  1.00  0.00     0.193 C 
BRANCH  20  21
HETATM   21  O4  UNL     1      28.109   1.433  54.679  1.00  0.00    -0.394 OA
HETATM   22  C14 UNL     1      28.661   0.172  54.778  1.00  0.00     0.201 C 
ENDBRANCH  20  21
ENDBRANCH  19  20
ENDBRANCH  18  19
ENDBRANCH  17  18
ENDBRANCH   5  17
TORSDOF 11
ENDMDL
MODEL 7
REMARK VINA RESULT:      -5.7      2.401      5.625
REMARK  11 active torsions:
REMARK  status: ('A' for Active; 'I' for Inactive)
REMARK    1  A    between atoms: O1_2  and  C2_3 
REMARK    2  A    between atoms: C2_3  and  C3_4 
REMARK    3  A    between atoms: C3_4  and  O2_5 
REMARK    4  A    between atoms: O2_5  and  C4_6 
REMARK    5  A    between atoms: C4_6  and  C5_7 
REMARK    6  A    between atoms: C5_7  and  C6_8 
REMARK    7  A    between atoms: C10_12  and  C11_13 
REMARK    8  A    between atoms: C11_13  and  O3_14 
REMARK    9  A    between atoms: O3_14  and  C12_15 
REMARK   10  A    between atoms: C12_15  and  C13_16 
REMARK   11  A    between atoms: C13_16  and  O4_17 
ROOT
HETATM    1  C6  UNL     1      24.155   0.718  52.895  1.00  0.00    -0.050 C 
HETATM    2  C7  UNL     1      23.114  -0.087  52.990  1.00  0.00    -0.009 C 
HETATM    3  C8  UNL     1      22.095   0.941  53.062  1.00  0.00     0.053 C 
HETATM    4  C9  UNL     1      23.232   1.828  52.699  1.00  0.00    -0.017 C 
HETATM    5  C10 UNL     1      22.678   3.041  52.510  1.00  0.00     0.065 C 
HETATM    6  N1  UNL     1      21.346   3.402  52.190  1.00  0.00    -0.266 NA
HETATM    7  C15 UNL     1      20.470   2.455  52.025  1.00  0.00     0.095 C 
HETATM    8  C16 UNL     1      20.934   1.033  52.179  1.00  0.00     0.034 C 
HETATM    9  C17 UNL     1      21.143   0.377  50.837  1.00  0.00     0.016 C 
ENDROOT
BRANCH   1  10
HETATM   10  C5  UNL     1      25.640   0.988  52.777  1.00  0.00     0.065 C 
BRANCH  10  11
HETATM   11  C4  UNL     1      26.115   1.999  53.776  1.00  0.00     0.172 C 
BRANCH  11  12
HETATM   12  O2  UNL     1      26.984   1.447  54.670  1.00  0.00    -0.389 OA
BRANCH  12  13
HETATM   13  C3  UNL     1      27.540   0.247  54.308  1.00  0.00     0.193 C 
BRANCH  13  14
HETATM   14  C2  UNL     1      29.045   0.276  54.641  1.00  0.00     0.193 C 
BRANCH  14  15
HETATM   15  O1  UNL     1      29.684  -0.293  53.559  1.00  0.00    -0.394 OA
HETATM   16  C1  UNL     1      29.290  -1.617  53.347  1.00  0.00     0.201 C 
ENDBRANCH  14  15
ENDBRANCH  13  14
ENDBRANCH  12  13
ENDBRANCH  11  12
ENDBRANCH  10  11
ENDBRANCH   1  10
BRANCH   5  17
HETATM   17  C11 UNL     1      23.537   4.270  52.417  1.00  0.00     0.227 C 
BRANCH  17  18
HETATM   18  O3  UNL     1      24.457   4.092  51.395  1.00  0.00    -0.383 OA
BRANCH  18  19
HETATM   19  C12 UNL     1      24.404   5.073  50.426  1.00  0.00     0.194 C 
BRANCH  19  20
HETATM   20  C13 UNL     1      24.065   4.589  49.048  1.00  0.00     0.193 C 
BRANCH  20  21
HETATM   21  O4  UNL     1      22.794   4.040  48.939  1.00  0.00    -0.394 OA
HETATM   22  C14 UNL     1      22.795   2.718  48.541  1.00  0.00     0.201 C 
ENDBRANCH  20  21
ENDBRANCH  19  20
ENDBRANCH  18  19
ENDBRANCH  17  18
ENDBRANCH   5  17
TORSDOF 11
ENDMDL
MODEL 8
REMARK VINA RESULT:      -5.7      2.881      6.317
REMARK  11 active torsions:
REMARK  status: ('A' for Active; 'I' for Inactive)
REMARK    1  A    between atoms: O1_2  and  C2_3 
REMARK    2  A    between atoms: C2_3  and  C3_4 
REMARK    3  A    between atoms: C3_4  and  O2_5 
REMARK    4  A    between atoms: O2_5  and  C4_6 
REMARK    5  A    between atoms: C4_6  and  C5_7 
REMARK    6  A    between atoms: C5_7  and  C6_8 
REMARK    7  A    between atoms: C10_12  and  C11_13 
REMARK    8  A    between atoms: C11_13  and  O3_14 
REMARK    9  A    between atoms: O3_14  and  C12_15 
REMARK   10  A    between atoms: C12_15  and  C13_16 
REMARK   11  A    between atoms: C13_16  and  O4_17 
ROOT
HETATM    1  C6  UNL     1      24.619   1.442  52.204  1.00  0.00    -0.050 C 
HETATM    2  C7  UNL     1      25.244   2.602  52.119  1.00  0.00    -0.009 C 
HETATM    3  C8  UNL     1      24.547   3.098  50.949  1.00  0.00     0.053 C 
HETATM    4  C9  UNL     1      23.678   1.917  51.198  1.00  0.00    -0.017 C 
HETATM    5  C10 UNL     1      22.674   2.032  50.308  1.00  0.00     0.065 C 
HETATM    6  N1  UNL     1      22.172   3.172  49.632  1.00  0.00    -0.266 NA
HETATM    7  C15 UNL     1      22.717   4.327  49.877  1.00  0.00     0.095 C 
HETATM    8  C16 UNL     1      23.844   4.376  50.872  1.00  0.00     0.034 C 
HETATM    9  C17 UNL     1      23.371   4.887  52.210  1.00  0.00     0.016 C 
ENDROOT
BRANCH   1  10
HETATM   10  C5  UNL     1      24.367   0.095  52.846  1.00  0.00     0.065 C 
BRANCH  10  11
HETATM   11  C4  UNL     1      25.638  -0.651  53.122  1.00  0.00     0.172 C 
BRANCH  11  12
HETATM   12  O2  UNL     1      25.794  -0.894  54.454  1.00  0.00    -0.389 OA
BRANCH  12  13
HETATM   13  C3  UNL     1      26.440   0.079  55.173  1.00  0.00     0.193 C 
BRANCH  13  14
HETATM   14  C2  UNL     1      27.727   0.477  54.424  1.00  0.00     0.193 C 
BRANCH  14  15
HETATM   15  O1  UNL     1      27.789   1.854  54.482  1.00  0.00    -0.394 OA
HETATM   16  C1  UNL     1      28.680   2.385  53.545  1.00  0.00     0.201 C 
ENDBRANCH  14  15
ENDBRANCH  13  14
ENDBRANCH  12  13
ENDBRANCH  11  12
ENDBRANCH  10  11
ENDBRANCH   1  10
BRANCH   5  17
HETATM   17  C11 UNL     1      21.746   0.880  50.045  1.00  0.00     0.227 C 
BRANCH  17  18
HETATM   18  O3  UNL     1      21.312   0.374  51.260  1.00  0.00    -0.383 OA
BRANCH  18  19
HETATM   19  C12 UNL     1      20.156   0.967  51.725  1.00  0.00     0.194 C 
BRANCH  19  20
HETATM   20  C13 UNL     1      20.324   1.815  52.949  1.00  0.00     0.193 C 
BRANCH  20  21
HETATM   21  O4  UNL     1      19.956   3.143  52.771  1.00  0.00    -0.394 OA
HETATM   22  C14 UNL     1      19.298   3.381  51.582  1.00  0.00     0.201 C 
ENDBRANCH  20  21
ENDBRANCH  19  20
ENDBRANCH  18  19
ENDBRANCH  17  18
ENDBRANCH   5  17
TORSDOF 11
ENDMDL
MODEL 9
REMARK VINA RESULT:      -5.7      2.925      5.628
REMARK  11 active torsions:
REMARK  status: ('A' for Active; 'I' for Inactive)
REMARK    1  A    between atoms: O1_2  and  C2_3 
REMARK    2  A    between atoms: C2_3  and  C3_4 
REMARK    3  A    between atoms: C3_4  and  O2_5 
REMARK    4  A    between atoms: O2_5  and  C4_6 
REMARK    5  A    between atoms: C4_6  and  C5_7 
REMARK    6  A    between atoms: C5_7  and  C6_8 
REMARK    7  A    between atoms: C10_12  and  C11_13 
REMARK    8  A    between atoms: C11_13  and  O3_14 
REMARK    9  A    between atoms: O3_14  and  C12_15 
REMARK   10  A    between atoms: C12_15  and  C13_16 
REMARK   11  A    between atoms: C13_16  and  O4_17 
ROOT
HETATM    1  C6  UNL     1      23.311   1.263  53.092  1.00  0.00    -0.050 C 
HETATM    2  C7  UNL     1      23.142   2.500  52.663  1.00  0.00    -0.009 C 
HETATM    3  C8  UNL     1      24.527   2.769  52.336  1.00  0.00     0.053 C 
HETATM    4  C9  UNL     1      24.672   1.309  52.575  1.00  0.00    -0.017 C 
HETATM    5  C10 UNL     1      25.944   1.026  52.234  1.00  0.00     0.065 C 
HETATM    6  N1  UNL     1      26.838   1.713  51.375  1.00  0.00    -0.266 NA
HETATM    7  C15 UNL     1      26.420   2.790  50.779  1.00  0.00     0.095 C 
HETATM    8  C16 UNL     1      25.007   3.233  51.036  1.00  0.00     0.034 C 
HETATM    9  C17 UNL     1      24.099   2.859  49.890  1.00  0.00     0.016 C 
ENDROOT
BRANCH   1  10
HETATM   10  C5  UNL     1      22.803  -0.041  53.667  1.00  0.00     0.065 C 
BRANCH  10  11
HETATM   11  C4  UNL     1      21.681  -0.620  52.859  1.00  0.00     0.172 C 
BRANCH  11  12
HETATM   12  O2  UNL     1      20.576   0.178  52.895  1.00  0.00    -0.389 OA
BRANCH  12  13
HETATM   13  C3  UNL     1      19.944   0.387  51.696  1.00  0.00     0.193 C 
BRANCH  13  14
HETATM   14  C2  UNL     1      18.422   0.426  51.938  1.00  0.00     0.193 C 
BRANCH  14  15
HETATM   15  O1  UNL     1      17.999  -0.887  51.903  1.00  0.00    -0.394 OA
HETATM   16  C1  UNL     1      17.418  -1.289  53.109  1.00  0.00     0.201 C 
ENDBRANCH  14  15
ENDBRANCH  13  14
ENDBRANCH  12  13
ENDBRANCH  11  12
ENDBRANCH  10  11
ENDBRANCH   1  10
BRANCH   5  17
HETATM   17  C11 UNL     1      26.564  -0.289  52.609  1.00  0.00     0.227 C 
BRANCH  17  18
HETATM   18  O3  UNL     1      26.416  -0.476  53.975  1.00  0.00    -0.383 OA
BRANCH  18  19
HETATM   19  C12 UNL     1      27.327   0.230  54.733  1.00  0.00     0.194 C 
BRANCH  19  20
HETATM   20  C13 UNL     1      28.762  -0.147  54.518  1.00  0.00     0.193 C 
BRANCH  20  21
HETATM   21  O4  UNL     1      29.512   0.827  53.872  1.00  0.00    -0.394 OA
HETATM   22  C14 UNL     1      29.044   2.110  54.073  1.00  0.00     0.201 C 
ENDBRANCH  20  21
ENDBRANCH  19  20
ENDBRANCH  18  19
ENDBRANCH  17  18
ENDBRANCH   5  17
TORSDOF 11
ENDMDL
