MODEL 1
REMARK VINA RESULT:      -8.0      0.000      0.000
REMARK  4 active torsions:
REMARK  status: ('A' for Active; 'I' for Inactive)
REMARK    1  A    between atoms: O1_2  and  C2_3 
REMARK    2  A    between atoms: C6_9  and  N3_10 
REMARK    3  A    between atoms: N3_10  and  C7_11 
REMARK    4  A    between atoms: C15_20  and  O2_21 
ROOT
HETATM    1  C2  UNL     1      27.311   1.402  53.632  1.00  0.00     0.192 C 
HETATM    2  C3  UNL     1      27.530   0.032  53.347  1.00  0.00     0.048 A 
HETATM    3  C4  UNL     1      28.697  -0.703  53.507  1.00  0.00     0.070 A 
HETATM    4  N1  UNL     1      28.859  -2.033  53.279  1.00  0.00    -0.241 NA
HETATM    5  C5  UNL     1      27.835  -2.783  52.853  1.00  0.00     0.235 A 
HETATM    6  N2  UNL     1      26.697  -2.093  52.687  1.00  0.00    -0.224 NA
HETATM    7  C6  UNL     1      26.540  -0.788  52.912  1.00  0.00     0.140 A 
HETATM    8  C13 UNL     1      29.963  -0.061  53.882  1.00  0.00     0.031 C 
HETATM    9  C14 UNL     1      29.766   1.239  54.007  1.00  0.00     0.010 C 
HETATM   10  C15 UNL     1      28.638   2.132  53.862  1.00  0.00     0.174 C 
ENDROOT
BRANCH   7  11
HETATM   11  N3  UNL     1      25.205  -0.407  52.628  1.00  0.00    -0.340 N 
HETATM   12  H6  UNL     1      24.812   0.064  51.825  1.00  0.00     0.167 HD
BRANCH  11  13
HETATM   13  C7  UNL     1      24.029  -0.603  53.409  1.00  0.00     0.035 A 
HETATM   14  C8  UNL     1      23.924  -1.082  54.701  1.00  0.00     0.029 A 
HETATM   15  C9  UNL     1      22.734  -1.214  55.369  1.00  0.00     0.004 A 
HETATM   16  C10 UNL     1      21.571  -0.855  54.735  1.00  0.00     0.019 A 
HETATM   17  C11 UNL     1      21.626  -0.369  53.436  1.00  0.00     0.013 A 
HETATM   18 BR1  UNL     1      19.904   0.074  52.726  1.00  0.00    -0.051 Br
HETATM   19  C12 UNL     1      22.837  -0.244  52.782  1.00  0.00     0.048 A 
ENDBRANCH  11  13
ENDBRANCH   7  11
BRANCH   1  20
HETATM   20  O1  UNL     1      26.480   2.177  52.856  1.00  0.00    -0.383 OA
HETATM   21  C1  UNL     1      25.457   2.699  53.690  1.00  0.00     0.202 C 
ENDBRANCH   1  20
BRANCH  10  22
HETATM   22  O2  UNL     1      28.778   3.006  52.765  1.00  0.00    -0.389 OA
HETATM   23  H14 UNL     1      29.425   2.634  52.141  1.00  0.00     0.210 HD
ENDBRANCH  10  22
TORSDOF 4
ENDMDL
MODEL 2
REMARK VINA RESULT:      -7.3      3.190      6.389
REMARK  4 active torsions:
REMARK  status: ('A' for Active; 'I' for Inactive)
REMARK    1  A    between atoms: O1_2  and  C2_3 
REMARK    2  A    between atoms: C6_9  and  N3_10 
REMARK    3  A    between atoms: N3_10  and  C7_11 
REMARK    4  A    between atoms: C15_20  and  O2_21 
ROOT
HETATM    1  C2  UNL     1      22.056   0.427  52.225  1.00  0.00     0.192 C 
HETATM    2  C3  UNL     1      22.670  -0.172  53.352  1.00  0.00     0.048 A 
HETATM    3  C4  UNL     1      22.085  -0.966  54.329  1.00  0.00     0.070 A 
HETATM    4  N1  UNL     1      22.715  -1.576  55.368  1.00  0.00    -0.241 NA
HETATM    5  C5  UNL     1      24.036  -1.444  55.537  1.00  0.00     0.235 A 
HETATM    6  N2  UNL     1      24.623  -0.678  54.607  1.00  0.00    -0.224 NA
HETATM    7  C6  UNL     1      24.004  -0.081  53.588  1.00  0.00     0.140 A 
HETATM    8  C13 UNL     1      20.632  -1.169  54.384  1.00  0.00     0.031 C 
HETATM    9  C14 UNL     1      20.064  -0.487  53.405  1.00  0.00     0.010 C 
HETATM   10  C15 UNL     1      20.529   0.376  52.343  1.00  0.00     0.174 C 
ENDROOT
BRANCH   7  11
HETATM   11  N3  UNL     1      24.940   0.646  52.813  1.00  0.00    -0.340 N 
HETATM   12  H6  UNL     1      24.834   1.123  51.928  1.00  0.00     0.167 HD
BRANCH  11  13
HETATM   13  C7  UNL     1      26.312   0.920  53.085  1.00  0.00     0.035 A 
HETATM   14  C8  UNL     1      26.913   2.141  53.331  1.00  0.00     0.029 A 
HETATM   15  C9  UNL     1      28.248   2.290  53.601  1.00  0.00     0.004 A 
HETATM   16  C10 UNL     1      29.051   1.177  53.633  1.00  0.00     0.019 A 
HETATM   17  C11 UNL     1      28.492  -0.071  53.391  1.00  0.00     0.013 A 
HETATM   18 BR1  UNL     1      29.770  -1.494  53.478  1.00  0.00    -0.051 Br
HETATM   19  C12 UNL     1      27.143  -0.198  53.121  1.00  0.00     0.048 A 
ENDBRANCH  11  13
ENDBRANCH   7  11
BRANCH   1  20
HETATM   20  O1  UNL     1      22.448   1.662  51.761  1.00  0.00    -0.383 OA
HETATM   21  C1  UNL     1      22.591   1.578  50.351  1.00  0.00     0.202 C 
ENDBRANCH   1  20
BRANCH  10  22
HETATM   22  O2  UNL     1      20.124   1.715  52.518  1.00  0.00    -0.389 OA
HETATM   23  H14 UNL     1      20.767   2.172  53.086  1.00  0.00     0.210 HD
ENDBRANCH  10  22
TORSDOF 4
ENDMDL
MODEL 3
REMARK VINA RESULT:      -7.3      3.419      5.813
REMARK  4 active torsions:
REMARK  status: ('A' for Active; 'I' for Inactive)
REMARK    1  A    between atoms: O1_2  and  C2_3 
REMARK    2  A    between atoms: C6_9  and  N3_10 
REMARK    3  A    between atoms: N3_10  and  C7_11 
REMARK    4  A    between atoms: C15_20  and  O2_21 
ROOT
HETATM    1  C2  UNL     1      22.511  -0.232  53.185  1.00  0.00     0.192 C 
HETATM    2  C3  UNL     1      23.884  -0.063  53.490  1.00  0.00     0.048 A 
HETATM    3  C4  UNL     1      24.613  -0.645  54.518  1.00  0.00     0.070 A 
HETATM    4  N1  UNL     1      25.946  -0.507  54.749  1.00  0.00    -0.241 NA
HETATM    5  C5  UNL     1      26.703   0.252  53.949  1.00  0.00     0.235 A 
HETATM    6  N2  UNL     1      26.019   0.828  52.950  1.00  0.00    -0.224 NA
HETATM    7  C6  UNL     1      24.712   0.691  52.724  1.00  0.00     0.140 A 
HETATM    8  C13 UNL     1      23.964  -1.446  55.563  1.00  0.00     0.031 C 
HETATM    9  C14 UNL     1      22.662  -1.475  55.336  1.00  0.00     0.010 C 
HETATM   10  C15 UNL     1      21.775  -0.919  54.340  1.00  0.00     0.174 C 
ENDROOT
BRANCH   7  11
HETATM   11  N3  UNL     1      24.338   1.445  51.584  1.00  0.00    -0.340 N 
HETATM   12  H6  UNL     1      24.033   1.146  50.668  1.00  0.00     0.167 HD
BRANCH  11  13
HETATM   13  C7  UNL     1      24.273   2.860  51.423  1.00  0.00     0.035 A 
HETATM   14  C8  UNL     1      23.484   3.767  52.103  1.00  0.00     0.029 A 
HETATM   15  C9  UNL     1      23.515   5.120  51.879  1.00  0.00     0.004 A 
HETATM   16  C10 UNL     1      24.371   5.619  50.929  1.00  0.00     0.019 A 
HETATM   17  C11 UNL     1      25.184   4.745  50.220  1.00  0.00     0.013 A 
HETATM   18 BR1  UNL     1      26.302   5.630  48.944  1.00  0.00    -0.051 Br
HETATM   19  C12 UNL     1      25.136   3.385  50.463  1.00  0.00     0.048 A 
ENDBRANCH  11  13
ENDBRANCH   7  11
BRANCH   1  20
HETATM   20  O1  UNL     1      21.747   0.802  52.693  1.00  0.00    -0.383 OA
HETATM   21  C1  UNL     1      21.093   0.347  51.519  1.00  0.00     0.202 C 
ENDBRANCH   1  20
BRANCH  10  22
HETATM   22  O2  UNL     1      20.914   0.063  54.870  1.00  0.00    -0.389 OA
HETATM   23  H14 UNL     1      21.245   0.342  55.740  1.00  0.00     0.210 HD
ENDBRANCH  10  22
TORSDOF 4
ENDMDL
MODEL 4
REMARK VINA RESULT:      -7.2      3.256      6.550
REMARK  4 active torsions:
REMARK  status: ('A' for Active; 'I' for Inactive)
REMARK    1  A    between atoms: O1_2  and  C2_3 
REMARK    2  A    between atoms: C6_9  and  N3_10 
REMARK    3  A    between atoms: N3_10  and  C7_11 
REMARK    4  A    between atoms: C15_20  and  O2_21 
ROOT
HETATM    1  C2  UNL     1      21.770   0.634  51.840  1.00  0.00     0.192 C 
HETATM    2  C3  UNL     1      22.061  -0.070  53.034  1.00  0.00     0.048 A 
HETATM    3  C4  UNL     1      21.195  -0.809  53.828  1.00  0.00     0.070 A 
HETATM    4  N1  UNL     1      21.518  -1.523  54.939  1.00  0.00    -0.241 NA
HETATM    5  C5  UNL     1      22.781  -1.565  55.380  1.00  0.00     0.235 A 
HETATM    6  N2  UNL     1      23.635  -0.854  54.631  1.00  0.00    -0.224 NA
HETATM    7  C6  UNL     1      23.317  -0.156  53.541  1.00  0.00     0.140 A 
HETATM    8  C13 UNL     1      19.748  -0.827  53.577  1.00  0.00     0.031 C 
HETATM    9  C14 UNL     1      19.482  -0.051  52.541  1.00  0.00     0.010 C 
HETATM   10  C15 UNL     1      20.257   0.774  51.643  1.00  0.00     0.174 C 
ENDROOT
BRANCH   7  11
HETATM   11  N3  UNL     1      24.474   0.467  53.011  1.00  0.00    -0.340 N 
HETATM   12  H6  UNL     1      24.578   1.321  52.480  1.00  0.00     0.167 HD
BRANCH  11  13
HETATM   13  C7  UNL     1      25.836   0.058  53.101  1.00  0.00     0.035 A 
HETATM   14  C8  UNL     1      26.394  -1.157  52.749  1.00  0.00     0.029 A 
HETATM   15  C9  UNL     1      27.731  -1.440  52.861  1.00  0.00     0.004 A 
HETATM   16  C10 UNL     1      28.579  -0.477  53.348  1.00  0.00     0.019 A 
HETATM   17  C11 UNL     1      28.064   0.759  53.715  1.00  0.00     0.013 A 
HETATM   18 BR1  UNL     1      29.399   1.964  54.369  1.00  0.00    -0.051 Br
HETATM   19  C12 UNL     1      26.712   1.024  53.593  1.00  0.00     0.048 A 
ENDBRANCH  11  13
ENDBRANCH   7  11
BRANCH   1  20
HETATM   20  O1  UNL     1      22.394   1.821  51.531  1.00  0.00    -0.383 OA
HETATM   21  C1  UNL     1      22.776   1.776  50.165  1.00  0.00     0.202 C 
ENDBRANCH   1  20
BRANCH  10  22
HETATM   22  O2  UNL     1      19.986   2.149  51.803  1.00  0.00    -0.389 OA
HETATM   23  H14 UNL     1      20.503   2.491  52.552  1.00  0.00     0.210 HD
ENDBRANCH  10  22
TORSDOF 4
ENDMDL
MODEL 5
REMARK VINA RESULT:      -7.1      3.364      5.900
REMARK  4 active torsions:
REMARK  status: ('A' for Active; 'I' for Inactive)
REMARK    1  A    between atoms: O1_2  and  C2_3 
REMARK    2  A    between atoms: C6_9  and  N3_10 
REMARK    3  A    between atoms: N3_10  and  C7_11 
REMARK    4  A    between atoms: C15_20  and  O2_21 
ROOT
HETATM    1  C2  UNL     1      22.394  -0.133  53.162  1.00  0.00     0.192 C 
HETATM    2  C3  UNL     1      23.782   0.006  53.406  1.00  0.00     0.048 A 
HETATM    3  C4  UNL     1      24.544  -0.595  54.399  1.00  0.00     0.070 A 
HETATM    4  N1  UNL     1      25.888  -0.486  54.571  1.00  0.00    -0.241 NA
HETATM    5  C5  UNL     1      26.625   0.261  53.740  1.00  0.00     0.235 A 
HETATM    6  N2  UNL     1      25.909   0.855  52.774  1.00  0.00    -0.224 NA
HETATM    7  C6  UNL     1      24.591   0.746  52.606  1.00  0.00     0.140 A 
HETATM    8  C13 UNL     1      23.925  -1.386  55.469  1.00  0.00     0.031 C 
HETATM    9  C14 UNL     1      22.614  -1.386  55.301  1.00  0.00     0.010 C 
HETATM   10  C15 UNL     1      21.695  -0.808  54.347  1.00  0.00     0.174 C 
ENDROOT
BRANCH   7  11
HETATM   11  N3  UNL     1      24.182   1.512  51.486  1.00  0.00    -0.340 N 
HETATM   12  H6  UNL     1      23.380   1.414  50.879  1.00  0.00     0.167 HD
BRANCH  11  13
HETATM   13  C7  UNL     1      24.797   2.661  50.910  1.00  0.00     0.035 A 
HETATM   14  C8  UNL     1      25.936   2.727  50.129  1.00  0.00     0.029 A 
HETATM   15  C9  UNL     1      26.433   3.893  49.607  1.00  0.00     0.004 A 
HETATM   16  C10 UNL     1      25.779   5.072  49.865  1.00  0.00     0.019 A 
HETATM   17  C11 UNL     1      24.631   5.056  50.646  1.00  0.00     0.013 A 
HETATM   18 BR1  UNL     1      23.867   6.793  50.892  1.00  0.00    -0.051 Br
HETATM   19  C12 UNL     1      24.147   3.868  51.161  1.00  0.00     0.048 A 
ENDBRANCH  11  13
ENDBRANCH   7  11
BRANCH   1  20
HETATM   20  O1  UNL     1      21.631   0.920  52.708  1.00  0.00    -0.383 OA
HETATM   21  C1  UNL     1      20.871   0.467  51.598  1.00  0.00     0.202 C 
ENDBRANCH   1  20
BRANCH  10  22
HETATM   22  O2  UNL     1      20.880   0.190  54.917  1.00  0.00    -0.389 OA
HETATM   23  H14 UNL     1      20.088   0.309  54.366  1.00  0.00     0.210 HD
ENDBRANCH  10  22
TORSDOF 4
ENDMDL
MODEL 6
REMARK VINA RESULT:      -7.0      4.199      6.366
REMARK  4 active torsions:
REMARK  status: ('A' for Active; 'I' for Inactive)
REMARK    1  A    between atoms: O1_2  and  C2_3 
REMARK    2  A    between atoms: C6_9  and  N3_10 
REMARK    3  A    between atoms: N3_10  and  C7_11 
REMARK    4  A    between atoms: C15_20  and  O2_21 
ROOT
HETATM    1  C2  UNL     1      23.881   0.902  51.948  1.00  0.00     0.192 C 
HETATM    2  C3  UNL     1      25.208   1.263  52.285  1.00  0.00     0.048 A 
HETATM    3  C4  UNL     1      26.018   0.727  53.276  1.00  0.00     0.070 A 
HETATM    4  N1  UNL     1      27.311   1.056  53.537  1.00  0.00    -0.241 NA
HETATM    5  C5  UNL     1      27.939   1.987  52.809  1.00  0.00     0.235 A 
HETATM    6  N2  UNL     1      27.174   2.523  51.847  1.00  0.00    -0.224 NA
HETATM    7  C6  UNL     1      25.906   2.198  51.592  1.00  0.00     0.140 A 
HETATM    8  C13 UNL     1      25.503  -0.247  54.247  1.00  0.00     0.031 C 
HETATM    9  C14 UNL     1      24.223  -0.465  54.000  1.00  0.00     0.010 C 
HETATM   10  C15 UNL     1      23.261   0.018  53.035  1.00  0.00     0.174 C 
ENDROOT
BRANCH   7  11
HETATM   11  N3  UNL     1      25.419   2.969  50.508  1.00  0.00    -0.340 N 
HETATM   12  H6  UNL     1      24.585   2.862  49.946  1.00  0.00     0.167 HD
BRANCH  11  13
HETATM   13  C7  UNL     1      25.976   4.138  49.914  1.00  0.00     0.035 A 
HETATM   14  C8  UNL     1      27.064   4.237  49.067  1.00  0.00     0.029 A 
HETATM   15  C9  UNL     1      27.508   5.420  48.534  1.00  0.00     0.004 A 
HETATM   16  C10 UNL     1      26.848   6.582  48.849  1.00  0.00     0.019 A 
HETATM   17  C11 UNL     1      25.750   6.532  49.697  1.00  0.00     0.013 A 
HETATM   18 BR1  UNL     1      24.969   8.251  50.015  1.00  0.00    -0.051 Br
HETATM   19  C12 UNL     1      25.319   5.328  50.221  1.00  0.00     0.048 A 
ENDBRANCH  11  13
ENDBRANCH   7  11
BRANCH   1  20
HETATM   20  O1  UNL     1      22.962   1.837  51.526  1.00  0.00    -0.383 OA
HETATM   21  C1  UNL     1      22.336   1.341  50.352  1.00  0.00     0.202 C 
ENDBRANCH   1  20
BRANCH  10  22
HETATM   22  O2  UNL     1      22.253   0.806  53.627  1.00  0.00    -0.389 OA
HETATM   23  H14 UNL     1      22.513   1.742  53.586  1.00  0.00     0.210 HD
ENDBRANCH  10  22
TORSDOF 4
ENDMDL
MODEL 7
REMARK VINA RESULT:      -6.9      3.497      5.767
REMARK  4 active torsions:
REMARK  status: ('A' for Active; 'I' for Inactive)
REMARK    1  A    between atoms: O1_2  and  C2_3 
REMARK    2  A    between atoms: C6_9  and  N3_10 
REMARK    3  A    between atoms: N3_10  and  C7_11 
REMARK    4  A    between atoms: C15_20  and  O2_21 
ROOT
HETATM    1  C2  UNL     1      24.946   0.406  53.453  1.00  0.00     0.192 C 
HETATM    2  C3  UNL     1      23.557   0.197  53.270  1.00  0.00     0.048 A 
HETATM    3  C4  UNL     1      22.679  -0.502  54.087  1.00  0.00     0.070 A 
HETATM    4  N1  UNL     1      21.337  -0.635  53.913  1.00  0.00    -0.241 NA
HETATM    5  C5  UNL     1      20.723  -0.064  52.870  1.00  0.00     0.235 A 
HETATM    6  N2  UNL     1      21.553   0.613  52.064  1.00  0.00    -0.224 NA
HETATM    7  C6  UNL     1      22.869   0.744  52.236  1.00  0.00     0.140 A 
HETATM    8  C13 UNL     1      23.154  -1.278  55.239  1.00  0.00     0.031 C 
HETATM    9  C14 UNL     1      24.470  -1.182  55.309  1.00  0.00     0.010 C 
HETATM   10  C15 UNL     1      25.500  -0.519  54.541  1.00  0.00     0.174 C 
ENDROOT
BRANCH   7  11
HETATM   11  N3  UNL     1      23.418   1.525  51.189  1.00  0.00    -0.340 N 
HETATM   12  H6  UNL     1      23.754   1.258  50.274  1.00  0.00     0.167 HD
BRANCH  11  13
HETATM   13  C7  UNL     1      23.634   2.933  51.136  1.00  0.00     0.035 A 
HETATM   14  C8  UNL     1      22.981   3.930  51.837  1.00  0.00     0.029 A 
HETATM   15  C9  UNL     1      23.284   5.262  51.723  1.00  0.00     0.004 A 
HETATM   16  C10 UNL     1      24.288   5.647  50.869  1.00  0.00     0.019 A 
HETATM   17  C11 UNL     1      24.972   4.681  50.144  1.00  0.00     0.013 A 
HETATM   18 BR1  UNL     1      26.330   5.414  49.012  1.00  0.00    -0.051 Br
HETATM   19  C12 UNL     1      24.650   3.343  50.275  1.00  0.00     0.048 A 
ENDBRANCH  11  13
ENDBRANCH   7  11
BRANCH   1  20
HETATM   20  O1  UNL     1      25.817   0.448  52.388  1.00  0.00    -0.383 OA
HETATM   21  C1  UNL     1      26.744   1.498  52.617  1.00  0.00     0.202 C 
ENDBRANCH   1  20
BRANCH  10  22
HETATM   22  O2  UNL     1      26.340  -1.427  53.867  1.00  0.00    -0.389 OA
HETATM   23  H14 UNL     1      26.114  -1.430  52.921  1.00  0.00     0.210 HD
ENDBRANCH  10  22
TORSDOF 4
ENDMDL
MODEL 8
REMARK VINA RESULT:      -6.8      3.058      4.764
REMARK  4 active torsions:
REMARK  status: ('A' for Active; 'I' for Inactive)
REMARK    1  A    between atoms: O1_2  and  C2_3 
REMARK    2  A    between atoms: C6_9  and  N3_10 
REMARK    3  A    between atoms: N3_10  and  C7_11 
REMARK    4  A    between atoms: C15_20  and  O2_21 
ROOT
HETATM    1  C2  UNL     1      24.044  -0.390  53.429  1.00  0.00     0.192 C 
HETATM    2  C3  UNL     1      24.105   0.775  52.625  1.00  0.00     0.048 A 
HETATM    3  C4  UNL     1      25.190   1.273  51.917  1.00  0.00     0.070 A 
HETATM    4  N1  UNL     1      25.200   2.364  51.106  1.00  0.00    -0.241 NA
HETATM    5  C5  UNL     1      24.089   3.088  50.920  1.00  0.00     0.235 A 
HETATM    6  N2  UNL     1      23.028   2.627  51.598  1.00  0.00    -0.224 NA
HETATM    7  C6  UNL     1      23.020   1.556  52.392  1.00  0.00     0.140 A 
HETATM    8  C13 UNL     1      26.528   0.685  52.046  1.00  0.00     0.031 C 
HETATM    9  C14 UNL     1      26.477  -0.315  52.910  1.00  0.00     0.010 C 
HETATM   10  C15 UNL     1      25.449  -0.929  53.719  1.00  0.00     0.174 C 
ENDROOT
BRANCH   7  11
HETATM   11  N3  UNL     1      21.727   1.372  52.941  1.00  0.00    -0.340 N 
HETATM   12  H6  UNL     1      21.377   1.542  53.874  1.00  0.00     0.167 HD
BRANCH  11  13
HETATM   13  C7  UNL     1      20.540   0.901  52.307  1.00  0.00     0.035 A 
HETATM   14  C8  UNL     1      20.017   1.267  51.081  1.00  0.00     0.029 A 
HETATM   15  C9  UNL     1      18.868   0.734  50.555  1.00  0.00     0.004 A 
HETATM   16  C10 UNL     1      18.185  -0.217  51.271  1.00  0.00     0.019 A 
HETATM   17  C11 UNL     1      18.672  -0.616  52.509  1.00  0.00     0.013 A 
HETATM   18 BR1  UNL     1      17.583  -1.946  53.350  1.00  0.00    -0.051 Br
HETATM   19  C12 UNL     1      19.833  -0.066  53.020  1.00  0.00     0.048 A 
ENDBRANCH  11  13
ENDBRANCH   7  11
BRANCH   1  20
HETATM   20  O1  UNL     1      23.279  -0.440  54.572  1.00  0.00    -0.383 OA
HETATM   21  C1  UNL     1      22.476  -1.609  54.515  1.00  0.00     0.202 C 
ENDBRANCH   1  20
BRANCH  10  22
HETATM   22  O2  UNL     1      25.650  -0.721  55.098  1.00  0.00    -0.389 OA
HETATM   23  H14 UNL     1      26.341  -0.048  55.222  1.00  0.00     0.210 HD
ENDBRANCH  10  22
TORSDOF 4
ENDMDL
MODEL 9
REMARK VINA RESULT:      -6.8      3.544      6.797
REMARK  4 active torsions:
REMARK  status: ('A' for Active; 'I' for Inactive)
REMARK    1  A    between atoms: O1_2  and  C2_3 
REMARK    2  A    between atoms: C6_9  and  N3_10 
REMARK    3  A    between atoms: N3_10  and  C7_11 
REMARK    4  A    between atoms: C15_20  and  O2_21 
ROOT
HETATM    1  C2  UNL     1      22.329   0.688  53.435  1.00  0.00     0.192 C 
HETATM    2  C3  UNL     1      22.847   1.617  52.499  1.00  0.00     0.048 A 
HETATM    3  C4  UNL     1      22.193   2.680  51.892  1.00  0.00     0.070 A 
HETATM    4  N1  UNL     1      22.736   3.591  51.041  1.00  0.00    -0.241 NA
HETATM    5  C5  UNL     1      24.029   3.522  50.701  1.00  0.00     0.235 A 
HETATM    6  N2  UNL     1      24.681   2.499  51.272  1.00  0.00    -0.224 NA
HETATM    7  C6  UNL     1      24.146   1.608  52.108  1.00  0.00     0.140 A 
HETATM    8  C13 UNL     1      20.750   2.889  52.057  1.00  0.00     0.031 C 
HETATM    9  C14 UNL     1      20.260   1.929  52.822  1.00  0.00     0.010 C 
HETATM   10  C15 UNL     1      20.800   0.773  53.500  1.00  0.00     0.174 C 
ENDROOT
BRANCH   7  11
HETATM   11  N3  UNL     1      25.132   0.672  52.510  1.00  0.00    -0.340 N 
HETATM   12  H6  UNL     1      25.090  -0.335  52.589  1.00  0.00     0.167 HD
BRANCH  11  13
HETATM   13  C7  UNL     1      26.482   0.901  52.904  1.00  0.00     0.035 A 
HETATM   14  C8  UNL     1      27.091   2.099  53.230  1.00  0.00     0.029 A 
HETATM   15  C9  UNL     1      28.402   2.204  53.617  1.00  0.00     0.004 A 
HETATM   16  C10 UNL     1      29.170   1.068  53.690  1.00  0.00     0.019 A 
HETATM   17  C11 UNL     1      28.601  -0.158  53.371  1.00  0.00     0.013 A 
HETATM   18 BR1  UNL     1      29.828  -1.618  53.532  1.00  0.00    -0.051 Br
HETATM   19  C12 UNL     1      27.277  -0.241  52.985  1.00  0.00     0.048 A 
ENDBRANCH  11  13
ENDBRANCH   7  11
BRANCH   1  20
HETATM   20  O1  UNL     1      22.725  -0.630  53.440  1.00  0.00    -0.383 OA
HETATM   21  C1  UNL     1      22.997  -1.004  54.782  1.00  0.00     0.202 C 
ENDBRANCH   1  20
BRANCH  10  22
HETATM   22  O2  UNL     1      20.336  -0.440  52.952  1.00  0.00    -0.389 OA
HETATM   23  H14 UNL     1      21.006  -1.131  53.093  1.00  0.00     0.210 HD
ENDBRANCH  10  22
TORSDOF 4
ENDMDL
