MODEL 1
REMARK VINA RESULT:      -9.5      0.000      0.000
REMARK  6 active torsions:
REMARK  status: ('A' for Active; 'I' for Inactive)
REMARK       I    between atoms: C1_2  and  N1_3 
REMARK       I    between atoms: C1_2  and  N3_12 
REMARK    1  A    between atoms: N1_3  and  C2_4 
REMARK    2  A    between atoms: C2_4  and  C3_5 
REMARK    3  A    between atoms: C3_5  and  N2_6 
REMARK    4  A    between atoms: N3_12  and  C9_13 
REMARK    5  A    between atoms: C14_20  and  N6_21 
REMARK    6  A    between atoms: N6_21  and  C15_22 
ROOT
HETATM    1  C9  UNL     1      25.203   4.570  49.863  1.00  0.00     0.037 A 
HETATM    2  C10 UNL     1      24.185   4.222  48.983  1.00  0.00     0.032 A 
HETATM    3  C11 UNL     1      23.332   3.197  49.325  1.00  0.00     0.035 A 
HETATM    4  C12 UNL     1      23.442   2.496  50.509  1.00  0.00     0.072 A 
HETATM    5  N4  UNL     1      22.612   1.510  50.830  1.00  0.00    -0.241 NA
HETATM    6  C13 UNL     1      22.765   0.850  52.012  1.00  0.00     0.236 A 
HETATM    7  N5  UNL     1      23.743   1.168  52.882  1.00  0.00    -0.224 NA
HETATM    8  C14 UNL     1      24.620   2.159  52.621  1.00  0.00     0.142 A 
HETATM    9  C21 UNL     1      24.452   2.820  51.414  1.00  0.00     0.041 A 
HETATM   10  C22 UNL     1      25.287   3.851  51.038  1.00  0.00     0.047 A 
ENDROOT
BRANCH   1  11
HETATM   11  N3  UNL     1      26.177   5.618  49.657  1.00  0.00    -0.309 N 
HETATM   12  C1  UNL     1      27.351   5.123  49.065  1.00  0.00     0.320 C 
HETATM   13  O1  UNL     1      27.307   3.867  48.838  1.00  0.00    -0.247 OA
HETATM   14  N1  UNL     1      28.499   5.889  48.730  1.00  0.00    -0.341 N 
HETATM   15  H1  UNL     1      28.381   6.908  48.980  1.00  0.00     0.164 HD
HETATM   16  H16 UNL     1      26.137   6.657  49.877  1.00  0.00     0.170 HD
BRANCH  14  17
HETATM   17  C2  UNL     1      29.684   5.286  48.111  1.00  0.00     0.154 C 
BRANCH  17  18
HETATM   18  C3  UNL     1      30.911   6.100  48.336  1.00  0.00     0.292 C 
BRANCH  18  19
HETATM   19  N2  UNL     1      32.032   5.203  48.504  1.00  0.00     0.090 N 
HETATM   20  C4  UNL     1      32.133   4.222  47.464  1.00  0.00     0.272 C 
HETATM   21  C5  UNL     1      32.923   4.694  46.273  1.00  0.00     0.030 C 
HETATM   22  C6  UNL     1      34.305   5.085  46.722  1.00  0.00     0.003 C 
HETATM   23  C7  UNL     1      34.389   5.091  48.243  1.00  0.00     0.030 C 
HETATM   24  C8  UNL     1      33.235   5.930  48.757  1.00  0.00     0.272 C 
ENDBRANCH  18  19
ENDBRANCH  17  18
ENDBRANCH  14  17
ENDBRANCH   1  11
BRANCH   8  25
HETATM   25  N6  UNL     1      25.685   2.572  53.471  1.00  0.00    -0.340 N 
HETATM   26  H20 UNL     1      25.731   3.410  54.065  1.00  0.00     0.167 HD
BRANCH  25  27
HETATM   27  C15 UNL     1      26.801   1.685  53.460  1.00  0.00     0.035 A 
HETATM   28  C16 UNL     1      28.078   2.096  53.757  1.00  0.00     0.032 A 
HETATM   29  C17 UNL     1      29.184   1.259  53.754  1.00  0.00     0.046 A 
HETATM   30  C18 UNL     1      28.966  -0.052  53.432  1.00  0.00     0.138 A 
HETATM   31  F1  UNL     1      29.977  -0.975  53.394  1.00  0.00    -0.204 F 
HETATM   32  C19 UNL     1      27.704  -0.566  53.114  1.00  0.00     0.074 A 
HETATM   33 CL1  UNL     1      27.474  -2.250  52.708  1.00  0.00    -0.081 Cl
HETATM   34  C20 UNL     1      26.654   0.335  53.140  1.00  0.00     0.056 A 
ENDBRANCH  25  27
ENDBRANCH   8  25
TORSDOF 6
ENDMDL
MODEL 2
REMARK VINA RESULT:      -9.4      3.775      5.734
REMARK  6 active torsions:
REMARK  status: ('A' for Active; 'I' for Inactive)
REMARK       I    between atoms: C1_2  and  N1_3 
REMARK       I    between atoms: C1_2  and  N3_12 
REMARK    1  A    between atoms: N1_3  and  C2_4 
REMARK    2  A    between atoms: C2_4  and  C3_5 
REMARK    3  A    between atoms: C3_5  and  N2_6 
REMARK    4  A    between atoms: N3_12  and  C9_13 
REMARK    5  A    between atoms: C14_20  and  N6_21 
REMARK    6  A    between atoms: N6_21  and  C15_22 
ROOT
HETATM    1  C9  UNL     1      21.253   0.245  51.945  1.00  0.00     0.037 A 
HETATM    2  C10 UNL     1      20.330  -0.116  52.919  1.00  0.00     0.032 A 
HETATM    3  C11 UNL     1      20.788  -0.627  54.112  1.00  0.00     0.035 A 
HETATM    4  C12 UNL     1      22.131  -0.797  54.387  1.00  0.00     0.072 A 
HETATM    5  N4  UNL     1      22.562  -1.289  55.542  1.00  0.00    -0.241 NA
HETATM    6  C13 UNL     1      23.899  -1.436  55.762  1.00  0.00     0.236 A 
HETATM    7  N5  UNL     1      24.813  -1.093  54.834  1.00  0.00    -0.224 NA
HETATM    8  C14 UNL     1      24.446  -0.587  53.639  1.00  0.00     0.142 A 
HETATM    9  C21 UNL     1      23.083  -0.444  53.431  1.00  0.00     0.041 A 
HETATM   10  C22 UNL     1      22.587   0.063  52.248  1.00  0.00     0.047 A 
ENDROOT
BRANCH   1  11
HETATM   11  N3  UNL     1      20.938   0.795  50.645  1.00  0.00    -0.309 N 
HETATM   12  C1  UNL     1      21.413   2.111  50.513  1.00  0.00     0.320 C 
HETATM   13  O1  UNL     1      22.015   2.534  51.557  1.00  0.00    -0.247 OA
HETATM   14  N1  UNL     1      21.270   2.934  49.365  1.00  0.00    -0.341 N 
HETATM   15  H1  UNL     1      20.751   2.442  48.588  1.00  0.00     0.164 HD
HETATM   16  H16 UNL     1      20.425   0.372  49.816  1.00  0.00     0.170 HD
BRANCH  14  17
HETATM   17  C2  UNL     1      21.801   4.301  49.315  1.00  0.00     0.154 C 
BRANCH  17  18
HETATM   18  C3  UNL     1      23.066   4.383  48.533  1.00  0.00     0.292 C 
BRANCH  18  19
HETATM   19  N2  UNL     1      24.069   5.026  49.353  1.00  0.00     0.090 N 
HETATM   20  C4  UNL     1      24.828   4.106  50.145  1.00  0.00     0.272 C 
HETATM   21  C5  UNL     1      26.031   3.551  49.428  1.00  0.00     0.030 C 
HETATM   22  C6  UNL     1      26.919   4.690  49.004  1.00  0.00     0.003 C 
HETATM   23  C7  UNL     1      26.220   6.024  49.231  1.00  0.00     0.030 C 
HETATM   24  C8  UNL     1      24.853   5.936  48.580  1.00  0.00     0.272 C 
ENDBRANCH  18  19
ENDBRANCH  17  18
ENDBRANCH  14  17
ENDBRANCH   1  11
BRANCH   8  25
HETATM   25  N6  UNL     1      25.330  -0.194  52.595  1.00  0.00    -0.340 N 
HETATM   26  H20 UNL     1      25.186  -0.275  51.580  1.00  0.00     0.167 HD
BRANCH  25  27
HETATM   27  C15 UNL     1      26.551   0.373  53.064  1.00  0.00     0.035 A 
HETATM   28  C16 UNL     1      26.680   1.706  53.372  1.00  0.00     0.032 A 
HETATM   29  C17 UNL     1      27.853   2.288  53.830  1.00  0.00     0.046 A 
HETATM   30  C18 UNL     1      28.935   1.465  53.974  1.00  0.00     0.138 A 
HETATM   31  F1  UNL     1      30.148   1.922  54.416  1.00  0.00    -0.204 F 
HETATM   32  C19 UNL     1      28.905   0.097  53.686  1.00  0.00     0.074 A 
HETATM   33 CL1  UNL     1      30.315  -0.916  53.886  1.00  0.00    -0.081 Cl
HETATM   34  C20 UNL     1      27.697  -0.406  53.235  1.00  0.00     0.056 A 
ENDBRANCH  25  27
ENDBRANCH   8  25
TORSDOF 6
ENDMDL
MODEL 3
REMARK VINA RESULT:      -9.3      2.986      3.501
REMARK  6 active torsions:
REMARK  status: ('A' for Active; 'I' for Inactive)
REMARK       I    between atoms: C1_2  and  N1_3 
REMARK       I    between atoms: C1_2  and  N3_12 
REMARK    1  A    between atoms: N1_3  and  C2_4 
REMARK    2  A    between atoms: C2_4  and  C3_5 
REMARK    3  A    between atoms: C3_5  and  N2_6 
REMARK    4  A    between atoms: N3_12  and  C9_13 
REMARK    5  A    between atoms: C14_20  and  N6_21 
REMARK    6  A    between atoms: N6_21  and  C15_22 
ROOT
HETATM    1  C9  UNL     1      25.494   3.980  49.746  1.00  0.00     0.037 A 
HETATM    2  C10 UNL     1      24.369   3.667  48.993  1.00  0.00     0.032 A 
HETATM    3  C11 UNL     1      23.425   2.821  49.529  1.00  0.00     0.035 A 
HETATM    4  C12 UNL     1      23.545   2.267  50.788  1.00  0.00     0.072 A 
HETATM    5  N4  UNL     1      22.628   1.452  51.296  1.00  0.00    -0.241 NA
HETATM    6  C13 UNL     1      22.796   0.933  52.545  1.00  0.00     0.236 A 
HETATM    7  N5  UNL     1      23.877   1.221  53.294  1.00  0.00    -0.224 NA
HETATM    8  C14 UNL     1      24.848   2.041  52.841  1.00  0.00     0.142 A 
HETATM    9  C21 UNL     1      24.662   2.561  51.570  1.00  0.00     0.041 A 
HETATM   10  C22 UNL     1      25.587   3.411  51.000  1.00  0.00     0.047 A 
ENDROOT
BRANCH   1  11
HETATM   11  N3  UNL     1      26.572   4.850  49.332  1.00  0.00    -0.309 N 
HETATM   12  C1  UNL     1      26.290   6.196  49.622  1.00  0.00     0.320 C 
HETATM   13  O1  UNL     1      25.155   6.361  50.183  1.00  0.00    -0.247 OA
HETATM   14  N1  UNL     1      27.138   7.301  49.345  1.00  0.00    -0.341 N 
HETATM   15  H1  UNL     1      28.038   7.001  48.880  1.00  0.00     0.164 HD
HETATM   16  H16 UNL     1      27.501   4.633  48.863  1.00  0.00     0.170 HD
BRANCH  14  17
HETATM   17  C2  UNL     1      26.761   8.677  49.685  1.00  0.00     0.154 C 
BRANCH  17  18
HETATM   18  C3  UNL     1      27.917   9.466  50.193  1.00  0.00     0.292 C 
BRANCH  18  19
HETATM   19  N2  UNL     1      28.776   9.792  49.076  1.00  0.00     0.090 N 
HETATM   20  C4  UNL     1      28.392  10.993  48.398  1.00  0.00     0.272 C 
HETATM   21  C5  UNL     1      29.000  12.235  48.992  1.00  0.00     0.030 C 
HETATM   22  C6  UNL     1      30.500  12.110  48.968  1.00  0.00     0.003 C 
HETATM   23  C7  UNL     1      30.909  10.699  48.564  1.00  0.00     0.030 C 
HETATM   24  C8  UNL     1      30.152   9.735  49.457  1.00  0.00     0.272 C 
ENDBRANCH  18  19
ENDBRANCH  17  18
ENDBRANCH  14  17
ENDBRANCH   1  11
BRANCH   8  25
HETATM   25  N6  UNL     1      26.026   2.409  53.552  1.00  0.00    -0.340 N 
HETATM   26  H20 UNL     1      26.208   3.280  54.067  1.00  0.00     0.167 HD
BRANCH  25  27
HETATM   27  C15 UNL     1      27.048   1.417  53.514  1.00  0.00     0.035 A 
HETATM   28  C16 UNL     1      28.353   1.682  53.855  1.00  0.00     0.032 A 
HETATM   29  C17 UNL     1      29.370   0.739  53.828  1.00  0.00     0.046 A 
HETATM   30  C18 UNL     1      29.031  -0.525  53.433  1.00  0.00     0.138 A 
HETATM   31  F1  UNL     1      29.946  -1.541  53.365  1.00  0.00    -0.204 F 
HETATM   32  C19 UNL     1      27.732  -0.893  53.066  1.00  0.00     0.074 A 
HETATM   33 CL1  UNL     1      27.346  -2.523  52.568  1.00  0.00    -0.081 Cl
HETATM   34  C20 UNL     1      26.775   0.106  53.121  1.00  0.00     0.056 A 
ENDBRANCH  25  27
ENDBRANCH   8  25
TORSDOF 6
ENDMDL
MODEL 4
REMARK VINA RESULT:      -8.9      4.163      9.326
REMARK  6 active torsions:
REMARK  status: ('A' for Active; 'I' for Inactive)
REMARK       I    between atoms: C1_2  and  N1_3 
REMARK       I    between atoms: C1_2  and  N3_12 
REMARK    1  A    between atoms: N1_3  and  C2_4 
REMARK    2  A    between atoms: C2_4  and  C3_5 
REMARK    3  A    between atoms: C3_5  and  N2_6 
REMARK    4  A    between atoms: N3_12  and  C9_13 
REMARK    5  A    between atoms: C14_20  and  N6_21 
REMARK    6  A    between atoms: N6_21  and  C15_22 
ROOT
HETATM    1  C9  UNL     1      30.029  10.027  49.207  1.00  0.00     0.037 A 
HETATM    2  C10 UNL     1      29.881  11.145  48.395  1.00  0.00     0.032 A 
HETATM    3  C11 UNL     1      30.821  11.387  47.419  1.00  0.00     0.035 A 
HETATM    4  C12 UNL     1      31.911  10.565  47.210  1.00  0.00     0.072 A 
HETATM    5  N4  UNL     1      32.811  10.807  46.265  1.00  0.00    -0.241 NA
HETATM    6  C13 UNL     1      33.868   9.963  46.099  1.00  0.00     0.236 A 
HETATM    7  N5  UNL     1      34.034   8.874  46.873  1.00  0.00    -0.224 NA
HETATM    8  C14 UNL     1      33.158   8.566  47.852  1.00  0.00     0.142 A 
HETATM    9  C21 UNL     1      32.089   9.435  48.007  1.00  0.00     0.041 A 
HETATM   10  C22 UNL     1      31.128   9.224  48.974  1.00  0.00     0.047 A 
ENDROOT
BRANCH   1  11
HETATM   11  N3  UNL     1      29.134   9.631  50.271  1.00  0.00    -0.309 N 
HETATM   12  C1  UNL     1      27.952   9.061  49.767  1.00  0.00     0.320 C 
HETATM   13  O1  UNL     1      27.923   9.016  48.491  1.00  0.00    -0.247 OA
HETATM   14  N1  UNL     1      26.870   8.570  50.543  1.00  0.00    -0.341 N 
HETATM   15  H1  UNL     1      27.045   8.679  51.579  1.00  0.00     0.164 HD
HETATM   16  H16 UNL     1      29.233   9.704  51.327  1.00  0.00     0.170 HD
BRANCH  14  17
HETATM   17  C2  UNL     1      25.671   7.989  49.929  1.00  0.00     0.154 C 
BRANCH  17  18
HETATM   18  C3  UNL     1      25.160   6.818  50.695  1.00  0.00     0.292 C 
BRANCH  18  19
HETATM   19  N2  UNL     1      24.890   5.745  49.764  1.00  0.00     0.090 N 
HETATM   20  C4  UNL     1      25.884   5.619  48.741  1.00  0.00     0.272 C 
HETATM   21  C5  UNL     1      27.041   4.740  49.138  1.00  0.00     0.030 C 
HETATM   22  C6  UNL     1      26.521   3.373  49.495  1.00  0.00     0.003 C 
HETATM   23  C7  UNL     1      24.999   3.383  49.557  1.00  0.00     0.030 C 
HETATM   24  C8  UNL     1      24.589   4.533  50.457  1.00  0.00     0.272 C 
ENDBRANCH  18  19
ENDBRANCH  17  18
ENDBRANCH  14  17
ENDBRANCH   1  11
BRANCH   8  25
HETATM   25  N6  UNL     1      33.242   7.442  48.721  1.00  0.00    -0.340 N 
HETATM   26  H20 UNL     1      33.475   7.432  49.722  1.00  0.00     0.167 HD
BRANCH  25  27
HETATM   27  C15 UNL     1      32.962   6.201  48.077  1.00  0.00     0.035 A 
HETATM   28  C16 UNL     1      31.690   5.695  47.963  1.00  0.00     0.032 A 
HETATM   29  C17 UNL     1      31.384   4.492  47.343  1.00  0.00     0.046 A 
HETATM   30  C18 UNL     1      32.431   3.782  46.823  1.00  0.00     0.138 A 
HETATM   31  F1  UNL     1      32.258   2.580  46.189  1.00  0.00    -0.204 F 
HETATM   32  C19 UNL     1      33.761   4.212  46.890  1.00  0.00     0.074 A 
HETATM   33 CL1  UNL     1      35.066   3.270  46.210  1.00  0.00    -0.081 Cl
HETATM   34  C20 UNL     1      33.980   5.423  47.524  1.00  0.00     0.056 A 
ENDBRANCH  25  27
ENDBRANCH   8  25
TORSDOF 6
ENDMDL
MODEL 5
REMARK VINA RESULT:      -8.9      4.646      8.795
REMARK  6 active torsions:
REMARK  status: ('A' for Active; 'I' for Inactive)
REMARK       I    between atoms: C1_2  and  N1_3 
REMARK       I    between atoms: C1_2  and  N3_12 
REMARK    1  A    between atoms: N1_3  and  C2_4 
REMARK    2  A    between atoms: C2_4  and  C3_5 
REMARK    3  A    between atoms: C3_5  and  N2_6 
REMARK    4  A    between atoms: N3_12  and  C9_13 
REMARK    5  A    between atoms: C14_20  and  N6_21 
REMARK    6  A    between atoms: N6_21  and  C15_22 
ROOT
HETATM    1  C9  UNL     1      24.494  -0.424  53.495  1.00  0.00     0.037 A 
HETATM    2  C10 UNL     1      25.001  -0.593  54.778  1.00  0.00     0.032 A 
HETATM    3  C11 UNL     1      26.169   0.050  55.121  1.00  0.00     0.035 A 
HETATM    4  C12 UNL     1      26.863   0.859  54.243  1.00  0.00     0.072 A 
HETATM    5  N4  UNL     1      27.989   1.475  54.584  1.00  0.00    -0.241 NA
HETATM    6  C13 UNL     1      28.635   2.262  53.679  1.00  0.00     0.236 A 
HETATM    7  N5  UNL     1      28.164   2.441  52.430  1.00  0.00    -0.224 NA
HETATM    8  C14 UNL     1      27.026   1.847  52.016  1.00  0.00     0.142 A 
HETATM    9  C21 UNL     1      26.381   1.048  52.948  1.00  0.00     0.041 A 
HETATM   10  C22 UNL     1      25.209   0.390  52.640  1.00  0.00     0.047 A 
ENDROOT
BRANCH   1  11
HETATM   11  N3  UNL     1      23.283  -1.024  52.980  1.00  0.00    -0.309 N 
HETATM   12  C1  UNL     1      22.195  -0.138  53.054  1.00  0.00     0.320 C 
HETATM   13  O1  UNL     1      22.505   0.996  53.555  1.00  0.00    -0.247 OA
HETATM   14  N1  UNL     1      20.868  -0.414  52.633  1.00  0.00    -0.341 N 
HETATM   15  H1  UNL     1      20.773  -1.391  52.243  1.00  0.00     0.164 HD
HETATM   16  H16 UNL     1      23.103  -1.990  52.574  1.00  0.00     0.170 HD
BRANCH  14  17
HETATM   17  C2  UNL     1      19.792   0.576  52.748  1.00  0.00     0.154 C 
BRANCH  17  18
HETATM   18  C3  UNL     1      19.531   1.274  51.458  1.00  0.00     0.292 C 
BRANCH  18  19
HETATM   19  N2  UNL     1      20.545   2.288  51.273  1.00  0.00     0.090 N 
HETATM   20  C4  UNL     1      20.905   2.484  49.901  1.00  0.00     0.272 C 
HETATM   21  C5  UNL     1      20.033   3.485  49.191  1.00  0.00     0.030 C 
HETATM   22  C6  UNL     1      20.105   4.803  49.916  1.00  0.00     0.003 C 
HETATM   23  C7  UNL     1      20.845   4.642  51.238  1.00  0.00     0.030 C 
HETATM   24  C8  UNL     1      20.206   3.483  51.978  1.00  0.00     0.272 C 
ENDBRANCH  18  19
ENDBRANCH  17  18
ENDBRANCH  14  17
ENDBRANCH   1  11
BRANCH   8  25
HETATM   25  N6  UNL     1      26.445   1.971  50.721  1.00  0.00    -0.340 N 
HETATM   26  H20 UNL     1      26.287   1.232  50.025  1.00  0.00     0.167 HD
BRANCH  25  27
HETATM   27  C15 UNL     1      26.052   3.303  50.398  1.00  0.00     0.035 A 
HETATM   28  C16 UNL     1      24.914   3.884  50.904  1.00  0.00     0.032 A 
HETATM   29  C17 UNL     1      24.505   5.177  50.609  1.00  0.00     0.046 A 
HETATM   30  C18 UNL     1      25.298   5.897  49.759  1.00  0.00     0.138 A 
HETATM   31  F1  UNL     1      24.999   7.182  49.391  1.00  0.00    -0.204 F 
HETATM   32  C19 UNL     1      26.474   5.394  49.192  1.00  0.00     0.074 A 
HETATM   33 CL1  UNL     1      27.455   6.353  48.110  1.00  0.00    -0.081 Cl
HETATM   34  C20 UNL     1      26.812   4.097  49.538  1.00  0.00     0.056 A 
ENDBRANCH  25  27
ENDBRANCH   8  25
TORSDOF 6
ENDMDL
MODEL 6
REMARK VINA RESULT:      -8.9      3.031      8.382
REMARK  6 active torsions:
REMARK  status: ('A' for Active; 'I' for Inactive)
REMARK       I    between atoms: C1_2  and  N1_3 
REMARK       I    between atoms: C1_2  and  N3_12 
REMARK    1  A    between atoms: N1_3  and  C2_4 
REMARK    2  A    between atoms: C2_4  and  C3_5 
REMARK    3  A    between atoms: C3_5  and  N2_6 
REMARK    4  A    between atoms: N3_12  and  C9_13 
REMARK    5  A    between atoms: C14_20  and  N6_21 
REMARK    6  A    between atoms: N6_21  and  C15_22 
ROOT
HETATM    1  C9  UNL     1      27.185   7.136  48.520  1.00  0.00     0.037 A 
HETATM    2  C10 UNL     1      26.539   7.681  47.417  1.00  0.00     0.032 A 
HETATM    3  C11 UNL     1      27.294   8.091  46.341  1.00  0.00     0.035 A 
HETATM    4  C12 UNL     1      28.670   7.985  46.308  1.00  0.00     0.072 A 
HETATM    5  N4  UNL     1      29.388   8.382  45.264  1.00  0.00    -0.241 NA
HETATM    6  C13 UNL     1      30.744   8.254  45.283  1.00  0.00     0.236 A 
HETATM    7  N5  UNL     1      31.394   7.729  46.339  1.00  0.00    -0.224 NA
HETATM    8  C14 UNL     1      30.728   7.305  47.433  1.00  0.00     0.142 A 
HETATM    9  C21 UNL     1      29.349   7.442  47.399  1.00  0.00     0.041 A 
HETATM   10  C22 UNL     1      28.561   7.043  48.458  1.00  0.00     0.047 A 
ENDROOT
BRANCH   1  11
HETATM   11  N3  UNL     1      26.543   6.657  49.724  1.00  0.00    -0.309 N 
HETATM   12  C1  UNL     1      26.347   5.267  49.687  1.00  0.00     0.320 C 
HETATM   13  O1  UNL     1      26.774   4.729  48.610  1.00  0.00    -0.247 OA
HETATM   14  N1  UNL     1      25.744   4.485  50.707  1.00  0.00    -0.341 N 
HETATM   15  H1  UNL     1      25.444   5.074  51.531  1.00  0.00     0.164 HD
HETATM   16  H16 UNL     1      26.212   7.178  50.590  1.00  0.00     0.170 HD
BRANCH  14  17
HETATM   17  C2  UNL     1      25.582   3.033  50.583  1.00  0.00     0.154 C 
BRANCH  17  18
HETATM   18  C3  UNL     1      26.629   2.284  51.333  1.00  0.00     0.292 C 
BRANCH  18  19
HETATM   19  N2  UNL     1      26.199   2.147  52.706  1.00  0.00     0.090 N 
HETATM   20  C4  UNL     1      24.865   1.640  52.834  1.00  0.00     0.272 C 
HETATM   21  C5  UNL     1      24.798   0.136  52.854  1.00  0.00     0.030 C 
HETATM   22  C6  UNL     1      25.636  -0.380  53.993  1.00  0.00     0.003 C 
HETATM   23  C7  UNL     1      26.449   0.751  54.610  1.00  0.00     0.030 C 
HETATM   24  C8  UNL     1      27.178   1.454  53.481  1.00  0.00     0.272 C 
ENDBRANCH  18  19
ENDBRANCH  17  18
ENDBRANCH  14  17
ENDBRANCH   1  11
BRANCH   8  25
HETATM   25  N6  UNL     1      31.317   6.736  48.598  1.00  0.00    -0.340 N 
HETATM   26  H20 UNL     1      31.089   6.930  49.581  1.00  0.00     0.167 HD
BRANCH  25  27
HETATM   27  C15 UNL     1      32.346   5.791  48.314  1.00  0.00     0.035 A 
HETATM   28  C16 UNL     1      33.677   6.055  48.534  1.00  0.00     0.032 A 
HETATM   29  C17 UNL     1      34.701   5.158  48.267  1.00  0.00     0.046 A 
HETATM   30  C18 UNL     1      34.340   3.944  47.752  1.00  0.00     0.138 A 
HETATM   31  F1  UNL     1      35.260   2.976  47.447  1.00  0.00    -0.204 F 
HETATM   32  C19 UNL     1      33.014   3.582  47.492  1.00  0.00     0.074 A 
HETATM   33 CL1  UNL     1      32.602   2.017  46.834  1.00  0.00    -0.081 Cl
HETATM   34  C20 UNL     1      32.053   4.533  47.787  1.00  0.00     0.056 A 
ENDBRANCH  25  27
ENDBRANCH   8  25
TORSDOF 6
ENDMDL
MODEL 7
REMARK VINA RESULT:      -8.8      4.332      7.071
REMARK  6 active torsions:
REMARK  status: ('A' for Active; 'I' for Inactive)
REMARK       I    between atoms: C1_2  and  N1_3 
REMARK       I    between atoms: C1_2  and  N3_12 
REMARK    1  A    between atoms: N1_3  and  C2_4 
REMARK    2  A    between atoms: C2_4  and  C3_5 
REMARK    3  A    between atoms: C3_5  and  N2_6 
REMARK    4  A    between atoms: N3_12  and  C9_13 
REMARK    5  A    between atoms: C14_20  and  N6_21 
REMARK    6  A    between atoms: N6_21  and  C15_22 
ROOT
HETATM    1  C9  UNL     1      21.345   1.950  51.558  1.00  0.00     0.037 A 
HETATM    2  C10 UNL     1      20.328   1.416  50.775  1.00  0.00     0.032 A 
HETATM    3  C11 UNL     1      20.042   2.007  49.565  1.00  0.00     0.035 A 
HETATM    4  C12 UNL     1      20.723   3.111  49.091  1.00  0.00     0.072 A 
HETATM    5  N4  UNL     1      20.440   3.672  47.922  1.00  0.00    -0.241 NA
HETATM    6  C13 UNL     1      21.143   4.760  47.501  1.00  0.00     0.236 A 
HETATM    7  N5  UNL     1      22.132   5.296  48.242  1.00  0.00    -0.224 NA
HETATM    8  C14 UNL     1      22.474   4.777  49.439  1.00  0.00     0.142 A 
HETATM    9  C21 UNL     1      21.749   3.671  49.853  1.00  0.00     0.041 A 
HETATM   10  C22 UNL     1      22.007   3.053  51.059  1.00  0.00     0.047 A 
ENDROOT
BRANCH   1  11
HETATM   11  N3  UNL     1      21.769   1.450  52.847  1.00  0.00    -0.309 N 
HETATM   12  C1  UNL     1      22.972   0.730  52.751  1.00  0.00     0.320 C 
HETATM   13  O1  UNL     1      23.428   0.673  51.559  1.00  0.00    -0.247 OA
HETATM   14  N1  UNL     1      23.657   0.109  53.828  1.00  0.00    -0.341 N 
HETATM   15  H1  UNL     1      23.154   0.245  54.747  1.00  0.00     0.164 HD
HETATM   16  H16 UNL     1      21.326   1.541  53.809  1.00  0.00     0.170 HD
BRANCH  14  17
HETATM   17  C2  UNL     1      24.913  -0.624  53.635  1.00  0.00     0.154 C 
BRANCH  17  18
HETATM   18  C3  UNL     1      25.956  -0.221  54.619  1.00  0.00     0.292 C 
BRANCH  18  19
HETATM   19  N2  UNL     1      27.219  -0.103  53.925  1.00  0.00     0.090 N 
HETATM   20  C4  UNL     1      27.135   0.672  52.723  1.00  0.00     0.272 C 
HETATM   21  C5  UNL     1      27.329   2.148  52.949  1.00  0.00     0.030 C 
HETATM   22  C6  UNL     1      28.670   2.375  53.592  1.00  0.00     0.003 C 
HETATM   23  C7  UNL     1      29.293   1.048  54.007  1.00  0.00     0.030 C 
HETATM   24  C8  UNL     1      28.258   0.296  54.820  1.00  0.00     0.272 C 
ENDBRANCH  18  19
ENDBRANCH  17  18
ENDBRANCH  14  17
ENDBRANCH   1  11
BRANCH   8  25
HETATM   25  N6  UNL     1      23.501   5.266  50.296  1.00  0.00    -0.340 N 
HETATM   26  H20 UNL     1      23.397   5.717  51.214  1.00  0.00     0.167 HD
BRANCH  25  27
HETATM   27  C15 UNL     1      24.814   5.088  49.772  1.00  0.00     0.035 A 
HETATM   28  C16 UNL     1      25.500   3.901  49.876  1.00  0.00     0.032 A 
HETATM   29  C17 UNL     1      26.778   3.695  49.378  1.00  0.00     0.046 A 
HETATM   30  C18 UNL     1      27.373   4.754  48.749  1.00  0.00     0.138 A 
HETATM   31  F1  UNL     1      28.632   4.675  48.217  1.00  0.00    -0.204 F 
HETATM   32  C19 UNL     1      26.759   6.001  48.594  1.00  0.00     0.074 A 
HETATM   33 CL1  UNL     1      27.560   7.325  47.782  1.00  0.00    -0.081 Cl
HETATM   34  C20 UNL     1      25.484   6.123  49.119  1.00  0.00     0.056 A 
ENDBRANCH  25  27
ENDBRANCH   8  25
TORSDOF 6
ENDMDL
MODEL 8
REMARK VINA RESULT:      -8.7      3.786      5.064
REMARK  6 active torsions:
REMARK  status: ('A' for Active; 'I' for Inactive)
REMARK       I    between atoms: C1_2  and  N1_3 
REMARK       I    between atoms: C1_2  and  N3_12 
REMARK    1  A    between atoms: N1_3  and  C2_4 
REMARK    2  A    between atoms: C2_4  and  C3_5 
REMARK    3  A    between atoms: C3_5  and  N2_6 
REMARK    4  A    between atoms: N3_12  and  C9_13 
REMARK    5  A    between atoms: C14_20  and  N6_21 
REMARK    6  A    between atoms: N6_21  and  C15_22 
ROOT
HETATM    1  C9  UNL     1      21.370   2.677  51.532  1.00  0.00     0.037 A 
HETATM    2  C10 UNL     1      20.297   2.400  52.371  1.00  0.00     0.032 A 
HETATM    3  C11 UNL     1      20.440   1.426  53.334  1.00  0.00     0.035 A 
HETATM    4  C12 UNL     1      21.608   0.709  53.505  1.00  0.00     0.072 A 
HETATM    5  N4  UNL     1      21.737  -0.227  54.438  1.00  0.00    -0.241 NA
HETATM    6  C13 UNL     1      22.912  -0.905  54.564  1.00  0.00     0.236 A 
HETATM    7  N5  UNL     1      23.965  -0.655  53.764  1.00  0.00    -0.224 NA
HETATM    8  C14 UNL     1      23.905   0.283  52.796  1.00  0.00     0.142 A 
HETATM    9  C21 UNL     1      22.703   0.963  52.679  1.00  0.00     0.041 A 
HETATM   10  C22 UNL     1      22.523   1.944  51.727  1.00  0.00     0.047 A 
ENDROOT
BRANCH   1  11
HETATM   11  N3  UNL     1      21.383   3.665  50.477  1.00  0.00    -0.309 N 
HETATM   12  C1  UNL     1      21.968   4.869  50.904  1.00  0.00     0.320 C 
HETATM   13  O1  UNL     1      22.359   4.833  52.120  1.00  0.00    -0.247 OA
HETATM   14  N1  UNL     1      22.136   6.037  50.115  1.00  0.00    -0.341 N 
HETATM   15  H1  UNL     1      21.762   5.909  49.136  1.00  0.00     0.164 HD
HETATM   16  H16 UNL     1      21.032   3.618  49.475  1.00  0.00     0.170 HD
BRANCH  14  17
HETATM   17  C2  UNL     1      22.761   7.253  50.646  1.00  0.00     0.154 C 
BRANCH  17  18
HETATM   18  C3  UNL     1      23.544   7.981  49.609  1.00  0.00     0.292 C 
BRANCH  18  19
HETATM   19  N2  UNL     1      24.945   7.910  49.959  1.00  0.00     0.090 N 
HETATM   20  C4  UNL     1      25.371   6.593  50.328  1.00  0.00     0.272 C 
HETATM   21  C5  UNL     1      25.809   5.757  49.155  1.00  0.00     0.030 C 
HETATM   22  C6  UNL     1      26.933   6.460  48.441  1.00  0.00     0.003 C 
HETATM   23  C7  UNL     1      27.111   7.870  48.990  1.00  0.00     0.030 C 
HETATM   24  C8  UNL     1      25.752   8.542  48.965  1.00  0.00     0.272 C 
ENDBRANCH  18  19
ENDBRANCH  17  18
ENDBRANCH  14  17
ENDBRANCH   1  11
BRANCH   8  25
HETATM   25  N6  UNL     1      24.959   0.623  51.900  1.00  0.00    -0.340 N 
HETATM   26  H20 UNL     1      24.907   0.750  50.881  1.00  0.00     0.167 HD
BRANCH  25  27
HETATM   27  C15 UNL     1      26.220   0.795  52.542  1.00  0.00     0.035 A 
HETATM   28  C16 UNL     1      26.622   1.996  53.077  1.00  0.00     0.032 A 
HETATM   29  C17 UNL     1      27.842   2.197  53.707  1.00  0.00     0.046 A 
HETATM   30  C18 UNL     1      28.680   1.119  53.788  1.00  0.00     0.138 A 
HETATM   31  F1  UNL     1      29.910   1.192  54.385  1.00  0.00    -0.204 F 
HETATM   32  C19 UNL     1      28.362  -0.143  53.274  1.00  0.00     0.074 A 
HETATM   33 CL1  UNL     1      29.466  -1.491  53.402  1.00  0.00    -0.081 Cl
HETATM   34  C20 UNL     1      27.126  -0.259  52.662  1.00  0.00     0.056 A 
ENDBRANCH  25  27
ENDBRANCH   8  25
TORSDOF 6
ENDMDL
MODEL 9
REMARK VINA RESULT:      -8.6      5.308      7.120
REMARK  6 active torsions:
REMARK  status: ('A' for Active; 'I' for Inactive)
REMARK       I    between atoms: C1_2  and  N1_3 
REMARK       I    between atoms: C1_2  and  N3_12 
REMARK    1  A    between atoms: N1_3  and  C2_4 
REMARK    2  A    between atoms: C2_4  and  C3_5 
REMARK    3  A    between atoms: C3_5  and  N2_6 
REMARK    4  A    between atoms: N3_12  and  C9_13 
REMARK    5  A    between atoms: C14_20  and  N6_21 
REMARK    6  A    between atoms: N6_21  and  C15_22 
ROOT
HETATM    1  C9  UNL     1      20.981   0.448  51.877  1.00  0.00     0.037 A 
HETATM    2  C10 UNL     1      20.048  -0.158  52.711  1.00  0.00     0.032 A 
HETATM    3  C11 UNL     1      20.488  -0.794  53.849  1.00  0.00     0.035 A 
HETATM    4  C12 UNL     1      21.822  -0.858  54.202  1.00  0.00     0.072 A 
HETATM    5  N4  UNL     1      22.236  -1.474  55.304  1.00  0.00    -0.241 NA
HETATM    6  C13 UNL     1      23.564  -1.507  55.606  1.00  0.00     0.236 A 
HETATM    7  N5  UNL     1      24.487  -0.928  54.815  1.00  0.00    -0.224 NA
HETATM    8  C14 UNL     1      24.137  -0.285  53.681  1.00  0.00     0.142 A 
HETATM    9  C21 UNL     1      22.783  -0.261  53.388  1.00  0.00     0.041 A 
HETATM   10  C22 UNL     1      22.305   0.367  52.256  1.00  0.00     0.047 A 
ENDROOT
BRANCH   1  11
HETATM   11  N3  UNL     1      20.684   1.156  50.652  1.00  0.00    -0.309 N 
HETATM   12  C1  UNL     1      20.465   2.524  50.885  1.00  0.00     0.320 C 
HETATM   13  O1  UNL     1      20.575   2.846  52.116  1.00  0.00    -0.247 OA
HETATM   14  N1  UNL     1      20.153   3.495  49.898  1.00  0.00    -0.341 N 
HETATM   15  H1  UNL     1      20.098   3.073  48.932  1.00  0.00     0.164 HD
HETATM   16  H16 UNL     1      20.610   0.810  49.649  1.00  0.00     0.170 HD
BRANCH  14  17
HETATM   17  C2  UNL     1      19.942   4.907  50.234  1.00  0.00     0.154 C 
BRANCH  17  18
HETATM   18  C3  UNL     1      21.221   5.615  50.518  1.00  0.00     0.292 C 
BRANCH  18  19
HETATM   19  N2  UNL     1      21.595   6.374  49.345  1.00  0.00     0.090 N 
HETATM   20  C4  UNL     1      22.855   5.978  48.792  1.00  0.00     0.272 C 
HETATM   21  C5  UNL     1      22.744   4.849  47.802  1.00  0.00     0.030 C 
HETATM   22  C6  UNL     1      21.820   5.261  46.687  1.00  0.00     0.003 C 
HETATM   23  C7  UNL     1      21.130   6.576  47.026  1.00  0.00     0.030 C 
HETATM   24  C8  UNL     1      20.520   6.425  48.406  1.00  0.00     0.272 C 
ENDBRANCH  18  19
ENDBRANCH  17  18
ENDBRANCH  14  17
ENDBRANCH   1  11
BRANCH   8  25
HETATM   25  N6  UNL     1      25.032   0.358  52.779  1.00  0.00    -0.340 N 
HETATM   26  H20 UNL     1      24.800   0.974  51.990  1.00  0.00     0.167 HD
BRANCH  25  27
HETATM   27  C15 UNL     1      26.405   0.082  53.044  1.00  0.00     0.035 A 
HETATM   28  C16 UNL     1      26.986  -1.131  52.759  1.00  0.00     0.032 A 
HETATM   29  C17 UNL     1      28.318  -1.431  53.005  1.00  0.00     0.046 A 
HETATM   30  C18 UNL     1      29.080  -0.445  53.567  1.00  0.00     0.138 A 
HETATM   31  F1  UNL     1      30.407  -0.621  53.858  1.00  0.00    -0.204 F 
HETATM   32  C19 UNL     1      28.582   0.820  53.895  1.00  0.00     0.074 A 
HETATM   33 CL1  UNL     1      29.595   2.049  54.612  1.00  0.00    -0.081 Cl
HETATM   34  C20 UNL     1      27.243   1.039  53.617  1.00  0.00     0.056 A 
ENDBRANCH  25  27
ENDBRANCH   8  25
TORSDOF 6
ENDMDL
