MODEL 1
REMARK VINA RESULT:      -7.7      0.000      0.000
REMARK  2 active torsions:
REMARK  status: ('A' for Active; 'I' for Inactive)
REMARK    1  A    between atoms: C5_5  and  C6_6 
REMARK    2  A    between atoms: C16_21  and  N4_22 
ROOT
HETATM    1  C6  UNL     1      22.473   2.231  49.723  1.00  0.00     0.058 C 
HETATM    2  N1  UNL     1      22.103   1.459  48.763  1.00  0.00    -0.245 NA
HETATM    3  C7  UNL     1      21.881   1.806  47.419  1.00  0.00     0.233 C 
HETATM    4  N2  UNL     1      22.068   3.020  47.030  1.00  0.00    -0.246 NA
HETATM    5  C8  UNL     1      22.511   3.964  48.004  1.00  0.00     0.050 C 
HETATM    6  C9  UNL     1      22.883   5.183  47.574  1.00  0.00     0.066 C 
HETATM    7  C10 UNL     1      23.345   6.201  48.511  1.00  0.00     0.086 C 
HETATM    8  C11 UNL     1      22.532   7.274  48.635  1.00  0.00     0.120 C 
HETATM    9  N3  UNL     1      21.559   7.333  49.709  1.00  0.00    -0.396 N 
HETATM   10  C12 UNL     1      21.290   6.875  51.084  1.00  0.00     0.133 C 
HETATM   11  C13 UNL     1      21.966   5.490  51.232  1.00  0.00     0.110 C 
HETATM   12  C14 UNL     1      23.456   5.708  51.328  1.00  0.00     0.158 C 
HETATM   13  O1  UNL     1      23.918   5.677  52.479  1.00  0.00    -0.295 OA
HETATM   14  C15 UNL     1      24.777   5.968  50.662  1.00  0.00     0.254 C 
HETATM   15  O2  UNL     1      24.559   6.070  49.237  1.00  0.00    -0.343 OA
HETATM   16  C16 UNL     1      21.541   4.532  50.190  1.00  0.00     0.251 C 
HETATM   17  C21 UNL     1      22.598   3.695  49.512  1.00  0.00     0.125 C 
HETATM   18  H9  UNL     1      20.746   7.917  49.390  1.00  0.00     0.158 HD
ENDROOT
BRANCH   1  19
HETATM   19  C5  UNL     1      22.617   1.496  50.967  1.00  0.00    -0.011 A 
HETATM   20  C4  UNL     1      21.716   0.516  51.366  1.00  0.00     0.014 A 
HETATM   21  C3  UNL     1      21.822  -0.247  52.506  1.00  0.00     0.007 A 
HETATM   22  C2  UNL     1      22.899  -0.033  53.325  1.00  0.00    -0.062 A 
HETATM   23  C1  UNL     1      23.026  -0.849  54.559  1.00  0.00     0.048 C 
HETATM   24  C23 UNL     1      23.851   0.910  53.026  1.00  0.00     0.007 A 
HETATM   25  C22 UNL     1      23.655   1.619  51.867  1.00  0.00     0.014 A 
ENDBRANCH   1  19
BRANCH  16  26
HETATM   26  N4  UNL     1      20.277   3.882  50.323  1.00  0.00     0.099 N 
HETATM   27  C17 UNL     1      19.247   4.459  49.477  1.00  0.00     0.299 C 
HETATM   28  C18 UNL     1      17.986   4.676  50.255  1.00  0.00     0.198 C 
HETATM   29  O3  UNL     1      17.553   3.591  50.974  1.00  0.00    -0.388 OA
HETATM   30  C19 UNL     1      18.563   2.835  51.556  1.00  0.00     0.198 C 
HETATM   31  C20 UNL     1      19.762   3.794  51.662  1.00  0.00     0.299 C 
ENDBRANCH  16  26
TORSDOF 2
ENDMDL
MODEL 2
REMARK VINA RESULT:      -7.7      1.529      2.086
REMARK  2 active torsions:
REMARK  status: ('A' for Active; 'I' for Inactive)
REMARK    1  A    between atoms: C5_5  and  C6_6 
REMARK    2  A    between atoms: C16_21  and  N4_22 
ROOT
HETATM    1  C6  UNL     1      23.486   3.090  49.215  1.00  0.00     0.058 C 
HETATM    2  N1  UNL     1      23.043   2.124  48.489  1.00  0.00    -0.245 NA
HETATM    3  C7  UNL     1      22.263   2.213  47.323  1.00  0.00     0.233 C 
HETATM    4  N2  UNL     1      21.930   3.369  46.860  1.00  0.00    -0.246 NA
HETATM    5  C8  UNL     1      22.391   4.519  47.566  1.00  0.00     0.050 C 
HETATM    6  C9  UNL     1      22.205   5.723  46.995  1.00  0.00     0.066 C 
HETATM    7  C10 UNL     1      22.648   6.945  47.657  1.00  0.00     0.086 C 
HETATM    8  C11 UNL     1      21.654   7.772  48.054  1.00  0.00     0.120 C 
HETATM    9  N3  UNL     1      21.159   7.717  49.416  1.00  0.00    -0.396 N 
HETATM   10  C12 UNL     1      21.548   7.397  50.801  1.00  0.00     0.133 C 
HETATM   11  C13 UNL     1      22.610   6.273  50.717  1.00  0.00     0.110 C 
HETATM   12  C14 UNL     1      23.899   6.888  50.230  1.00  0.00     0.158 C 
HETATM   13  O1  UNL     1      24.730   7.138  51.118  1.00  0.00    -0.295 OA
HETATM   14  C15 UNL     1      24.755   7.395  49.104  1.00  0.00     0.254 C 
HETATM   15  O2  UNL     1      24.021   7.240  47.868  1.00  0.00    -0.343 OA
HETATM   16  C16 UNL     1      22.145   5.104  49.941  1.00  0.00     0.251 C 
HETATM   17  C21 UNL     1      23.087   4.491  48.934  1.00  0.00     0.125 C 
HETATM   18  H9  UNL     1      20.152   8.016  49.416  1.00  0.00     0.158 HD
ENDROOT
BRANCH   1  19
HETATM   19  C5  UNL     1      24.276   2.596  50.328  1.00  0.00    -0.011 A 
HETATM   20  C4  UNL     1      25.600   2.967  50.529  1.00  0.00     0.014 A 
HETATM   21  C3  UNL     1      26.387   2.572  51.587  1.00  0.00     0.007 A 
HETATM   22  C2  UNL     1      25.831   1.746  52.528  1.00  0.00    -0.062 A 
HETATM   23  C1  UNL     1      26.667   1.312  53.675  1.00  0.00     0.048 C 
HETATM   24  C23 UNL     1      24.530   1.318  52.428  1.00  0.00     0.007 A 
HETATM   25  C22 UNL     1      23.830   1.767  51.335  1.00  0.00     0.014 A 
ENDBRANCH   1  19
BRANCH  16  26
HETATM   26  N4  UNL     1      21.266   4.168  50.564  1.00  0.00     0.099 N 
HETATM   27  C17 UNL     1      19.910   4.227  50.046  1.00  0.00     0.299 C 
HETATM   28  C18 UNL     1      18.918   4.242  51.168  1.00  0.00     0.198 C 
HETATM   29  O3  UNL     1      19.095   3.265  52.115  1.00  0.00    -0.388 OA
HETATM   30  C19 UNL     1      20.421   2.975  52.413  1.00  0.00     0.198 C 
HETATM   31  C20 UNL     1      21.203   4.234  51.998  1.00  0.00     0.299 C 
ENDBRANCH  16  26
TORSDOF 2
ENDMDL
MODEL 3
REMARK VINA RESULT:      -7.6      7.321      9.978
REMARK  2 active torsions:
REMARK  status: ('A' for Active; 'I' for Inactive)
REMARK    1  A    between atoms: C5_5  and  C6_6 
REMARK    2  A    between atoms: C16_21  and  N4_22 
ROOT
HETATM    1  C6  UNL     1      28.559   8.314  46.253  1.00  0.00     0.058 C 
HETATM    2  N1  UNL     1      27.894   8.417  45.157  1.00  0.00    -0.245 NA
HETATM    3  C7  UNL     1      28.199   9.211  44.038  1.00  0.00     0.233 C 
HETATM    4  N2  UNL     1      29.267   9.934  44.035  1.00  0.00    -0.246 NA
HETATM    5  C8  UNL     1      30.103   9.878  45.189  1.00  0.00     0.050 C 
HETATM    6  C9  UNL     1      31.303  10.481  45.125  1.00  0.00     0.066 C 
HETATM    7  C10 UNL     1      32.214  10.468  46.266  1.00  0.00     0.086 C 
HETATM    8  C11 UNL     1      32.431  11.674  46.836  1.00  0.00     0.120 C 
HETATM    9  N3  UNL     1      31.661  12.083  47.995  1.00  0.00    -0.396 N 
HETATM   10  C12 UNL     1      30.942  11.570  49.175  1.00  0.00     0.133 C 
HETATM   11  C13 UNL     1      30.364  10.190  48.779  1.00  0.00     0.110 C 
HETATM   12  C14 UNL     1      31.506   9.204  48.734  1.00  0.00     0.158 C 
HETATM   13  O1  UNL     1      31.620   8.486  49.739  1.00  0.00    -0.295 OA
HETATM   14  C15 UNL     1      32.680   8.606  48.011  1.00  0.00     0.254 C 
HETATM   15  O2  UNL     1      32.822   9.274  46.738  1.00  0.00    -0.343 OA
HETATM   16  C16 UNL     1      29.539  10.245  47.554  1.00  0.00     0.251 C 
HETATM   17  C21 UNL     1      29.739   9.178  46.506  1.00  0.00     0.125 C 
HETATM   18  H9  UNL     1      31.590  13.132  47.994  1.00  0.00     0.158 HD
ENDROOT
BRANCH   1  19
HETATM   19  C5  UNL     1      27.934   7.372  47.165  1.00  0.00    -0.011 A 
HETATM   20  C4  UNL     1      26.587   7.437  47.499  1.00  0.00     0.014 A 
HETATM   21  C3  UNL     1      25.926   6.549  48.317  1.00  0.00     0.007 A 
HETATM   22  C2  UNL     1      26.644   5.512  48.853  1.00  0.00    -0.062 A 
HETATM   23  C1  UNL     1      25.944   4.547  49.737  1.00  0.00     0.048 C 
HETATM   24  C23 UNL     1      27.981   5.353  48.588  1.00  0.00     0.007 A 
HETATM   25  C22 UNL     1      28.548   6.292  47.761  1.00  0.00     0.014 A 
ENDBRANCH   1  19
BRANCH  16  26
HETATM   26  N4  UNL     1      28.201  10.731  47.644  1.00  0.00     0.099 N 
HETATM   27  C17 UNL     1      28.066  12.115  47.222  1.00  0.00     0.299 C 
HETATM   28  C18 UNL     1      27.253  12.891  48.211  1.00  0.00     0.198 C 
HETATM   29  O3  UNL     1      26.060  12.314  48.564  1.00  0.00    -0.388 OA
HETATM   30  C19 UNL     1      26.094  10.930  48.682  1.00  0.00     0.198 C 
HETATM   31  C20 UNL     1      27.575  10.591  48.930  1.00  0.00     0.299 C 
ENDBRANCH  16  26
TORSDOF 2
ENDMDL
MODEL 4
REMARK VINA RESULT:      -7.3      0.907      1.335
REMARK  2 active torsions:
REMARK  status: ('A' for Active; 'I' for Inactive)
REMARK    1  A    between atoms: C5_5  and  C6_6 
REMARK    2  A    between atoms: C16_21  and  N4_22 
ROOT
HETATM    1  C6  UNL     1      22.751   3.051  48.998  1.00  0.00     0.058 C 
HETATM    2  N1  UNL     1      22.362   2.338  48.001  1.00  0.00    -0.245 NA
HETATM    3  C7  UNL     1      22.015   2.779  46.712  1.00  0.00     0.233 C 
HETATM    4  N2  UNL     1      22.088   4.032  46.421  1.00  0.00    -0.246 NA
HETATM    5  C8  UNL     1      22.537   4.921  47.443  1.00  0.00     0.050 C 
HETATM    6  C9  UNL     1      22.790   6.196  47.100  1.00  0.00     0.066 C 
HETATM    7  C10 UNL     1      23.251   7.164  48.090  1.00  0.00     0.086 C 
HETATM    8  C11 UNL     1      22.378   8.158  48.366  1.00  0.00     0.120 C 
HETATM    9  N3  UNL     1      21.487   8.052  49.507  1.00  0.00    -0.396 N 
HETATM   10  C12 UNL     1      21.357   7.461  50.850  1.00  0.00     0.133 C 
HETATM   11  C13 UNL     1      22.136   6.123  50.826  1.00  0.00     0.110 C 
HETATM   12  C14 UNL     1      23.610   6.444  50.836  1.00  0.00     0.158 C 
HETATM   13  O1  UNL     1      24.160   6.350  51.944  1.00  0.00    -0.295 OA
HETATM   14  C15 UNL     1      24.856   6.859  50.106  1.00  0.00     0.254 C 
HETATM   15  O2  UNL     1      24.523   7.064  48.714  1.00  0.00    -0.343 OA
HETATM   16  C16 UNL     1      21.700   5.227  49.734  1.00  0.00     0.251 C 
HETATM   17  C21 UNL     1      22.757   4.532  48.911  1.00  0.00     0.125 C 
HETATM   18  H9  UNL     1      20.614   8.598  49.299  1.00  0.00     0.158 HD
ENDROOT
BRANCH   1  19
HETATM   19  C5  UNL     1      23.040   2.226  50.158  1.00  0.00    -0.011 A 
HETATM   20  C4  UNL     1      24.218   2.344  50.884  1.00  0.00     0.014 A 
HETATM   21  C3  UNL     1      24.531   1.627  52.017  1.00  0.00     0.007 A 
HETATM   22  C2  UNL     1      23.613   0.719  52.476  1.00  0.00    -0.062 A 
HETATM   23  C1  UNL     1      23.937  -0.061  53.697  1.00  0.00     0.048 C 
HETATM   24  C23 UNL     1      22.415   0.523  51.836  1.00  0.00     0.007 A 
HETATM   25  C22 UNL     1      22.199   1.287  50.715  1.00  0.00     0.014 A 
ENDBRANCH   1  19
BRANCH  16  26
HETATM   26  N4  UNL     1      20.498   4.475  49.896  1.00  0.00     0.099 N 
HETATM   27  C17 UNL     1      19.392   4.988  49.106  1.00  0.00     0.299 C 
HETATM   28  C18 UNL     1      18.151   5.083  49.936  1.00  0.00     0.198 C 
HETATM   29  O3  UNL     1      17.833   3.950  50.641  1.00  0.00    -0.388 OA
HETATM   30  C19 UNL     1      18.922   3.264  51.163  1.00  0.00     0.198 C 
HETATM   31  C20 UNL     1      20.045   4.313  51.251  1.00  0.00     0.299 C 
ENDBRANCH  16  26
TORSDOF 2
ENDMDL
MODEL 5
REMARK VINA RESULT:      -7.1      2.413      5.580
REMARK  2 active torsions:
REMARK  status: ('A' for Active; 'I' for Inactive)
REMARK    1  A    between atoms: C5_5  and  C6_6 
REMARK    2  A    between atoms: C16_21  and  N4_22 
ROOT
HETATM    1  C6  UNL     1      23.008   5.369  49.965  1.00  0.00     0.058 C 
HETATM    2  N1  UNL     1      22.535   6.548  49.761  1.00  0.00    -0.245 NA
HETATM    3  C7  UNL     1      21.247   7.023  50.065  1.00  0.00     0.233 C 
HETATM    4  N2  UNL     1      20.393   6.242  50.633  1.00  0.00    -0.246 NA
HETATM    5  C8  UNL     1      20.815   4.914  50.937  1.00  0.00     0.050 C 
HETATM    6  C9  UNL     1      20.000   4.152  51.689  1.00  0.00     0.066 C 
HETATM    7  C10 UNL     1      20.362   2.783  52.040  1.00  0.00     0.086 C 
HETATM    8  C11 UNL     1      19.580   1.827  51.491  1.00  0.00     0.120 C 
HETATM    9  N3  UNL     1      19.985   1.169  50.263  1.00  0.00    -0.396 N 
HETATM   10  C12 UNL     1      21.162   0.768  49.472  1.00  0.00     0.133 C 
HETATM   11  C13 UNL     1      22.260   1.828  49.738  1.00  0.00     0.110 C 
HETATM   12  C14 UNL     1      22.801   1.596  51.127  1.00  0.00     0.158 C 
HETATM   13  O1  UNL     1      23.872   0.972  51.176  1.00  0.00    -0.295 OA
HETATM   14  C15 UNL     1      22.677   1.761  52.615  1.00  0.00     0.254 C 
HETATM   15  O2  UNL     1      21.456   2.483  52.895  1.00  0.00    -0.343 OA
HETATM   16  C16 UNL     1      21.800   3.206  49.468  1.00  0.00     0.251 C 
HETATM   17  C21 UNL     1      22.134   4.282  50.472  1.00  0.00     0.125 C 
HETATM   18  H9  UNL     1      19.121   0.867  49.747  1.00  0.00     0.158 HD
ENDROOT
BRANCH   1  19
HETATM   19  C5  UNL     1      24.391   5.272  49.534  1.00  0.00    -0.011 A 
HETATM   20  C4  UNL     1      25.054   6.318  48.904  1.00  0.00     0.014 A 
HETATM   21  C3  UNL     1      26.374   6.306  48.515  1.00  0.00     0.007 A 
HETATM   22  C2  UNL     1      27.106   5.175  48.763  1.00  0.00    -0.062 A 
HETATM   23  C1  UNL     1      28.531   5.147  48.349  1.00  0.00     0.048 C 
HETATM   24  C23 UNL     1      26.551   4.082  49.381  1.00  0.00     0.007 A 
HETATM   25  C22 UNL     1      25.227   4.194  49.730  1.00  0.00     0.014 A 
ENDBRANCH   1  19
BRANCH  16  26
HETATM   26  N4  UNL     1      21.746   3.664  48.118  1.00  0.00     0.099 N 
HETATM   27  C17 UNL     1      20.424   4.120  47.723  1.00  0.00     0.299 C 
HETATM   28  C18 UNL     1      20.046   3.548  46.392  1.00  0.00     0.198 C 
HETATM   29  O3  UNL     1      20.987   3.696  45.406  1.00  0.00    -0.388 OA
HETATM   30  C19 UNL     1      22.303   3.559  45.830  1.00  0.00     0.198 C 
HETATM   31  C20 UNL     1      22.216   2.735  47.128  1.00  0.00     0.299 C 
ENDBRANCH  16  26
TORSDOF 2
ENDMDL
MODEL 6
REMARK VINA RESULT:      -6.9      2.998      6.091
REMARK  2 active torsions:
REMARK  status: ('A' for Active; 'I' for Inactive)
REMARK    1  A    between atoms: C5_5  and  C6_6 
REMARK    2  A    between atoms: C16_21  and  N4_22 
ROOT
HETATM    1  C6  UNL     1      23.299   5.825  49.577  1.00  0.00     0.058 C 
HETATM    2  N1  UNL     1      23.118   6.887  50.281  1.00  0.00    -0.245 NA
HETATM    3  C7  UNL     1      21.914   7.357  50.833  1.00  0.00     0.233 C 
HETATM    4  N2  UNL     1      20.827   6.685  50.670  1.00  0.00    -0.246 NA
HETATM    5  C8  UNL     1      20.909   5.469  49.929  1.00  0.00     0.050 C 
HETATM    6  C9  UNL     1      19.826   4.672  49.907  1.00  0.00     0.066 C 
HETATM    7  C10 UNL     1      19.834   3.413  49.170  1.00  0.00     0.086 C 
HETATM    8  C11 UNL     1      19.006   3.372  48.102  1.00  0.00     0.120 C 
HETATM    9  N3  UNL     1      19.513   3.663  46.774  1.00  0.00    -0.396 N 
HETATM   10  C12 UNL     1      20.723   3.607  45.935  1.00  0.00     0.133 C 
HETATM   11  C13 UNL     1      21.931   3.824  46.879  1.00  0.00     0.110 C 
HETATM   12  C14 UNL     1      22.125   2.561  47.682  1.00  0.00     0.158 C 
HETATM   13  O1  UNL     1      23.020   1.808  47.268  1.00  0.00    -0.295 OA
HETATM   14  C15 UNL     1      21.738   1.681  48.837  1.00  0.00     0.254 C 
HETATM   15  O2  UNL     1      20.652   2.316  49.550  1.00  0.00    -0.343 OA
HETATM   16  C16 UNL     1      21.815   5.061  47.681  1.00  0.00     0.251 C 
HETATM   17  C21 UNL     1      22.145   4.995  49.152  1.00  0.00     0.125 C 
HETATM   18  H9  UNL     1      18.729   4.059  46.198  1.00  0.00     0.158 HD
ENDROOT
BRANCH   1  19
HETATM   19  C5  UNL     1      24.694   5.667  49.207  1.00  0.00    -0.011 A 
HETATM   20  C4  UNL     1      25.440   6.696  48.644  1.00  0.00     0.014 A 
HETATM   21  C3  UNL     1      26.774   6.624  48.315  1.00  0.00     0.007 A 
HETATM   22  C2  UNL     1      27.433   5.448  48.557  1.00  0.00    -0.062 A 
HETATM   23  C1  UNL     1      28.873   5.356  48.208  1.00  0.00     0.048 C 
HETATM   24  C23 UNL     1      26.793   4.367  49.111  1.00  0.00     0.007 A 
HETATM   25  C22 UNL     1      25.462   4.540  49.402  1.00  0.00     0.014 A 
ENDBRANCH   1  19
BRANCH  16  26
HETATM   26  N4  UNL     1      22.125   6.311  47.068  1.00  0.00     0.099 N 
HETATM   27  C17 UNL     1      20.954   7.138  46.833  1.00  0.00     0.299 C 
HETATM   28  C18 UNL     1      20.973   7.696  45.444  1.00  0.00     0.198 C 
HETATM   29  O3  UNL     1      22.147   8.303  45.077  1.00  0.00    -0.388 OA
HETATM   30  C19 UNL     1      23.297   7.686  45.554  1.00  0.00     0.198 C 
HETATM   31  C20 UNL     1      22.874   6.235  45.844  1.00  0.00     0.299 C 
ENDBRANCH  16  26
TORSDOF 2
ENDMDL
MODEL 7
REMARK VINA RESULT:      -6.5      7.036     10.001
REMARK  2 active torsions:
REMARK  status: ('A' for Active; 'I' for Inactive)
REMARK    1  A    between atoms: C5_5  and  C6_6 
REMARK    2  A    between atoms: C16_21  and  N4_22 
ROOT
HETATM    1  C6  UNL     1      13.464   0.333  53.455  1.00  0.00     0.058 C 
HETATM    2  N1  UNL     1      13.925  -0.836  53.183  1.00  0.00    -0.245 NA
HETATM    3  C7  UNL     1      15.017  -1.160  52.359  1.00  0.00     0.233 C 
HETATM    4  N2  UNL     1      15.692  -0.221  51.789  1.00  0.00    -0.246 NA
HETATM    5  C8  UNL     1      15.291   1.125  52.042  1.00  0.00     0.050 C 
HETATM    6  C9  UNL     1      16.093   2.112  51.604  1.00  0.00     0.066 C 
HETATM    7  C10 UNL     1      15.749   3.513  51.823  1.00  0.00     0.086 C 
HETATM    8  C11 UNL     1      15.464   4.212  50.702  1.00  0.00     0.120 C 
HETATM    9  N3  UNL     1      14.087   4.381  50.277  1.00  0.00    -0.396 N 
HETATM   10  C12 UNL     1      12.701   4.461  50.772  1.00  0.00     0.133 C 
HETATM   11  C13 UNL     1      12.624   3.561  52.030  1.00  0.00     0.110 C 
HETATM   12  C14 UNL     1      13.334   4.273  53.155  1.00  0.00     0.158 C 
HETATM   13  O1  UNL     1      12.590   4.865  53.953  1.00  0.00    -0.295 OA
HETATM   14  C15 UNL     1      14.608   4.657  53.853  1.00  0.00     0.254 C 
HETATM   15  O2  UNL     1      15.718   4.093  53.119  1.00  0.00    -0.343 OA
HETATM   16  C16 UNL     1      13.088   2.181  51.774  1.00  0.00     0.251 C 
HETATM   17  C21 UNL     1      14.010   1.537  52.780  1.00  0.00     0.125 C 
HETATM   18  H9  UNL     1      14.071   4.483  49.232  1.00  0.00     0.158 HD
ENDROOT
BRANCH   1  19
HETATM   19  C5  UNL     1      12.337   0.259  54.367  1.00  0.00    -0.011 A 
HETATM   20  C4  UNL     1      11.910   1.347  55.119  1.00  0.00     0.014 A 
HETATM   21  C3  UNL     1      10.823   1.355  55.963  1.00  0.00     0.007 A 
HETATM   22  C2  UNL     1      10.093   0.201  56.081  1.00  0.00    -0.062 A 
HETATM   23  C1  UNL     1       8.918   0.195  56.988  1.00  0.00     0.048 C 
HETATM   24  C23 UNL     1      10.426  -0.933  55.383  1.00  0.00     0.007 A 
HETATM   25  C22 UNL     1      11.527  -0.838  54.568  1.00  0.00     0.014 A 
ENDBRANCH   1  19
BRANCH  16  26
HETATM   26  N4  UNL     1      12.209   1.268  51.119  1.00  0.00     0.099 N 
HETATM   27  C17 UNL     1      12.506   1.103  49.706  1.00  0.00     0.299 C 
HETATM   28  C18 UNL     1      11.254   1.190  48.890  1.00  0.00     0.198 C 
HETATM   29  O3  UNL     1      10.221   0.398  49.322  1.00  0.00    -0.388 OA
HETATM   30  C19 UNL     1      10.101   0.298  50.703  1.00  0.00     0.198 C 
HETATM   31  C20 UNL     1      10.806   1.551  51.252  1.00  0.00     0.299 C 
ENDBRANCH  16  26
TORSDOF 2
ENDMDL
MODEL 8
REMARK VINA RESULT:      -6.5      7.103      9.026
REMARK  2 active torsions:
REMARK  status: ('A' for Active; 'I' for Inactive)
REMARK    1  A    between atoms: C5_5  and  C6_6 
REMARK    2  A    between atoms: C16_21  and  N4_22 
ROOT
HETATM    1  C6  UNL     1      13.766   0.169  50.774  1.00  0.00     0.058 C 
HETATM    2  N1  UNL     1      12.984  -0.612  50.114  1.00  0.00    -0.245 NA
HETATM    3  C7  UNL     1      11.886  -0.252  49.315  1.00  0.00     0.233 C 
HETATM    4  N2  UNL     1      11.579   0.991  49.167  1.00  0.00    -0.246 NA
HETATM    5  C8  UNL     1      12.396   1.955  49.828  1.00  0.00     0.050 C 
HETATM    6  C9  UNL     1      12.198   3.253  49.537  1.00  0.00     0.066 C 
HETATM    7  C10 UNL     1      12.994   4.296  50.174  1.00  0.00     0.086 C 
HETATM    8  C11 UNL     1      12.306   5.112  51.004  1.00  0.00     0.120 C 
HETATM    9  N3  UNL     1      12.281   4.850  52.431  1.00  0.00    -0.396 N 
HETATM   10  C12 UNL     1      13.054   4.254  53.535  1.00  0.00     0.133 C 
HETATM   11  C13 UNL     1      13.868   3.085  52.928  1.00  0.00     0.110 C 
HETATM   12  C14 UNL     1      14.998   3.676  52.120  1.00  0.00     0.158 C 
HETATM   13  O1  UNL     1      16.099   3.694  52.693  1.00  0.00    -0.295 OA
HETATM   14  C15 UNL     1      15.499   4.310  50.854  1.00  0.00     0.254 C 
HETATM   15  O2  UNL     1      14.388   4.440  49.938  1.00  0.00    -0.343 OA
HETATM   16  C16 UNL     1      13.021   2.116  52.201  1.00  0.00     0.251 C 
HETATM   17  C21 UNL     1      13.490   1.625  50.853  1.00  0.00     0.125 C 
HETATM   18  H9  UNL     1      11.379   5.222  52.821  1.00  0.00     0.158 HD
ENDROOT
BRANCH   1  19
HETATM   19  C5  UNL     1      14.802  -0.579  51.463  1.00  0.00    -0.011 A 
HETATM   20  C4  UNL     1      15.985   0.007  51.898  1.00  0.00     0.014 A 
HETATM   21  C3  UNL     1      16.983  -0.634  52.596  1.00  0.00     0.007 A 
HETATM   22  C2  UNL     1      16.808  -1.960  52.893  1.00  0.00    -0.062 A 
HETATM   23  C1  UNL     1      17.876  -2.665  53.645  1.00  0.00     0.048 C 
HETATM   24  C23 UNL     1      15.678  -2.639  52.511  1.00  0.00     0.007 A 
HETATM   25  C22 UNL     1      14.742  -1.910  51.819  1.00  0.00     0.014 A 
ENDBRANCH   1  19
BRANCH  16  26
HETATM   26  N4  UNL     1      12.277   1.154  52.946  1.00  0.00     0.099 N 
HETATM   27  C17 UNL     1      10.878   1.515  53.107  1.00  0.00     0.299 C 
HETATM   28  C18 UNL     1      10.448   1.334  54.529  1.00  0.00     0.198 C 
HETATM   29  O3  UNL     1      10.761   0.118  55.082  1.00  0.00    -0.388 OA
HETATM   30  C19 UNL     1      11.992  -0.398  54.697  1.00  0.00     0.198 C 
HETATM   31  C20 UNL     1      12.808   0.825  54.240  1.00  0.00     0.299 C 
ENDBRANCH  16  26
TORSDOF 2
ENDMDL
MODEL 9
REMARK VINA RESULT:      -6.3     24.089     27.079
REMARK  2 active torsions:
REMARK  status: ('A' for Active; 'I' for Inactive)
REMARK    1  A    between atoms: C5_5  and  C6_6 
REMARK    2  A    between atoms: C16_21  and  N4_22 
ROOT
HETATM    1  C6  UNL     1      40.594  -4.480  68.240  1.00  0.00     0.058 C 
HETATM    2  N1  UNL     1      40.198  -5.509  67.576  1.00  0.00    -0.245 NA
HETATM    3  C7  UNL     1      39.161  -5.573  66.630  1.00  0.00     0.233 C 
HETATM    4  N2  UNL     1      38.497  -4.509  66.331  1.00  0.00    -0.246 NA
HETATM    5  C8  UNL     1      38.868  -3.296  66.984  1.00  0.00     0.050 C 
HETATM    6  C9  UNL     1      38.309  -2.153  66.550  1.00  0.00     0.066 C 
HETATM    7  C10 UNL     1      38.637  -0.873  67.169  1.00  0.00     0.086 C 
HETATM    8  C11 UNL     1      37.619  -0.284  67.836  1.00  0.00     0.120 C 
HETATM    9  N3  UNL     1      37.486  -0.462  69.270  1.00  0.00    -0.396 N 
HETATM   10  C12 UNL     1      38.253  -0.710  70.504  1.00  0.00     0.133 C 
HETATM   11  C13 UNL     1      39.471  -1.579  70.105  1.00  0.00     0.110 C 
HETATM   12  C14 UNL     1      40.452  -0.696  69.374  1.00  0.00     0.158 C 
HETATM   13  O1  UNL     1      41.401  -0.286  70.060  1.00  0.00    -0.295 OA
HETATM   14  C15 UNL     1      40.890  -0.002  68.115  1.00  0.00     0.254 C 
HETATM   15  O2  UNL     1      39.930  -0.294  67.075  1.00  0.00    -0.343 OA
HETATM   16  C16 UNL     1      39.083  -2.810  69.384  1.00  0.00     0.251 C 
HETATM   17  C21 UNL     1      39.861  -3.193  68.149  1.00  0.00     0.125 C 
HETATM   18  H9  UNL     1      36.469  -0.386  69.521  1.00  0.00     0.158 HD
ENDROOT
BRANCH   1  19
HETATM   19  C5  UNL     1      41.712  -4.809  69.107  1.00  0.00    -0.011 A 
HETATM   20  C4  UNL     1      42.483  -3.837  69.734  1.00  0.00     0.014 A 
HETATM   21  C3  UNL     1      43.522  -4.083  70.602  1.00  0.00     0.007 A 
HETATM   22  C2  UNL     1      43.833  -5.388  70.879  1.00  0.00    -0.062 A 
HETATM   23  C1  UNL     1      44.952  -5.668  71.814  1.00  0.00     0.048 C 
HETATM   24  C23 UNL     1      43.136  -6.427  70.314  1.00  0.00     0.007 A 
HETATM   25  C22 UNL     1      42.118  -6.077  69.462  1.00  0.00     0.014 A 
ENDBRANCH   1  19
BRANCH  16  26
HETATM   26  N4  UNL     1      38.590  -3.921  70.131  1.00  0.00     0.099 N 
HETATM   27  C17 UNL     1      37.140  -4.017  70.123  1.00  0.00     0.299 C 
HETATM   28  C18 UNL     1      36.619  -4.255  71.506  1.00  0.00     0.198 C 
HETATM   29  O3  UNL     1      37.226  -5.279  72.188  1.00  0.00    -0.388 OA
HETATM   30  C19 UNL     1      38.593  -5.395  71.971  1.00  0.00     0.198 C 
HETATM   31  C20 UNL     1      39.037  -4.000  71.495  1.00  0.00     0.299 C 
ENDBRANCH  16  26
TORSDOF 2
ENDMDL
