MODEL 1
REMARK VINA RESULT:      -7.0      0.000      0.000
REMARK  4 active torsions:
REMARK  status: ('A' for Active; 'I' for Inactive)
REMARK    1  A    between atoms: C2_2  and  N1_3 
REMARK    2  A    between atoms: C18_21  and  C19_22 
REMARK    3  A    between atoms: C18_21  and  O1_25 
REMARK    4  A    between atoms: C19_22  and  N4_23 
ROOT
HETATM    1  N1  UNL     1      21.122   6.184  49.195  1.00  0.00     0.116 N 
HETATM    2  C3  UNL     1      20.860   5.084  48.256  1.00  0.00     0.276 C 
HETATM    3  C4  UNL     1      19.794   4.130  48.648  1.00  0.00     0.032 C 
HETATM    4  C5  UNL     1      19.713   2.774  47.970  1.00  0.00     0.027 C 
HETATM    5  C6  UNL     1      20.391   1.728  48.956  1.00  0.00     0.081 C 
HETATM    6  N2  UNL     1      19.781   1.869  50.202  1.00  0.00    -0.414 N 
HETATM    7  C7  UNL     1      20.134   1.719  51.497  1.00  0.00     0.141 C 
HETATM    8  C8  UNL     1      20.447   2.943  52.380  1.00  0.00    -0.011 C 
HETATM    9  C9  UNL     1      21.605   3.657  52.307  1.00  0.00    -0.013 C 
HETATM   10  C10 UNL     1      22.588   3.736  51.173  1.00  0.00     0.030 A 
HETATM   11  C11 UNL     1      22.213   3.050  50.035  1.00  0.00     0.052 A 
HETATM   12  C12 UNL     1      21.831   2.352  48.872  1.00  0.00    -0.023 A 
HETATM   13  C13 UNL     1      23.140   2.848  48.609  1.00  0.00    -0.005 A 
HETATM   14  C14 UNL     1      23.562   3.548  49.699  1.00  0.00     0.075 A 
HETATM   15  C15 UNL     1      23.774   4.191  50.890  1.00  0.00     0.002 A 
HETATM   16  N3  UNL     1      24.911   4.940  51.233  1.00  0.00    -0.385 N 
HETATM   17  C16 UNL     1      25.546   5.383  50.069  1.00  0.00     0.141 C 
HETATM   18  C17 UNL     1      26.153   4.438  49.120  1.00  0.00     0.038 C 
HETATM   19  C18 UNL     1      24.707   6.578  49.357  1.00  0.00     0.212 C 
HETATM   20  O2  UNL     1      23.430   6.250  49.564  1.00  0.00    -0.316 OA
HETATM   21  C22 UNL     1      22.360   6.844  48.952  1.00  0.00     0.357 C 
HETATM   22  C23 UNL     1      22.129   8.240  49.686  1.00  0.00     0.074 C 
HETATM   23  H13 UNL     1      18.770   2.132  50.065  1.00  0.00     0.153 HD
HETATM   24  H21 UNL     1      24.752   4.816  52.249  1.00  0.00     0.159 HD
ENDROOT
BRANCH  19  25
HETATM   25  C19 UNL     1      25.031   7.777  50.256  1.00  0.00     0.339 C 
BRANCH  25  26
HETATM   26  N4  UNL     1      26.411   7.809  50.753  1.00  0.00     0.084 N 
HETATM   27  C20 UNL     1      26.911   9.122  50.231  1.00  0.00     0.306 C 
HETATM   28  H28 UNL     1      26.374   8.097  51.805  1.00  0.00     0.315 HD
ENDBRANCH  25  26
ENDBRANCH  19  25
BRANCH  19  29
HETATM   29  O1  UNL     1      25.402   6.615  48.209  1.00  0.00    -0.357 OA
HETATM   30  C21 UNL     1      25.258   7.663  47.358  1.00  0.00     0.205 C 
ENDBRANCH  19  29
BRANCH   1  31
HETATM   31  C2  UNL     1      19.985   7.078  49.251  1.00  0.00     0.271 C 
HETATM   32  C1  UNL     1      19.337   7.419  47.954  1.00  0.00     0.037 C 
ENDBRANCH   1  31
TORSDOF 4
ENDMDL
MODEL 2
REMARK VINA RESULT:      -6.9      2.581      6.239
REMARK  4 active torsions:
REMARK  status: ('A' for Active; 'I' for Inactive)
REMARK    1  A    between atoms: C2_2  and  N1_3 
REMARK    2  A    between atoms: C18_21  and  C19_22 
REMARK    3  A    between atoms: C18_21  and  O1_25 
REMARK    4  A    between atoms: C19_22  and  N4_23 
ROOT
HETATM    1  N1  UNL     1      21.375   5.205  51.049  1.00  0.00     0.116 N 
HETATM    2  C3  UNL     1      21.909   4.779  52.349  1.00  0.00     0.276 C 
HETATM    3  C4  UNL     1      23.377   4.906  52.525  1.00  0.00     0.032 C 
HETATM    4  C5  UNL     1      24.067   4.148  53.645  1.00  0.00     0.027 C 
HETATM    5  C6  UNL     1      24.710   2.850  52.991  1.00  0.00     0.081 C 
HETATM    6  N2  UNL     1      25.489   3.265  51.911  1.00  0.00    -0.414 N 
HETATM    7  C7  UNL     1      25.863   2.766  50.714  1.00  0.00     0.141 C 
HETATM    8  C8  UNL     1      25.191   3.243  49.410  1.00  0.00    -0.011 C 
HETATM    9  C9  UNL     1      23.947   2.855  49.010  1.00  0.00    -0.013 C 
HETATM   10  C10 UNL     1      22.828   2.293  49.840  1.00  0.00     0.030 A 
HETATM   11  C11 UNL     1      23.083   2.244  51.197  1.00  0.00     0.052 A 
HETATM   12  C12 UNL     1      23.341   2.193  52.581  1.00  0.00    -0.023 A 
HETATM   13  C13 UNL     1      22.073   1.570  52.405  1.00  0.00    -0.005 A 
HETATM   14  C14 UNL     1      21.759   1.599  51.079  1.00  0.00     0.075 A 
HETATM   15  C15 UNL     1      21.658   1.737  49.720  1.00  0.00     0.002 A 
HETATM   16  N3  UNL     1      20.566   1.344  48.930  1.00  0.00    -0.385 N 
HETATM   17  C16 UNL     1      19.415   1.285  49.721  1.00  0.00     0.141 C 
HETATM   18  C17 UNL     1      19.287   0.311  50.816  1.00  0.00     0.038 C 
HETATM   19  C18 UNL     1      18.882   2.771  50.102  1.00  0.00     0.212 C 
HETATM   20  O2  UNL     1      19.997   3.487  50.263  1.00  0.00    -0.316 OA
HETATM   21  C22 UNL     1      20.050   4.741  50.808  1.00  0.00     0.357 C 
HETATM   22  C23 UNL     1      19.554   5.753  49.680  1.00  0.00     0.074 C 
HETATM   23  H13 UNL     1      25.907   4.207  52.128  1.00  0.00     0.153 HD
HETATM   24  H21 UNL     1      21.143   1.273  48.073  1.00  0.00     0.159 HD
ENDROOT
BRANCH  19  25
HETATM   25  C19 UNL     1      18.226   3.222  48.791  1.00  0.00     0.339 C 
BRANCH  25  26
HETATM   26  N4  UNL     1      17.462   2.176  48.104  1.00  0.00     0.084 N 
HETATM   27  C20 UNL     1      16.163   2.865  47.811  1.00  0.00     0.306 C 
HETATM   28  H28 UNL     1      17.817   2.134  47.072  1.00  0.00     0.315 HD
ENDBRANCH  25  26
ENDBRANCH  19  25
BRANCH  19  29
HETATM   29  O1  UNL     1      17.969   2.398  51.013  1.00  0.00    -0.357 OA
HETATM   30  C21 UNL     1      17.042   3.288  51.451  1.00  0.00     0.205 C 
ENDBRANCH  19  29
BRANCH   1  31
HETATM   31  C2  UNL     1      21.530   6.636  50.887  1.00  0.00     0.271 C 
HETATM   32  C1  UNL     1      22.687   7.095  50.069  1.00  0.00     0.037 C 
ENDBRANCH   1  31
TORSDOF 4
ENDMDL
MODEL 3
REMARK VINA RESULT:      -6.9      1.768      4.302
REMARK  4 active torsions:
REMARK  status: ('A' for Active; 'I' for Inactive)
REMARK    1  A    between atoms: C2_2  and  N1_3 
REMARK    2  A    between atoms: C18_21  and  C19_22 
REMARK    3  A    between atoms: C18_21  and  O1_25 
REMARK    4  A    between atoms: C19_22  and  N4_23 
ROOT
HETATM    1  N1  UNL     1      25.340   3.446  50.336  1.00  0.00     0.116 N 
HETATM    2  C3  UNL     1      24.482   3.352  51.525  1.00  0.00     0.276 C 
HETATM    3  C4  UNL     1      23.703   2.098  51.671  1.00  0.00     0.032 C 
HETATM    4  C5  UNL     1      22.519   2.056  52.620  1.00  0.00     0.027 C 
HETATM    5  C6  UNL     1      21.213   2.236  51.732  1.00  0.00     0.081 C 
HETATM    6  N2  UNL     1      21.264   1.284  50.714  1.00  0.00    -0.414 N 
HETATM    7  C7  UNL     1      20.839   1.181  49.436  1.00  0.00     0.141 C 
HETATM    8  C8  UNL     1      21.817   1.358  48.258  1.00  0.00    -0.011 C 
HETATM    9  C9  UNL     1      22.293   2.564  47.839  1.00  0.00    -0.013 C 
HETATM   10  C10 UNL     1      22.364   3.858  48.598  1.00  0.00     0.030 A 
HETATM   11  C11 UNL     1      21.960   3.778  49.917  1.00  0.00     0.052 A 
HETATM   12  C12 UNL     1      21.550   3.698  51.262  1.00  0.00    -0.023 A 
HETATM   13  C13 UNL     1      21.818   5.076  51.025  1.00  0.00    -0.005 A 
HETATM   14  C14 UNL     1      22.234   5.218  49.735  1.00  0.00     0.075 A 
HETATM   15  C15 UNL     1      22.619   5.122  48.424  1.00  0.00     0.002 A 
HETATM   16  N3  UNL     1      23.065   6.180  47.615  1.00  0.00    -0.385 N 
HETATM   17  C16 UNL     1      23.561   7.208  48.423  1.00  0.00     0.141 C 
HETATM   18  C17 UNL     1      22.684   7.953  49.339  1.00  0.00     0.038 C 
HETATM   19  C18 UNL     1      24.996   6.810  49.071  1.00  0.00     0.212 C 
HETATM   20  O2  UNL     1      24.894   5.502  49.315  1.00  0.00    -0.316 OA
HETATM   21  C22 UNL     1      25.778   4.774  50.065  1.00  0.00     0.357 C 
HETATM   22  C23 UNL     1      27.053   4.511  49.144  1.00  0.00     0.074 C 
HETATM   23  H13 UNL     1      21.738   0.415  51.075  1.00  0.00     0.153 HD
HETATM   24  H21 UNL     1      22.810   5.690  46.740  1.00  0.00     0.159 HD
ENDROOT
BRANCH  19  25
HETATM   25  C19 UNL     1      25.945   6.988  47.880  1.00  0.00     0.339 C 
BRANCH  25  26
HETATM   26  N4  UNL     1      25.608   8.109  46.996  1.00  0.00     0.084 N 
HETATM   27  C20 UNL     1      26.958   8.592  46.557  1.00  0.00     0.306 C 
HETATM   28  H28 UNL     1      25.305   7.689  46.035  1.00  0.00     0.315 HD
ENDBRANCH  25  26
ENDBRANCH  19  25
BRANCH  19  29
HETATM   29  O1  UNL     1      25.085   7.834  49.935  1.00  0.00    -0.357 OA
HETATM   30  C21 UNL     1      26.299   8.346  50.263  1.00  0.00     0.205 C 
ENDBRANCH  19  29
BRANCH   1  31
HETATM   31  C2  UNL     1      26.418   2.482  50.417  1.00  0.00     0.271 C 
HETATM   32  C1  UNL     1      26.899   2.129  51.781  1.00  0.00     0.037 C 
ENDBRANCH   1  31
TORSDOF 4
ENDMDL
MODEL 4
REMARK VINA RESULT:      -6.5      1.990      6.042
REMARK  4 active torsions:
REMARK  status: ('A' for Active; 'I' for Inactive)
REMARK    1  A    between atoms: C2_2  and  N1_3 
REMARK    2  A    between atoms: C18_21  and  C19_22 
REMARK    3  A    between atoms: C18_21  and  O1_25 
REMARK    4  A    between atoms: C19_22  and  N4_23 
ROOT
HETATM    1  N1  UNL     1      23.032   6.002  47.567  1.00  0.00     0.116 N 
HETATM    2  C3  UNL     1      22.918   7.392  48.028  1.00  0.00     0.276 C 
HETATM    3  C4  UNL     1      23.907   8.348  47.472  1.00  0.00     0.032 C 
HETATM    4  C5  UNL     1      24.127   9.684  48.158  1.00  0.00     0.027 C 
HETATM    5  C6  UNL     1      25.440   9.533  49.042  1.00  0.00     0.081 C 
HETATM    6  N2  UNL     1      26.453   9.054  48.212  1.00  0.00    -0.414 N 
HETATM    7  C7  UNL     1      27.551   8.280  48.340  1.00  0.00     0.141 C 
HETATM    8  C8  UNL     1      27.544   6.809  47.876  1.00  0.00    -0.011 C 
HETATM    9  C9  UNL     1      26.939   5.799  48.563  1.00  0.00    -0.013 C 
HETATM   10  C10 UNL     1      25.849   5.885  49.593  1.00  0.00     0.030 A 
HETATM   11  C11 UNL     1      25.352   7.157  49.802  1.00  0.00     0.052 A 
HETATM   12  C12 UNL     1      24.843   8.453  50.016  1.00  0.00    -0.023 A 
HETATM   13  C13 UNL     1      24.189   7.622  50.970  1.00  0.00    -0.005 A 
HETATM   14  C14 UNL     1      24.633   6.344  50.804  1.00  0.00     0.075 A 
HETATM   15  C15 UNL     1      25.217   5.153  50.463  1.00  0.00     0.002 A 
HETATM   16  N3  UNL     1      24.936   3.903  51.035  1.00  0.00    -0.385 N 
HETATM   17  C16 UNL     1      23.657   3.925  51.601  1.00  0.00     0.141 C 
HETATM   18  C17 UNL     1      23.341   4.794  52.745  1.00  0.00     0.038 C 
HETATM   19  C18 UNL     1      22.504   3.904  50.457  1.00  0.00     0.212 C 
HETATM   20  O2  UNL     1      23.014   4.635  49.465  1.00  0.00    -0.316 OA
HETATM   21  C22 UNL     1      22.310   5.082  48.379  1.00  0.00     0.357 C 
HETATM   22  C23 UNL     1      22.150   3.838  47.394  1.00  0.00     0.074 C 
HETATM   23  H13 UNL     1      26.316   9.440  47.241  1.00  0.00     0.153 HD
HETATM   24  H21 UNL     1      25.855   3.511  50.762  1.00  0.00     0.159 HD
ENDROOT
BRANCH  19  25
HETATM   25  C19 UNL     1      22.522   2.437  50.012  1.00  0.00     0.339 C 
BRANCH  25  26
HETATM   26  N4  UNL     1      22.644   1.470  51.109  1.00  0.00     0.084 N 
HETATM   27  C20 UNL     1      21.464   0.574  50.881  1.00  0.00     0.306 C 
HETATM   28  H28 UNL     1      23.409   0.745  50.824  1.00  0.00     0.315 HD
ENDBRANCH  25  26
ENDBRANCH  19  25
BRANCH  19  29
HETATM   29  O1  UNL     1      21.461   4.167  51.261  1.00  0.00    -0.357 OA
HETATM   30  C21 UNL     1      20.193   4.054  50.789  1.00  0.00     0.205 C 
ENDBRANCH  19  29
BRANCH   1  31
HETATM   31  C2  UNL     1      22.713   5.911  46.158  1.00  0.00     0.271 C 
HETATM   32  C1  UNL     1      21.544   6.705  45.685  1.00  0.00     0.037 C 
ENDBRANCH   1  31
TORSDOF 4
ENDMDL
MODEL 5
REMARK VINA RESULT:      -6.5      6.440      9.183
REMARK  4 active torsions:
REMARK  status: ('A' for Active; 'I' for Inactive)
REMARK    1  A    between atoms: C2_2  and  N1_3 
REMARK    2  A    between atoms: C18_21  and  C19_22 
REMARK    3  A    between atoms: C18_21  and  O1_25 
REMARK    4  A    between atoms: C19_22  and  N4_23 
ROOT
HETATM    1  N1  UNL     1      30.093   8.990  45.423  1.00  0.00     0.116 N 
HETATM    2  C3  UNL     1      28.849   8.211  45.368  1.00  0.00     0.276 C 
HETATM    3  C4  UNL     1      27.619   8.913  45.810  1.00  0.00     0.032 C 
HETATM    4  C5  UNL     1      26.381   8.108  46.162  1.00  0.00     0.027 C 
HETATM    5  C6  UNL     1      26.345   7.992  47.747  1.00  0.00     0.081 C 
HETATM    6  N2  UNL     1      26.450   9.283  48.264  1.00  0.00    -0.414 N 
HETATM    7  C7  UNL     1      26.956   9.864  49.373  1.00  0.00     0.141 C 
HETATM    8  C8  UNL     1      28.305  10.609  49.332  1.00  0.00    -0.011 C 
HETATM    9  C9  UNL     1      29.516   9.986  49.293  1.00  0.00    -0.013 C 
HETATM   10  C10 UNL     1      29.835   8.583  48.862  1.00  0.00     0.030 A 
HETATM   11  C11 UNL     1      28.759   7.871  48.369  1.00  0.00     0.052 A 
HETATM   12  C12 UNL     1      27.662   7.143  47.866  1.00  0.00    -0.023 A 
HETATM   13  C13 UNL     1      28.751   6.226  47.893  1.00  0.00    -0.005 A 
HETATM   14  C14 UNL     1      29.852   6.877  48.362  1.00  0.00     0.075 A 
HETATM   15  C15 UNL     1      30.812   7.723  48.852  1.00  0.00     0.002 A 
HETATM   16  N3  UNL     1      32.162   7.403  49.065  1.00  0.00    -0.385 N 
HETATM   17  C16 UNL     1      32.521   6.325  48.249  1.00  0.00     0.141 C 
HETATM   18  C17 UNL     1      31.923   4.994  48.432  1.00  0.00     0.038 C 
HETATM   19  C18 UNL     1      32.648   6.777  46.694  1.00  0.00     0.212 C 
HETATM   20  O2  UNL     1      31.683   7.686  46.538  1.00  0.00    -0.316 OA
HETATM   21  C22 UNL     1      31.263   8.183  45.334  1.00  0.00     0.357 C 
HETATM   22  C23 UNL     1      32.355   9.249  44.872  1.00  0.00     0.074 C 
HETATM   23  H13 UNL     1      25.972   9.958  47.611  1.00  0.00     0.153 HD
HETATM   24  H21 UNL     1      32.285   8.154  49.768  1.00  0.00     0.159 HD
ENDROOT
BRANCH  19  25
HETATM   25  C19 UNL     1      33.990   7.517  46.685  1.00  0.00     0.339 C 
BRANCH  25  26
HETATM   26  N4  UNL     1      35.041   6.881  47.487  1.00  0.00     0.084 N 
HETATM   27  C20 UNL     1      35.649   8.048  48.205  1.00  0.00     0.306 C 
HETATM   28  H28 UNL     1      34.561   6.432  48.359  1.00  0.00     0.315 HD
ENDBRANCH  25  26
ENDBRANCH  19  25
BRANCH  19  29
HETATM   29  O1  UNL     1      32.754   5.547  46.166  1.00  0.00    -0.357 OA
HETATM   30  C21 UNL     1      33.199   5.389  44.893  1.00  0.00     0.205 C 
ENDBRANCH  19  29
BRANCH   1  31
HETATM   31  C2  UNL     1      30.054  10.069  44.459  1.00  0.00     0.271 C 
HETATM   32  C1  UNL     1      29.773  11.432  44.991  1.00  0.00     0.037 C 
ENDBRANCH   1  31
TORSDOF 4
ENDMDL
MODEL 6
REMARK VINA RESULT:      -6.3      1.652      2.326
REMARK  4 active torsions:
REMARK  status: ('A' for Active; 'I' for Inactive)
REMARK    1  A    between atoms: C2_2  and  N1_3 
REMARK    2  A    between atoms: C18_21  and  C19_22 
REMARK    3  A    between atoms: C18_21  and  O1_25 
REMARK    4  A    between atoms: C19_22  and  N4_23 
ROOT
HETATM    1  N1  UNL     1      22.246   6.360  48.299  1.00  0.00     0.116 N 
HETATM    2  C3  UNL     1      22.446   4.967  47.879  1.00  0.00     0.276 C 
HETATM    3  C4  UNL     1      21.717   3.938  48.661  1.00  0.00     0.032 C 
HETATM    4  C5  UNL     1      22.147   2.484  48.572  1.00  0.00     0.027 C 
HETATM    5  C6  UNL     1      23.032   2.190  49.859  1.00  0.00     0.081 C 
HETATM    6  N2  UNL     1      22.295   2.583  50.976  1.00  0.00    -0.414 N 
HETATM    7  C7  UNL     1      22.553   3.069  52.208  1.00  0.00     0.141 C 
HETATM    8  C8  UNL     1      22.365   4.566  52.526  1.00  0.00    -0.011 C 
HETATM    9  C9  UNL     1      23.229   5.542  52.128  1.00  0.00    -0.013 C 
HETATM   10  C10 UNL     1      24.235   5.506  51.013  1.00  0.00     0.030 A 
HETATM   11  C11 UNL     1      24.213   4.354  50.252  1.00  0.00     0.052 A 
HETATM   12  C12 UNL     1      24.192   3.179  49.474  1.00  0.00    -0.023 A 
HETATM   13  C13 UNL     1      25.286   3.945  48.981  1.00  0.00    -0.005 A 
HETATM   14  C14 UNL     1      25.352   5.107  49.690  1.00  0.00     0.075 A 
HETATM   15  C15 UNL     1      25.229   6.188  50.523  1.00  0.00     0.002 A 
HETATM   16  N3  UNL     1      26.022   7.346  50.496  1.00  0.00    -0.385 N 
HETATM   17  C16 UNL     1      26.585   7.495  49.224  1.00  0.00     0.141 C 
HETATM   18  C17 UNL     1      27.554   6.523  48.696  1.00  0.00     0.038 C 
HETATM   19  C18 UNL     1      25.474   7.968  48.138  1.00  0.00     0.212 C 
HETATM   20  O2  UNL     1      24.361   7.335  48.512  1.00  0.00    -0.316 OA
HETATM   21  C22 UNL     1      23.218   7.252  47.763  1.00  0.00     0.357 C 
HETATM   22  C23 UNL     1      22.477   8.657  47.900  1.00  0.00     0.074 C 
HETATM   23  H13 UNL     1      21.271   2.416  50.790  1.00  0.00     0.153 HD
HETATM   24  H21 UNL     1      25.817   7.575  51.484  1.00  0.00     0.159 HD
ENDROOT
BRANCH  19  25
HETATM   25  C19 UNL     1      25.303   9.452  48.479  1.00  0.00     0.339 C 
BRANCH  25  26
HETATM   26  N4  UNL     1      26.548  10.140  48.839  1.00  0.00     0.084 N 
HETATM   27  C20 UNL     1      26.331  11.514  48.277  1.00  0.00     0.306 C 
HETATM   28  H28 UNL     1      26.475  10.422  49.891  1.00  0.00     0.315 HD
ENDBRANCH  25  26
ENDBRANCH  19  25
BRANCH  19  29
HETATM   29  O1  UNL     1      26.225   7.793  47.038  1.00  0.00    -0.357 OA
HETATM   30  C21 UNL     1      25.963   8.508  45.914  1.00  0.00     0.205 C 
ENDBRANCH  19  29
BRANCH   1  31
HETATM   31  C2  UNL     1      20.880   6.768  48.050  1.00  0.00     0.271 C 
HETATM   32  C1  UNL     1      19.962   6.787  49.223  1.00  0.00     0.037 C 
ENDBRANCH   1  31
TORSDOF 4
ENDMDL
MODEL 7
REMARK VINA RESULT:      -6.2      2.284      6.302
REMARK  4 active torsions:
REMARK  status: ('A' for Active; 'I' for Inactive)
REMARK    1  A    between atoms: C2_2  and  N1_3 
REMARK    2  A    between atoms: C18_21  and  C19_22 
REMARK    3  A    between atoms: C18_21  and  O1_25 
REMARK    4  A    between atoms: C19_22  and  N4_23 
ROOT
HETATM    1  N1  UNL     1      22.665   3.233  51.602  1.00  0.00     0.116 N 
HETATM    2  C3  UNL     1      23.643   2.945  50.543  1.00  0.00     0.276 C 
HETATM    3  C4  UNL     1      24.978   3.573  50.698  1.00  0.00     0.032 C 
HETATM    4  C5  UNL     1      25.907   3.665  49.502  1.00  0.00     0.027 C 
HETATM    5  C6  UNL     1      25.775   5.143  48.932  1.00  0.00     0.081 C 
HETATM    6  N2  UNL     1      25.991   6.023  49.992  1.00  0.00    -0.414 N 
HETATM    7  C7  UNL     1      25.575   7.256  50.352  1.00  0.00     0.141 C 
HETATM    8  C8  UNL     1      24.495   7.443  51.437  1.00  0.00    -0.011 C 
HETATM    9  C9  UNL     1      23.166   7.222  51.233  1.00  0.00    -0.013 C 
HETATM   10  C10 UNL     1      22.506   6.391  50.170  1.00  0.00     0.030 A 
HETATM   11  C11 UNL     1      23.379   5.706  49.347  1.00  0.00     0.052 A 
HETATM   12  C12 UNL     1      24.267   5.006  48.507  1.00  0.00    -0.023 A 
HETATM   13  C13 UNL     1      22.967   4.760  47.980  1.00  0.00    -0.005 A 
HETATM   14  C14 UNL     1      22.056   5.405  48.762  1.00  0.00     0.075 A 
HETATM   15  C15 UNL     1      21.333   6.128  49.672  1.00  0.00     0.002 A 
HETATM   16  N3  UNL     1      19.934   6.238  49.714  1.00  0.00    -0.385 N 
HETATM   17  C16 UNL     1      19.359   5.138  49.069  1.00  0.00     0.141 C 
HETATM   18  C17 UNL     1      19.544   4.914  47.627  1.00  0.00     0.038 C 
HETATM   19  C18 UNL     1      19.497   3.790  49.964  1.00  0.00     0.212 C 
HETATM   20  O2  UNL     1      20.686   3.910  50.557  1.00  0.00    -0.316 OA
HETATM   21  C22 UNL     1      21.329   2.909  51.233  1.00  0.00     0.357 C 
HETATM   22  C23 UNL     1      20.621   2.790  52.657  1.00  0.00     0.074 C 
HETATM   23  H13 UNL     1      26.691   5.600  50.655  1.00  0.00     0.153 HD
HETATM   24  H21 UNL     1      19.966   7.133  50.233  1.00  0.00     0.159 HD
ENDROOT
BRANCH  19  25
HETATM   25  C19 UNL     1      18.420   4.005  51.034  1.00  0.00     0.339 C 
BRANCH  25  26
HETATM   26  N4  UNL     1      17.219   4.699  50.557  1.00  0.00     0.084 N 
HETATM   27  C20 UNL     1      16.169   4.226  51.517  1.00  0.00     0.306 C 
HETATM   28  H28 UNL     1      17.267   5.728  50.921  1.00  0.00     0.315 HD
ENDBRANCH  25  26
ENDBRANCH  19  25
BRANCH  19  29
HETATM   29  O1  UNL     1      19.096   2.919  49.024  1.00  0.00    -0.357 OA
HETATM   30  C21 UNL     1      18.494   1.756  49.385  1.00  0.00     0.205 C 
ENDBRANCH  19  29
BRANCH   1  31
HETATM   31  C2  UNL     1      23.087   2.636  52.851  1.00  0.00     0.271 C 
HETATM   32  C1  UNL     1      23.625   1.248  52.782  1.00  0.00     0.037 C 
ENDBRANCH   1  31
TORSDOF 4
ENDMDL
MODEL 8
REMARK VINA RESULT:      -6.2      2.593      7.233
REMARK  4 active torsions:
REMARK  status: ('A' for Active; 'I' for Inactive)
REMARK    1  A    between atoms: C2_2  and  N1_3 
REMARK    2  A    between atoms: C18_21  and  C19_22 
REMARK    3  A    between atoms: C18_21  and  O1_25 
REMARK    4  A    between atoms: C19_22  and  N4_23 
ROOT
HETATM    1  N1  UNL     1      25.565   8.721  46.430  1.00  0.00     0.116 N 
HETATM    2  C3  UNL     1      25.992   9.789  47.345  1.00  0.00     0.276 C 
HETATM    3  C4  UNL     1      27.440  10.110  47.342  1.00  0.00     0.032 C 
HETATM    4  C5  UNL     1      28.037  10.895  48.497  1.00  0.00     0.027 C 
HETATM    5  C6  UNL     1      28.731   9.838  49.459  1.00  0.00     0.081 C 
HETATM    6  N2  UNL     1      29.595   9.067  48.682  1.00  0.00    -0.414 N 
HETATM    7  C7  UNL     1      30.066   7.801  48.689  1.00  0.00     0.141 C 
HETATM    8  C8  UNL     1      29.502   6.740  47.723  1.00  0.00    -0.011 C 
HETATM    9  C9  UNL     1      28.296   6.128  47.885  1.00  0.00    -0.013 C 
HETATM   10  C10 UNL     1      27.113   6.587  48.689  1.00  0.00     0.030 A 
HETATM   11  C11 UNL     1      27.256   7.833  49.269  1.00  0.00     0.052 A 
HETATM   12  C12 UNL     1      27.401   9.103  49.861  1.00  0.00    -0.023 A 
HETATM   13  C13 UNL     1      26.151   8.603  50.327  1.00  0.00    -0.005 A 
HETATM   14  C14 UNL     1      25.947   7.374  49.776  1.00  0.00     0.075 A 
HETATM   15  C15 UNL     1      25.956   6.172  49.118  1.00  0.00     0.002 A 
HETATM   16  N3  UNL     1      24.933   5.212  49.139  1.00  0.00    -0.385 N 
HETATM   17  C16 UNL     1      23.721   5.829  49.464  1.00  0.00     0.141 C 
HETATM   18  C17 UNL     1      23.504   6.446  50.782  1.00  0.00     0.038 C 
HETATM   19  C18 UNL     1      23.159   6.717  48.226  1.00  0.00     0.212 C 
HETATM   20  O2  UNL     1      24.256   7.228  47.665  1.00  0.00    -0.316 OA
HETATM   21  C22 UNL     1      24.265   8.220  46.723  1.00  0.00     0.357 C 
HETATM   22  C23 UNL     1      23.862   7.541  45.337  1.00  0.00     0.074 C 
HETATM   23  H13 UNL     1      29.995   9.665  47.912  1.00  0.00     0.153 HD
HETATM   24  H21 UNL     1      25.577   4.441  48.890  1.00  0.00     0.159 HD
ENDROOT
BRANCH  19  25
HETATM   25  C19 UNL     1      22.612   5.640  47.282  1.00  0.00     0.339 C 
BRANCH  25  26
HETATM   26  N4  UNL     1      21.894   4.551  47.953  1.00  0.00     0.084 N 
HETATM   27  C20 UNL     1      21.903   3.470  46.914  1.00  0.00     0.306 C 
HETATM   28  H28 UNL     1      22.595   4.070  48.639  1.00  0.00     0.315 HD
ENDBRANCH  25  26
ENDBRANCH  19  25
BRANCH  19  29
HETATM   29  O1  UNL     1      22.174   7.339  48.894  1.00  0.00    -0.357 OA
HETATM   30  C21 UNL     1      21.159   7.932  48.215  1.00  0.00     0.205 C 
ENDBRANCH  19  29
BRANCH   1  31
HETATM   31  C2  UNL     1      25.732   9.141  45.055  1.00  0.00     0.271 C 
HETATM   32  C1  UNL     1      26.910   8.593  44.326  1.00  0.00     0.037 C 
ENDBRANCH   1  31
TORSDOF 4
ENDMDL
MODEL 9
REMARK VINA RESULT:      -6.2      6.969     10.644
REMARK  4 active torsions:
REMARK  status: ('A' for Active; 'I' for Inactive)
REMARK    1  A    between atoms: C2_2  and  N1_3 
REMARK    2  A    between atoms: C18_21  and  C19_22 
REMARK    3  A    between atoms: C18_21  and  O1_25 
REMARK    4  A    between atoms: C19_22  and  N4_23 
ROOT
HETATM    1  N1  UNL     1      30.307   6.585  48.089  1.00  0.00     0.116 N 
HETATM    2  C3  UNL     1      30.231   7.781  48.939  1.00  0.00     0.276 C 
HETATM    3  C4  UNL     1      28.946   8.521  48.912  1.00  0.00     0.032 C 
HETATM    4  C5  UNL     1      28.891   9.948  49.426  1.00  0.00     0.027 C 
HETATM    5  C6  UNL     1      28.948  10.897  48.152  1.00  0.00     0.081 C 
HETATM    6  N2  UNL     1      27.946  10.483  47.275  1.00  0.00    -0.414 N 
HETATM    7  C7  UNL     1      27.748  10.463  45.939  1.00  0.00     0.141 C 
HETATM    8  C8  UNL     1      27.913   9.159  45.133  1.00  0.00    -0.011 C 
HETATM    9  C9  UNL     1      29.119   8.614  44.808  1.00  0.00    -0.013 C 
HETATM   10  C10 UNL     1      30.456   8.840  45.455  1.00  0.00     0.030 A 
HETATM   11  C11 UNL     1      30.426   9.650  46.573  1.00  0.00     0.052 A 
HETATM   12  C12 UNL     1      30.398  10.476  47.715  1.00  0.00    -0.023 A 
HETATM   13  C13 UNL     1      31.774  10.192  47.480  1.00  0.00    -0.005 A 
HETATM   14  C14 UNL     1      31.867   9.382  46.389  1.00  0.00     0.075 A 
HETATM   15  C15 UNL     1      31.720   8.586  45.284  1.00  0.00     0.002 A 
HETATM   16  N3  UNL     1      32.755   7.937  44.591  1.00  0.00    -0.385 N 
HETATM   17  C16 UNL     1      33.852   7.768  45.442  1.00  0.00     0.141 C 
HETATM   18  C17 UNL     1      34.597   8.922  45.969  1.00  0.00     0.038 C 
HETATM   19  C18 UNL     1      33.571   6.611  46.547  1.00  0.00     0.212 C 
HETATM   20  O2  UNL     1      32.275   6.742  46.836  1.00  0.00    -0.316 OA
HETATM   21  C22 UNL     1      31.640   6.129  47.882  1.00  0.00     0.357 C 
HETATM   22  C23 UNL     1      31.398   4.614  47.445  1.00  0.00     0.074 C 
HETATM   23  H13 UNL     1      27.126  10.123  47.831  1.00  0.00     0.153 HD
HETATM   24  H21 UNL     1      32.203   7.874  43.718  1.00  0.00     0.159 HD
ENDROOT
BRANCH  19  25
HETATM   25  C19 UNL     1      33.735   5.331  45.719  1.00  0.00     0.339 C 
BRANCH  25  26
HETATM   26  N4  UNL     1      34.906   5.326  44.835  1.00  0.00     0.084 N 
HETATM   27  C20 UNL     1      34.342   4.781  43.557  1.00  0.00     0.306 C 
HETATM   28  H28 UNL     1      35.054   6.348  44.481  1.00  0.00     0.315 HD
ENDBRANCH  25  26
ENDBRANCH  19  25
BRANCH  19  29
HETATM   29  O1  UNL     1      34.645   6.846  47.318  1.00  0.00    -0.357 OA
HETATM   30  C21 UNL     1      34.986   5.968  48.296  1.00  0.00     0.205 C 
ENDBRANCH  19  29
BRANCH   1  31
HETATM   31  C2  UNL     1      29.411   5.560  48.583  1.00  0.00     0.271 C 
HETATM   32  C1  UNL     1      27.972   5.698  48.220  1.00  0.00     0.037 C 
ENDBRANCH   1  31
TORSDOF 4
ENDMDL
