MODEL 1
REMARK VINA RESULT:      -9.3      0.000      0.000
REMARK  3 active torsions:
REMARK  status: ('A' for Active; 'I' for Inactive)
REMARK    1  A    between atoms: C5_5  and  C6_6 
REMARK    2  A    between atoms: C6_6  and  N1_7 
REMARK    3  A    between atoms: N1_7  and  C7_8 
ROOT
HETATM    1  C1  UNL     1      29.646  -1.275  53.636  1.00  0.00     0.049 C 
HETATM    2  C2  UNL     1      28.303  -0.818  53.215  1.00  0.00    -0.044 A 
HETATM    3  C3  UNL     1      27.312  -1.517  52.702  1.00  0.00    -0.014 A 
HETATM    4  C4  UNL     1      26.112  -0.711  52.404  1.00  0.00     0.065 A 
HETATM    5  C5  UNL     1      26.548   0.666  52.832  1.00  0.00    -0.038 A 
HETATM    6  C19 UNL     1      27.774   0.528  53.274  1.00  0.00     0.054 A 
HETATM    7  C20 UNL     1      28.509   1.629  53.801  1.00  0.00     0.100 C 
HETATM    8  N4  UNL     1      29.103   2.514  54.247  1.00  0.00    -0.191 NA
ENDROOT
BRANCH   5   9
HETATM    9  C6  UNL     1      25.481   1.604  52.586  1.00  0.00     0.157 C 
BRANCH   9  10
HETATM   10  N1  UNL     1      24.188   1.013  52.200  1.00  0.00    -0.370 N 
HETATM   11  H9  UNL     1      24.099  -0.045  52.403  1.00  0.00     0.161 HD
BRANCH  10  12
HETATM   12  C7  UNL     1      23.014   1.653  51.608  1.00  0.00     0.136 C 
HETATM   13  N2  UNL     1      23.776   2.136  50.740  1.00  0.00    -0.225 NA
HETATM   14  C8  UNL     1      23.776   2.928  49.638  1.00  0.00     0.229 C 
HETATM   15  N3  UNL     1      22.893   2.387  48.968  1.00  0.00    -0.280 NA
HETATM   16  C9  UNL     1      22.289   2.611  47.695  1.00  0.00     0.181 C 
HETATM   17  C10 UNL     1      20.781   2.961  47.933  1.00  0.00     0.140 C 
HETATM   18  C11 UNL     1      20.094   3.566  46.825  1.00  0.00     0.041 C 
HETATM   19  O1  UNL     1      20.174   1.855  48.554  1.00  0.00    -0.360 OA
HETATM   20  C12 UNL     1      20.297   2.075  49.883  1.00  0.00     0.338 C 
HETATM   21  O2  UNL     1      19.818   1.182  50.805  1.00  0.00    -0.362 OA
HETATM   22  C13 UNL     1      20.263   1.702  52.071  1.00  0.00     0.215 C 
HETATM   23  C14 UNL     1      21.711   1.416  52.291  1.00  0.00     0.043 C 
HETATM   24  C15 UNL     1      21.786   0.673  53.433  1.00  0.00     0.082 C 
HETATM   25  C16 UNL     1      20.746   0.244  54.357  1.00  0.00     0.232 C 
HETATM   26  O4  UNL     1      22.915   0.099  54.057  1.00  0.00    -0.350 OA
HETATM   27  O3  UNL     1      20.385  -1.046  53.973  1.00  0.00    -0.383 OA
HETATM   28  C17 UNL     1      21.457  -1.852  54.343  1.00  0.00     0.194 C 
HETATM   29  C18 UNL     1      22.702  -1.131  54.713  1.00  0.00     0.201 C 
ENDBRANCH  10  12
ENDBRANCH   9  10
ENDBRANCH   5   9
TORSDOF 3
ENDMDL
MODEL 2
REMARK VINA RESULT:      -8.9      2.061      4.763
REMARK  3 active torsions:
REMARK  status: ('A' for Active; 'I' for Inactive)
REMARK    1  A    between atoms: C5_5  and  C6_6 
REMARK    2  A    between atoms: C6_6  and  N1_7 
REMARK    3  A    between atoms: N1_7  and  C7_8 
ROOT
HETATM    1  C1  UNL     1      30.204  -0.498  53.594  1.00  0.00     0.049 C 
HETATM    2  C2  UNL     1      29.120   0.508  53.634  1.00  0.00    -0.044 A 
HETATM    3  C3  UNL     1      29.195   1.798  53.885  1.00  0.00    -0.014 A 
HETATM    4  C4  UNL     1      27.890   2.487  53.835  1.00  0.00     0.065 A 
HETATM    5  C5  UNL     1      26.954   1.355  53.501  1.00  0.00    -0.038 A 
HETATM    6  C19 UNL     1      27.708   0.288  53.402  1.00  0.00     0.054 A 
HETATM    7  C20 UNL     1      27.166  -0.984  53.059  1.00  0.00     0.100 C 
HETATM    8  N4  UNL     1      26.735  -2.014  52.762  1.00  0.00    -0.191 NA
ENDROOT
BRANCH   5   9
HETATM    9  C6  UNL     1      25.603   1.856  53.432  1.00  0.00     0.157 C 
BRANCH   9  10
HETATM   10  N1  UNL     1      24.968   1.798  52.104  1.00  0.00    -0.370 N 
HETATM   11  H9  UNL     1      25.585   2.161  51.294  1.00  0.00     0.161 HD
BRANCH  10  12
HETATM   12  C7  UNL     1      23.643   1.305  51.730  1.00  0.00     0.136 C 
HETATM   13  N2  UNL     1      23.756   0.455  52.641  1.00  0.00    -0.225 NA
HETATM   14  C8  UNL     1      23.097  -0.577  53.228  1.00  0.00     0.229 C 
HETATM   15  N3  UNL     1      22.010  -0.045  53.472  1.00  0.00    -0.280 NA
HETATM   16  C9  UNL     1      20.781  -0.452  54.069  1.00  0.00     0.181 C 
HETATM   17  C10 UNL     1      19.666  -0.380  52.971  1.00  0.00     0.140 C 
HETATM   18  C11 UNL     1      18.447  -1.083  53.267  1.00  0.00     0.041 C 
HETATM   19  O1  UNL     1      19.563   0.957  52.547  1.00  0.00    -0.360 OA
HETATM   20  C12 UNL     1      20.413   1.070  51.501  1.00  0.00     0.338 C 
HETATM   21  O2  UNL     1      20.580   2.256  50.837  1.00  0.00    -0.362 OA
HETATM   22  C13 UNL     1      21.647   1.999  49.906  1.00  0.00     0.215 C 
HETATM   23  C14 UNL     1      22.972   1.999  50.594  1.00  0.00     0.043 C 
HETATM   24  C15 UNL     1      23.712   2.977  49.998  1.00  0.00     0.082 C 
HETATM   25  C16 UNL     1      23.402   3.855  48.879  1.00  0.00     0.232 C 
HETATM   26  O4  UNL     1      25.017   3.426  50.301  1.00  0.00    -0.350 OA
HETATM   27  O3  UNL     1      22.936   5.047  49.429  1.00  0.00    -0.383 OA
HETATM   28  C17 UNL     1      24.057   5.660  49.979  1.00  0.00     0.194 C 
HETATM   29  C18 UNL     1      25.262   4.800  50.099  1.00  0.00     0.201 C 
ENDBRANCH  10  12
ENDBRANCH   9  10
ENDBRANCH   5   9
TORSDOF 3
ENDMDL
MODEL 3
REMARK VINA RESULT:      -8.6      2.643      6.757
REMARK  3 active torsions:
REMARK  status: ('A' for Active; 'I' for Inactive)
REMARK    1  A    between atoms: C5_5  and  C6_6 
REMARK    2  A    between atoms: C6_6  and  N1_7 
REMARK    3  A    between atoms: N1_7  and  C7_8 
ROOT
HETATM    1  C1  UNL     1      21.537   7.435  49.491  1.00  0.00     0.049 C 
HETATM    2  C2  UNL     1      21.748   6.266  50.372  1.00  0.00    -0.044 A 
HETATM    3  C3  UNL     1      20.867   5.400  50.828  1.00  0.00    -0.014 A 
HETATM    4  C4  UNL     1      21.454   4.356  51.690  1.00  0.00     0.065 A 
HETATM    5  C5  UNL     1      22.911   4.740  51.696  1.00  0.00    -0.038 A 
HETATM    6  C19 UNL     1      22.998   5.809  50.941  1.00  0.00     0.054 A 
HETATM    7  C20 UNL     1      24.248   6.443  50.683  1.00  0.00     0.100 C 
HETATM    8  N4  UNL     1      25.260   6.951  50.455  1.00  0.00    -0.191 NA
ENDROOT
BRANCH   5   9
HETATM    9  C6  UNL     1      23.646   3.818  52.526  1.00  0.00     0.157 C 
BRANCH   9  10
HETATM   10  N1  UNL     1      23.683   2.424  52.052  1.00  0.00    -0.370 N 
HETATM   11  H9  UNL     1      22.860   2.146  51.408  1.00  0.00     0.161 HD
BRANCH  10  12
HETATM   12  C7  UNL     1      24.677   1.383  52.310  1.00  0.00     0.136 C 
HETATM   13  N2  UNL     1      25.547   2.176  51.886  1.00  0.00    -0.225 NA
HETATM   14  C8  UNL     1      26.882   2.279  51.660  1.00  0.00     0.229 C 
HETATM   15  N3  UNL     1      27.327   1.932  52.758  1.00  0.00    -0.280 NA
HETATM   16  C9  UNL     1      28.621   1.767  53.334  1.00  0.00     0.181 C 
HETATM   17  C10 UNL     1      28.807   0.250  53.673  1.00  0.00     0.140 C 
HETATM   18  C11 UNL     1      30.157  -0.177  53.923  1.00  0.00     0.041 C 
HETATM   19  O1  UNL     1      27.824  -0.105  54.615  1.00  0.00    -0.360 OA
HETATM   20  C12 UNL     1      26.768  -0.535  53.888  1.00  0.00     0.338 C 
HETATM   21  O2  UNL     1      25.610  -0.957  54.487  1.00  0.00    -0.362 OA
HETATM   22  C13 UNL     1      24.705  -1.190  53.392  1.00  0.00     0.215 C 
HETATM   23  C14 UNL     1      24.164   0.095  52.858  1.00  0.00     0.043 C 
HETATM   24  C15 UNL     1      22.809   0.027  52.995  1.00  0.00     0.082 C 
HETATM   25  C16 UNL     1      21.957  -1.048  53.485  1.00  0.00     0.232 C 
HETATM   26  O4  UNL     1      21.826   0.995  52.693  1.00  0.00    -0.350 OA
HETATM   27  O3  UNL     1      21.715  -0.777  54.830  1.00  0.00    -0.383 OA
HETATM   28  C17 UNL     1      20.847   0.311  54.835  1.00  0.00     0.194 C 
HETATM   29  C18 UNL     1      20.696   1.014  53.535  1.00  0.00     0.201 C 
ENDBRANCH  10  12
ENDBRANCH   9  10
ENDBRANCH   5   9
TORSDOF 3
ENDMDL
MODEL 4
REMARK VINA RESULT:      -8.5      3.172      5.557
REMARK  3 active torsions:
REMARK  status: ('A' for Active; 'I' for Inactive)
REMARK    1  A    between atoms: C5_5  and  C6_6 
REMARK    2  A    between atoms: C6_6  and  N1_7 
REMARK    3  A    between atoms: N1_7  and  C7_8 
ROOT
HETATM    1  C1  UNL     1      27.216   8.427  48.432  1.00  0.00     0.049 C 
HETATM    2  C2  UNL     1      27.322   6.964  48.622  1.00  0.00    -0.044 A 
HETATM    3  C3  UNL     1      28.253   6.137  48.193  1.00  0.00    -0.014 A 
HETATM    4  C4  UNL     1      28.020   4.733  48.583  1.00  0.00     0.065 A 
HETATM    5  C5  UNL     1      26.730   4.832  49.354  1.00  0.00    -0.038 A 
HETATM    6  C19 UNL     1      26.404   6.102  49.336  1.00  0.00     0.054 A 
HETATM    7  C20 UNL     1      25.243   6.587  50.003  1.00  0.00     0.100 C 
HETATM    8  N4  UNL     1      24.313   6.989  50.559  1.00  0.00    -0.191 NA
ENDROOT
BRANCH   5   9
HETATM    9  C6  UNL     1      26.337   3.519  49.800  1.00  0.00     0.157 C 
BRANCH   9  10
HETATM   10  N1  UNL     1      25.782   3.448  51.163  1.00  0.00    -0.370 N 
HETATM   11  H9  UNL     1      26.377   3.944  51.917  1.00  0.00     0.161 HD
BRANCH  10  12
HETATM   12  C7  UNL     1      24.543   2.827  51.630  1.00  0.00     0.136 C 
HETATM   13  N2  UNL     1      23.944   3.460  50.732  1.00  0.00    -0.225 NA
HETATM   14  C8  UNL     1      22.708   3.663  50.208  1.00  0.00     0.229 C 
HETATM   15  N3  UNL     1      22.345   2.498  50.022  1.00  0.00    -0.280 NA
HETATM   16  C9  UNL     1      21.177   1.858  49.511  1.00  0.00     0.181 C 
HETATM   17  C10 UNL     1      20.536   1.028  50.674  1.00  0.00     0.140 C 
HETATM   18  C11 UNL     1      19.177   0.606  50.470  1.00  0.00     0.041 C 
HETATM   19  O1  UNL     1      21.469   0.055  51.076  1.00  0.00    -0.360 OA
HETATM   20  C12 UNL     1      22.190   0.633  52.064  1.00  0.00     0.338 C 
HETATM   21  O2  UNL     1      23.209  -0.033  52.692  1.00  0.00    -0.362 OA
HETATM   22  C13 UNL     1      23.800   0.952  53.559  1.00  0.00     0.215 C 
HETATM   23  C14 UNL     1      24.660   1.900  52.791  1.00  0.00     0.043 C 
HETATM   24  C15 UNL     1      25.913   1.793  53.318  1.00  0.00     0.082 C 
HETATM   25  C16 UNL     1      26.409   1.003  54.437  1.00  0.00     0.232 C 
HETATM   26  O4  UNL     1      27.110   2.432  52.925  1.00  0.00    -0.350 OA
HETATM   27  O3  UNL     1      26.933  -0.167  53.891  1.00  0.00    -0.383 OA
HETATM   28  C17 UNL     1      28.111   0.217  53.259  1.00  0.00     0.194 C 
HETATM   29  C18 UNL     1      28.293   1.681  53.083  1.00  0.00     0.201 C 
ENDBRANCH  10  12
ENDBRANCH   9  10
ENDBRANCH   5   9
TORSDOF 3
ENDMDL
MODEL 5
REMARK VINA RESULT:      -8.4      2.365      3.612
REMARK  3 active torsions:
REMARK  status: ('A' for Active; 'I' for Inactive)
REMARK    1  A    between atoms: C5_5  and  C6_6 
REMARK    2  A    between atoms: C6_6  and  N1_7 
REMARK    3  A    between atoms: N1_7  and  C7_8 
ROOT
HETATM    1  C1  UNL     1      29.715  -1.090  53.720  1.00  0.00     0.049 C 
HETATM    2  C2  UNL     1      28.407  -0.444  53.962  1.00  0.00    -0.044 A 
HETATM    3  C3  UNL     1      28.122   0.597  54.717  1.00  0.00    -0.014 A 
HETATM    4  C4  UNL     1      26.691   0.958  54.711  1.00  0.00     0.065 A 
HETATM    5  C5  UNL     1      26.111  -0.083  53.790  1.00  0.00    -0.038 A 
HETATM    6  C19 UNL     1      27.123  -0.825  53.411  1.00  0.00     0.054 A 
HETATM    7  C20 UNL     1      26.960  -1.905  52.497  1.00  0.00     0.100 C 
HETATM    8  N4  UNL     1      26.837  -2.770  51.741  1.00  0.00    -0.191 NA
ENDROOT
BRANCH   5   9
HETATM    9  C6  UNL     1      24.686   0.111  53.685  1.00  0.00     0.157 C 
BRANCH   9  10
HETATM   10  N1  UNL     1      24.214   0.702  52.420  1.00  0.00    -0.370 N 
HETATM   11  H9  UNL     1      23.763  -0.003  51.736  1.00  0.00     0.161 HD
BRANCH  10  12
HETATM   12  C7  UNL     1      24.252   2.095  51.975  1.00  0.00     0.136 C 
HETATM   13  N2  UNL     1      25.489   1.964  51.831  1.00  0.00    -0.225 NA
HETATM   14  C8  UNL     1      26.599   2.646  51.451  1.00  0.00     0.229 C 
HETATM   15  N3  UNL     1      26.233   3.087  50.358  1.00  0.00    -0.280 NA
HETATM   16  C9  UNL     1      26.807   3.899  49.335  1.00  0.00     0.181 C 
HETATM   17  C10 UNL     1      25.978   5.224  49.250  1.00  0.00     0.140 C 
HETATM   18  C11 UNL     1      26.601   6.310  48.544  1.00  0.00     0.041 C 
HETATM   19  O1  UNL     1      24.658   4.886  48.897  1.00  0.00    -0.360 OA
HETATM   20  C12 UNL     1      24.006   4.710  50.069  1.00  0.00     0.338 C 
HETATM   21  O2  UNL     1      22.682   4.359  50.107  1.00  0.00    -0.362 OA
HETATM   22  C13 UNL     1      22.411   4.137  51.502  1.00  0.00     0.215 C 
HETATM   23  C14 UNL     1      22.951   2.821  51.954  1.00  0.00     0.043 C 
HETATM   24  C15 UNL     1      21.885   2.107  52.416  1.00  0.00     0.082 C 
HETATM   25  C16 UNL     1      20.482   2.473  52.548  1.00  0.00     0.232 C 
HETATM   26  O4  UNL     1      21.836   0.785  52.909  1.00  0.00    -0.350 OA
HETATM   27  O3  UNL     1      19.842   2.000  51.404  1.00  0.00    -0.383 OA
HETATM   28  C17 UNL     1      19.798   0.617  51.554  1.00  0.00     0.194 C 
HETATM   29  C18 UNL     1      20.656   0.064  52.634  1.00  0.00     0.201 C 
ENDBRANCH  10  12
ENDBRANCH   9  10
ENDBRANCH   5   9
TORSDOF 3
ENDMDL
MODEL 6
REMARK VINA RESULT:      -8.3      2.144      6.820
REMARK  3 active torsions:
REMARK  status: ('A' for Active; 'I' for Inactive)
REMARK    1  A    between atoms: C5_5  and  C6_6 
REMARK    2  A    between atoms: C6_6  and  N1_7 
REMARK    3  A    between atoms: N1_7  and  C7_8 
ROOT
HETATM    1  C1  UNL     1      20.690   4.794  47.578  1.00  0.00     0.049 C 
HETATM    2  C2  UNL     1      21.744   4.208  48.435  1.00  0.00    -0.044 A 
HETATM    3  C3  UNL     1      22.466   3.124  48.238  1.00  0.00    -0.014 A 
HETATM    4  C4  UNL     1      23.429   2.851  49.322  1.00  0.00     0.065 A 
HETATM    5  C5  UNL     1      23.168   3.995  50.267  1.00  0.00    -0.038 A 
HETATM    6  C19 UNL     1      22.221   4.708  49.707  1.00  0.00     0.054 A 
HETATM    7  C20 UNL     1      21.731   5.905  50.304  1.00  0.00     0.100 C 
HETATM    8  N4  UNL     1      21.344   6.886  50.775  1.00  0.00    -0.191 NA
ENDROOT
BRANCH   5   9
HETATM    9  C6  UNL     1      24.027   3.871  51.418  1.00  0.00     0.157 C 
BRANCH   9  10
HETATM   10  N1  UNL     1      23.870   2.634  52.201  1.00  0.00    -0.370 N 
HETATM   11  H9  UNL     1      22.916   2.536  52.699  1.00  0.00     0.161 HD
BRANCH  10  12
HETATM   12  C7  UNL     1      24.805   1.524  52.381  1.00  0.00     0.136 C 
HETATM   13  N2  UNL     1      25.722   2.306  52.044  1.00  0.00    -0.225 NA
HETATM   14  C8  UNL     1      27.065   2.359  51.850  1.00  0.00     0.229 C 
HETATM   15  N3  UNL     1      27.469   1.894  52.919  1.00  0.00    -0.280 NA
HETATM   16  C9  UNL     1      28.742   1.612  53.498  1.00  0.00     0.181 C 
HETATM   17  C10 UNL     1      28.844   0.063  53.703  1.00  0.00     0.140 C 
HETATM   18  C11 UNL     1      30.166  -0.453  53.935  1.00  0.00     0.041 C 
HETATM   19  O1  UNL     1      27.826  -0.323  54.594  1.00  0.00    -0.360 OA
HETATM   20  C12 UNL     1      26.764  -0.631  53.815  1.00  0.00     0.338 C 
HETATM   21  O2  UNL     1      25.575  -1.044  54.354  1.00  0.00    -0.362 OA
HETATM   22  C13 UNL     1      24.682  -1.132  53.229  1.00  0.00     0.215 C 
HETATM   23  C14 UNL     1      24.217   0.221  52.804  1.00  0.00     0.043 C 
HETATM   24  C15 UNL     1      22.858   0.210  52.913  1.00  0.00     0.082 C 
HETATM   25  C16 UNL     1      21.943  -0.857  53.291  1.00  0.00     0.232 C 
HETATM   26  O4  UNL     1      21.931   1.252  52.683  1.00  0.00    -0.350 OA
HETATM   27  O3  UNL     1      21.688  -0.694  54.651  1.00  0.00    -0.383 OA
HETATM   28  C17 UNL     1      20.875   0.431  54.739  1.00  0.00     0.194 C 
HETATM   29  C18 UNL     1      20.786   1.254  53.505  1.00  0.00     0.201 C 
ENDBRANCH  10  12
ENDBRANCH   9  10
ENDBRANCH   5   9
TORSDOF 3
ENDMDL
MODEL 7
REMARK VINA RESULT:      -8.3      2.474      5.694
REMARK  3 active torsions:
REMARK  status: ('A' for Active; 'I' for Inactive)
REMARK    1  A    between atoms: C5_5  and  C6_6 
REMARK    2  A    between atoms: C6_6  and  N1_7 
REMARK    3  A    between atoms: N1_7  and  C7_8 
ROOT
HETATM    1  C1  UNL     1      25.754   6.619  48.427  1.00  0.00     0.049 C 
HETATM    2  C2  UNL     1      25.522   5.273  48.994  1.00  0.00    -0.044 A 
HETATM    3  C3  UNL     1      26.401   4.370  49.377  1.00  0.00    -0.014 A 
HETATM    4  C4  UNL     1      25.790   3.132  49.898  1.00  0.00     0.065 A 
HETATM    5  C5  UNL     1      24.319   3.431  49.763  1.00  0.00    -0.038 A 
HETATM    6  C19 UNL     1      24.247   4.637  49.256  1.00  0.00     0.054 A 
HETATM    7  C20 UNL     1      22.997   5.276  49.016  1.00  0.00     0.100 C 
HETATM    8  N4  UNL     1      21.986   5.807  48.838  1.00  0.00    -0.191 NA
ENDROOT
BRANCH   5   9
HETATM    9  C6  UNL     1      23.557   2.294  50.216  1.00  0.00     0.157 C 
BRANCH   9  10
HETATM   10  N1  UNL     1      23.711   1.949  51.640  1.00  0.00    -0.370 N 
HETATM   11  H9  UNL     1      24.644   2.271  52.082  1.00  0.00     0.161 HD
BRANCH  10  12
HETATM   12  C7  UNL     1      22.782   1.259  52.534  1.00  0.00     0.136 C 
HETATM   13  N2  UNL     1      21.850   1.843  51.936  1.00  0.00    -0.225 NA
HETATM   14  C8  UNL     1      20.498   1.962  51.922  1.00  0.00     0.229 C 
HETATM   15  N3  UNL     1      20.164   0.775  51.874  1.00  0.00    -0.280 NA
HETATM   16  C9  UNL     1      18.932   0.058  51.837  1.00  0.00     0.181 C 
HETATM   17  C10 UNL     1      18.831  -0.794  53.146  1.00  0.00     0.140 C 
HETATM   18  C11 UNL     1      17.525  -1.302  53.467  1.00  0.00     0.041 C 
HETATM   19  O1  UNL     1      19.905  -1.703  53.154  1.00  0.00    -0.360 OA
HETATM   20  C12 UNL     1      20.908  -1.070  53.802  1.00  0.00     0.338 C 
HETATM   21  O2  UNL     1      22.129  -1.663  53.989  1.00  0.00    -0.362 OA
HETATM   22  C13 UNL     1      22.942  -0.633  54.580  1.00  0.00     0.215 C 
HETATM   23  C14 UNL     1      23.387   0.356  53.553  1.00  0.00     0.043 C 
HETATM   24  C15 UNL     1      24.750   0.333  53.566  1.00  0.00     0.082 C 
HETATM   25  C16 UNL     1      25.681  -0.411  54.404  1.00  0.00     0.232 C 
HETATM   26  O4  UNL     1      25.668   1.039  52.756  1.00  0.00    -0.350 OA
HETATM   27  O3  UNL     1      26.030  -1.553  53.688  1.00  0.00    -0.383 OA
HETATM   28  C17 UNL     1      26.855  -1.106  52.661  1.00  0.00     0.194 C 
HETATM   29  C18 UNL     1      26.866   0.364  52.446  1.00  0.00     0.201 C 
ENDBRANCH  10  12
ENDBRANCH   9  10
ENDBRANCH   5   9
TORSDOF 3
ENDMDL
MODEL 8
REMARK VINA RESULT:      -8.0      2.861      6.431
REMARK  3 active torsions:
REMARK  status: ('A' for Active; 'I' for Inactive)
REMARK    1  A    between atoms: C5_5  and  C6_6 
REMARK    2  A    between atoms: C6_6  and  N1_7 
REMARK    3  A    between atoms: N1_7  and  C7_8 
ROOT
HETATM    1  C1  UNL     1      26.787   8.422  48.645  1.00  0.00     0.049 C 
HETATM    2  C2  UNL     1      26.813   6.956  48.836  1.00  0.00    -0.044 A 
HETATM    3  C3  UNL     1      27.649   6.068  48.338  1.00  0.00    -0.014 A 
HETATM    4  C4  UNL     1      27.359   4.683  48.756  1.00  0.00     0.065 A 
HETATM    5  C5  UNL     1      26.146   4.869  49.630  1.00  0.00    -0.038 A 
HETATM    6  C19 UNL     1      25.903   6.157  49.629  1.00  0.00     0.054 A 
HETATM    7  C20 UNL     1      24.835   6.718  50.387  1.00  0.00     0.100 C 
HETATM    8  N4  UNL     1      23.982   7.181  51.014  1.00  0.00    -0.191 NA
ENDROOT
BRANCH   5   9
HETATM    9  C6  UNL     1      25.706   3.585  50.117  1.00  0.00     0.157 C 
BRANCH   9  10
HETATM   10  N1  UNL     1      24.247   3.412  50.230  1.00  0.00    -0.370 N 
HETATM   11  H9  UNL     1      23.675   4.321  50.105  1.00  0.00     0.161 HD
BRANCH  10  12
HETATM   12  C7  UNL     1      23.472   2.194  50.465  1.00  0.00     0.136 C 
HETATM   13  N2  UNL     1      24.249   1.942  51.414  1.00  0.00    -0.225 NA
HETATM   14  C8  UNL     1      24.489   1.023  52.384  1.00  0.00     0.229 C 
HETATM   15  N3  UNL     1      23.373   0.941  52.903  1.00  0.00    -0.280 NA
HETATM   16  C9  UNL     1      22.792   0.198  53.973  1.00  0.00     0.181 C 
HETATM   17  C10 UNL     1      21.699  -0.745  53.366  1.00  0.00     0.140 C 
HETATM   18  C11 UNL     1      21.256  -1.819  54.213  1.00  0.00     0.041 C 
HETATM   19  O1  UNL     1      20.716   0.062  52.766  1.00  0.00    -0.360 OA
HETATM   20  C12 UNL     1      21.110   0.213  51.481  1.00  0.00     0.338 C 
HETATM   21  O2  UNL     1      20.383   0.960  50.591  1.00  0.00    -0.362 OA
HETATM   22  C13 UNL     1      21.192   0.987  49.401  1.00  0.00     0.215 C 
HETATM   23  C14 UNL     1      22.328   1.946  49.544  1.00  0.00     0.043 C 
HETATM   24  C15 UNL     1      22.180   2.865  48.547  1.00  0.00     0.082 C 
HETATM   25  C16 UNL     1      21.199   2.955  47.475  1.00  0.00     0.232 C 
HETATM   26  O4  UNL     1      22.954   4.013  48.263  1.00  0.00    -0.350 OA
HETATM   27  O3  UNL     1      20.203   3.819  47.924  1.00  0.00    -0.383 OA
HETATM   28  C17 UNL     1      20.778   5.086  47.901  1.00  0.00     0.194 C 
HETATM   29  C18 UNL     1      22.253   5.114  47.731  1.00  0.00     0.201 C 
ENDBRANCH  10  12
ENDBRANCH   9  10
ENDBRANCH   5   9
TORSDOF 3
ENDMDL
MODEL 9
REMARK VINA RESULT:      -7.9      2.710      7.466
REMARK  3 active torsions:
REMARK  status: ('A' for Active; 'I' for Inactive)
REMARK    1  A    between atoms: C5_5  and  C6_6 
REMARK    2  A    between atoms: C6_6  and  N1_7 
REMARK    3  A    between atoms: N1_7  and  C7_8 
ROOT
HETATM    1  C1  UNL     1      16.540  -0.090  49.839  1.00  0.00     0.049 C 
HETATM    2  C2  UNL     1      17.429  -0.276  51.006  1.00  0.00    -0.044 A 
HETATM    3  C3  UNL     1      17.175  -0.864  52.157  1.00  0.00    -0.014 A 
HETATM    4  C4  UNL     1      18.319  -0.857  53.089  1.00  0.00     0.065 A 
HETATM    5  C5  UNL     1      19.369  -0.131  52.289  1.00  0.00    -0.038 A 
HETATM    6  C19 UNL     1      18.803   0.159  51.143  1.00  0.00     0.054 A 
HETATM    7  C20 UNL     1      19.513   0.826  50.103  1.00  0.00     0.100 C 
HETATM    8  N4  UNL     1      20.090   1.350  49.250  1.00  0.00    -0.191 NA
ENDROOT
BRANCH   5   9
HETATM    9  C6  UNL     1      20.573  -0.014  53.073  1.00  0.00     0.157 C 
BRANCH   9  10
HETATM   10  N1  UNL     1      21.345   1.226  52.876  1.00  0.00    -0.370 N 
HETATM   11  H9  UNL     1      20.759   2.072  52.546  1.00  0.00     0.161 HD
BRANCH  10  12
HETATM   12  C7  UNL     1      22.771   1.474  53.082  1.00  0.00     0.136 C 
HETATM   13  N2  UNL     1      22.863   0.301  53.510  1.00  0.00    -0.225 NA
HETATM   14  C8  UNL     1      23.760  -0.589  54.006  1.00  0.00     0.229 C 
HETATM   15  N3  UNL     1      24.637  -0.535  53.139  1.00  0.00    -0.280 NA
HETATM   16  C9  UNL     1      25.903  -1.156  52.923  1.00  0.00     0.181 C 
HETATM   17  C10 UNL     1      27.001  -0.041  52.970  1.00  0.00     0.140 C 
HETATM   18  C11 UNL     1      28.354  -0.499  53.132  1.00  0.00     0.041 C 
HETATM   19  O1  UNL     1      26.738   0.868  51.930  1.00  0.00    -0.360 OA
HETATM   20  C12 UNL     1      25.941   1.816  52.473  1.00  0.00     0.338 C 
HETATM   21  O2  UNL     1      25.475   2.871  51.733  1.00  0.00    -0.362 OA
HETATM   22  C13 UNL     1      24.570   3.556  52.617  1.00  0.00     0.215 C 
HETATM   23  C14 UNL     1      23.269   2.832  52.723  1.00  0.00     0.043 C 
HETATM   24  C15 UNL     1      22.309   3.704  52.300  1.00  0.00     0.082 C 
HETATM   25  C16 UNL     1      22.408   5.092  51.874  1.00  0.00     0.232 C 
HETATM   26  O4  UNL     1      20.918   3.506  52.154  1.00  0.00    -0.350 OA
HETATM   27  O3  UNL     1      22.490   5.073  50.483  1.00  0.00    -0.383 OA
HETATM   28  C17 UNL     1      21.216   4.723  50.046  1.00  0.00     0.194 C 
HETATM   29  C18 UNL     1      20.302   4.201  51.094  1.00  0.00     0.201 C 
ENDBRANCH  10  12
ENDBRANCH   9  10
ENDBRANCH   5   9
TORSDOF 3
ENDMDL
