MODEL 1
REMARK VINA RESULT:      -8.2      0.000      0.000
REMARK  6 active torsions:
REMARK  status: ('A' for Active; 'I' for Inactive)
REMARK    1  A    between atoms: C2_2  and  O1_3 
REMARK    2  A    between atoms: O1_3  and  C3_4 
REMARK    3  A    between atoms: C3_4  and  O2_6 
REMARK    4  A    between atoms: O2_6  and  C5_7 
REMARK    5  A    between atoms: C10_14  and  N3_15 
REMARK    6  A    between atoms: N3_15  and  C11_16 
ROOT
HETATM    1  C11 UNL     1      22.993   2.290  51.174  1.00  0.00     0.034 A 
HETATM    2  C12 UNL     1      22.423   3.440  51.722  1.00  0.00     0.032 A 
HETATM    3  C13 UNL     1      23.017   4.707  51.667  1.00  0.00     0.046 A 
HETATM    4  C14 UNL     1      24.251   4.751  51.011  1.00  0.00     0.137 A 
HETATM    5  F1  UNL     1      24.888   5.964  50.922  1.00  0.00    -0.204 F 
HETATM    6  C15 UNL     1      24.849   3.662  50.461  1.00  0.00     0.085 A 
HETATM    7  C16 UNL     1      26.114   3.809  49.809  1.00  0.00     0.102 C 
HETATM    8  N4  UNL     1      27.143   3.932  49.296  1.00  0.00    -0.191 NA
HETATM    9  C17 UNL     1      24.214   2.436  50.547  1.00  0.00     0.055 A 
ENDROOT
BRANCH   1  10
HETATM   10  N3  UNL     1      22.300   1.037  51.284  1.00  0.00    -0.359 N 
HETATM   11  H13 UNL     1      21.859   0.692  50.382  1.00  0.00     0.166 HD
BRANCH  10  12
HETATM   12  C10 UNL     1      22.312   0.463  52.570  1.00  0.00     0.022 C 
HETATM   13  C9  UNL     1      20.977   0.463  53.100  1.00  0.00     0.045 C 
HETATM   14  C8  UNL     1      20.439   0.054  54.225  1.00  0.00     0.120 C 
HETATM   15  N2  UNL     1      21.542  -0.468  54.947  1.00  0.00    -0.254 NA
HETATM   16  C7  UNL     1      22.003  -1.645  54.583  1.00  0.00     0.233 C 
HETATM   17  N1  UNL     1      23.032  -1.646  55.592  1.00  0.00    -0.237 NA
HETATM   18  C6  UNL     1      24.118  -1.070  55.316  1.00  0.00     0.119 C 
HETATM   19  C5  UNL     1      24.290  -0.579  54.131  1.00  0.00     0.092 C 
HETATM   20  C18 UNL     1      23.181  -0.055  53.393  1.00  0.00     0.111 C 
BRANCH  19  21
HETATM   21  O2  UNL     1      25.570  -0.937  54.427  1.00  0.00    -0.322 OA
BRANCH  21  22
HETATM   22  C3  UNL     1      26.707  -0.212  53.961  1.00  0.00     0.261 C 
HETATM   23  C4  UNL     1      26.824  -0.210  52.464  1.00  0.00     0.071 C 
BRANCH  22  24
HETATM   24  O1  UNL     1      27.863  -0.641  54.596  1.00  0.00    -0.362 OA
BRANCH  24  25
HETATM   25  C2  UNL     1      29.019  -0.050  54.115  1.00  0.00     0.166 C 
HETATM   26  C1  UNL     1      29.981  -1.162  53.712  1.00  0.00     0.033 C 
ENDBRANCH  24  25
ENDBRANCH  22  24
ENDBRANCH  21  22
ENDBRANCH  19  21
ENDBRANCH  10  12
ENDBRANCH   1  10
TORSDOF 6
ENDMDL
MODEL 2
REMARK VINA RESULT:      -7.9      1.344      1.922
REMARK  6 active torsions:
REMARK  status: ('A' for Active; 'I' for Inactive)
REMARK    1  A    between atoms: C2_2  and  O1_3 
REMARK    2  A    between atoms: O1_3  and  C3_4 
REMARK    3  A    between atoms: C3_4  and  O2_6 
REMARK    4  A    between atoms: O2_6  and  C5_7 
REMARK    5  A    between atoms: C10_14  and  N3_15 
REMARK    6  A    between atoms: N3_15  and  C11_16 
ROOT
HETATM    1  C11 UNL     1      23.015   2.250  51.076  1.00  0.00     0.034 A 
HETATM    2  C12 UNL     1      24.403   2.335  50.948  1.00  0.00     0.032 A 
HETATM    3  C13 UNL     1      25.104   3.541  50.837  1.00  0.00     0.046 A 
HETATM    4  C14 UNL     1      24.308   4.690  50.862  1.00  0.00     0.137 A 
HETATM    5  F1  UNL     1      24.933   5.908  50.756  1.00  0.00    -0.204 F 
HETATM    6  C15 UNL     1      22.955   4.664  50.985  1.00  0.00     0.085 A 
HETATM    7  C16 UNL     1      22.227   5.896  51.001  1.00  0.00     0.102 C 
HETATM    8  N4  UNL     1      21.642   6.894  51.000  1.00  0.00    -0.191 NA
HETATM    9  C17 UNL     1      22.317   3.441  51.091  1.00  0.00     0.055 A 
ENDROOT
BRANCH   1  10
HETATM   10  N3  UNL     1      22.393   0.961  51.185  1.00  0.00    -0.359 N 
HETATM   11  H13 UNL     1      22.022   0.568  50.271  1.00  0.00     0.166 HD
BRANCH  10  12
HETATM   12  C10 UNL     1      22.370   0.422  52.486  1.00  0.00     0.022 C 
HETATM   13  C9  UNL     1      21.019   0.417  52.972  1.00  0.00     0.045 C 
HETATM   14  C8  UNL     1      20.449   0.030  54.089  1.00  0.00     0.120 C 
HETATM   15  N2  UNL     1      21.535  -0.458  54.860  1.00  0.00    -0.254 NA
HETATM   16  C7  UNL     1      22.022  -1.637  54.542  1.00  0.00     0.233 C 
HETATM   17  N1  UNL     1      23.018  -1.598  55.584  1.00  0.00    -0.237 NA
HETATM   18  C6  UNL     1      24.105  -1.015  55.328  1.00  0.00     0.119 C 
HETATM   19  C5  UNL     1      24.310  -0.552  54.136  1.00  0.00     0.092 C 
HETATM   20  C18 UNL     1      23.218  -0.064  53.349  1.00  0.00     0.111 C 
BRANCH  19  21
HETATM   21  O2  UNL     1      25.583  -0.885  54.483  1.00  0.00    -0.322 OA
BRANCH  21  22
HETATM   22  C3  UNL     1      26.563   0.080  54.860  1.00  0.00     0.261 C 
HETATM   23  C4  UNL     1      26.467   1.351  54.065  1.00  0.00     0.071 C 
BRANCH  22  24
HETATM   24  O1  UNL     1      27.835  -0.473  54.847  1.00  0.00    -0.362 OA
BRANCH  24  25
HETATM   25  C2  UNL     1      28.497  -0.331  53.639  1.00  0.00     0.166 C 
HETATM   26  C1  UNL     1      29.294  -1.605  53.389  1.00  0.00     0.033 C 
ENDBRANCH  24  25
ENDBRANCH  22  24
ENDBRANCH  21  22
ENDBRANCH  19  21
ENDBRANCH  10  12
ENDBRANCH   1  10
TORSDOF 6
ENDMDL
MODEL 3
REMARK VINA RESULT:      -7.9      3.063      5.613
REMARK  6 active torsions:
REMARK  status: ('A' for Active; 'I' for Inactive)
REMARK    1  A    between atoms: C2_2  and  O1_3 
REMARK    2  A    between atoms: O1_3  and  C3_4 
REMARK    3  A    between atoms: C3_4  and  O2_6 
REMARK    4  A    between atoms: O2_6  and  C5_7 
REMARK    5  A    between atoms: C10_14  and  N3_15 
REMARK    6  A    between atoms: N3_15  and  C11_16 
ROOT
HETATM    1  C11 UNL     1      25.595  -0.459  53.909  1.00  0.00     0.034 A 
HETATM    2  C12 UNL     1      26.101  -1.442  53.057  1.00  0.00     0.032 A 
HETATM    3  C13 UNL     1      27.451  -1.544  52.699  1.00  0.00     0.046 A 
HETATM    4  C14 UNL     1      28.286  -0.575  53.263  1.00  0.00     0.137 A 
HETATM    5  F1  UNL     1      29.623  -0.618  52.953  1.00  0.00    -0.204 F 
HETATM    6  C15 UNL     1      27.845   0.402  54.098  1.00  0.00     0.085 A 
HETATM    7  C16 UNL     1      28.779   1.350  54.626  1.00  0.00     0.102 C 
HETATM    8  N4  UNL     1      29.535   2.121  55.038  1.00  0.00    -0.191 NA
HETATM    9  C17 UNL     1      26.499   0.454  54.415  1.00  0.00     0.055 A 
ENDROOT
BRANCH   1  10
HETATM   10  N3  UNL     1      24.192  -0.442  54.214  1.00  0.00    -0.359 N 
HETATM   11  H13 UNL     1      23.925  -0.954  55.105  1.00  0.00     0.166 HD
BRANCH  10  12
HETATM   12  C10 UNL     1      23.392   0.249  53.283  1.00  0.00     0.022 C 
HETATM   13  C9  UNL     1      22.076  -0.327  53.274  1.00  0.00     0.045 C 
HETATM   14  C8  UNL     1      20.970  -0.072  52.615  1.00  0.00     0.120 C 
HETATM   15  N2  UNL     1      21.324   1.025  51.789  1.00  0.00    -0.254 NA
HETATM   16  C7  UNL     1      21.417   2.207  52.359  1.00  0.00     0.233 C 
HETATM   17  N1  UNL     1      21.776   2.864  51.127  1.00  0.00    -0.237 NA
HETATM   18  C6  UNL     1      22.993   2.862  50.800  1.00  0.00     0.119 C 
HETATM   19  C5  UNL     1      23.864   2.347  51.608  1.00  0.00     0.092 C 
HETATM   20  C18 UNL     1      23.513   1.243  52.449  1.00  0.00     0.111 C 
BRANCH  19  21
HETATM   21  O2  UNL     1      24.619   3.327  51.038  1.00  0.00    -0.322 OA
BRANCH  21  22
HETATM   22  C3  UNL     1      25.846   3.066  50.359  1.00  0.00     0.261 C 
HETATM   23  C4  UNL     1      26.750   2.141  51.121  1.00  0.00     0.071 C 
BRANCH  22  24
HETATM   24  O1  UNL     1      26.467   4.249  49.986  1.00  0.00    -0.362 OA
BRANCH  24  25
HETATM   25  C2  UNL     1      25.696   5.052  49.162  1.00  0.00     0.166 C 
HETATM   26  C1  UNL     1      26.587   6.165  48.626  1.00  0.00     0.033 C 
ENDBRANCH  24  25
ENDBRANCH  22  24
ENDBRANCH  21  22
ENDBRANCH  19  21
ENDBRANCH  10  12
ENDBRANCH   1  10
TORSDOF 6
ENDMDL
MODEL 4
REMARK VINA RESULT:      -7.6      3.647      6.487
REMARK  6 active torsions:
REMARK  status: ('A' for Active; 'I' for Inactive)
REMARK    1  A    between atoms: C2_2  and  O1_3 
REMARK    2  A    between atoms: O1_3  and  C3_4 
REMARK    3  A    between atoms: C3_4  and  O2_6 
REMARK    4  A    between atoms: O2_6  and  C5_7 
REMARK    5  A    between atoms: C10_14  and  N3_15 
REMARK    6  A    between atoms: N3_15  and  C11_16 
ROOT
HETATM    1  C11 UNL     1      26.711   1.754  53.530  1.00  0.00     0.034 A 
HETATM    2  C12 UNL     1      27.939   2.382  53.743  1.00  0.00     0.032 A 
HETATM    3  C13 UNL     1      29.170   1.716  53.720  1.00  0.00     0.046 A 
HETATM    4  C14 UNL     1      29.093   0.344  53.463  1.00  0.00     0.137 A 
HETATM    5  F1  UNL     1      30.266  -0.370  53.426  1.00  0.00    -0.204 F 
HETATM    6  C15 UNL     1      27.925  -0.316  53.248  1.00  0.00     0.085 A 
HETATM    7  C16 UNL     1      27.950  -1.724  52.992  1.00  0.00     0.102 C 
HETATM    8  N4  UNL     1      27.974  -2.863  52.799  1.00  0.00    -0.191 NA
HETATM    9  C17 UNL     1      26.739   0.396  53.284  1.00  0.00     0.055 A 
ENDROOT
BRANCH   1  10
HETATM   10  N3  UNL     1      25.503   2.529  53.575  1.00  0.00    -0.359 N 
HETATM   11  H13 UNL     1      25.417   3.171  54.417  1.00  0.00     0.166 HD
BRANCH  10  12
HETATM   12  C10 UNL     1      24.622   2.317  52.497  1.00  0.00     0.022 C 
HETATM   13  C9  UNL     1      23.661   1.314  52.863  1.00  0.00     0.045 C 
HETATM   14  C8  UNL     1      22.643   0.756  52.252  1.00  0.00     0.120 C 
HETATM   15  N2  UNL     1      22.632   1.390  50.983  1.00  0.00    -0.254 NA
HETATM   16  C7  UNL     1      22.167   2.619  50.924  1.00  0.00     0.233 C 
HETATM   17  N1  UNL     1      22.391   2.723  49.504  1.00  0.00    -0.237 NA
HETATM   18  C6  UNL     1      23.539   3.076  49.120  1.00  0.00     0.119 C 
HETATM   19  C5  UNL     1      24.429   3.401  50.002  1.00  0.00     0.092 C 
HETATM   20  C18 UNL     1      24.443   2.769  51.287  1.00  0.00     0.111 C 
BRANCH  19  21
HETATM   21  O2  UNL     1      24.795   4.225  48.982  1.00  0.00    -0.322 OA
BRANCH  21  22
HETATM   22  C3  UNL     1      25.828   5.201  49.105  1.00  0.00     0.261 C 
HETATM   23  C4  UNL     1      27.200   4.628  48.895  1.00  0.00     0.071 C 
BRANCH  22  24
HETATM   24  O1  UNL     1      25.708   5.902  50.296  1.00  0.00    -0.362 OA
BRANCH  24  25
HETATM   25  C2  UNL     1      25.294   7.214  50.135  1.00  0.00     0.166 C 
HETATM   26  C1  UNL     1      24.009   7.401  50.932  1.00  0.00     0.033 C 
ENDBRANCH  24  25
ENDBRANCH  22  24
ENDBRANCH  21  22
ENDBRANCH  19  21
ENDBRANCH  10  12
ENDBRANCH   1  10
TORSDOF 6
ENDMDL
MODEL 5
REMARK VINA RESULT:      -7.6      3.154      5.998
REMARK  6 active torsions:
REMARK  status: ('A' for Active; 'I' for Inactive)
REMARK    1  A    between atoms: C2_2  and  O1_3 
REMARK    2  A    between atoms: O1_3  and  C3_4 
REMARK    3  A    between atoms: C3_4  and  O2_6 
REMARK    4  A    between atoms: O2_6  and  C5_7 
REMARK    5  A    between atoms: C10_14  and  N3_15 
REMARK    6  A    between atoms: N3_15  and  C11_16 
ROOT
HETATM    1  C11 UNL     1      26.317   1.939  53.417  1.00  0.00     0.034 A 
HETATM    2  C12 UNL     1      27.632   2.311  53.700  1.00  0.00     0.032 A 
HETATM    3  C13 UNL     1      28.729   1.450  53.583  1.00  0.00     0.046 A 
HETATM    4  C14 UNL     1      28.420   0.156  53.153  1.00  0.00     0.137 A 
HETATM    5  F1  UNL     1      29.450  -0.741  53.017  1.00  0.00    -0.204 F 
HETATM    6  C15 UNL     1      27.158  -0.258  52.864  1.00  0.00     0.085 A 
HETATM    7  C16 UNL     1      26.941  -1.604  52.430  1.00  0.00     0.102 C 
HETATM    8  N4  UNL     1      26.771  -2.697  52.093  1.00  0.00    -0.191 NA
HETATM    9  C17 UNL     1      26.113   0.639  53.000  1.00  0.00     0.055 A 
ENDROOT
BRANCH   1  10
HETATM   10  N3  UNL     1      25.262   2.901  53.568  1.00  0.00    -0.359 N 
HETATM   11  H13 UNL     1      25.323   3.492  54.448  1.00  0.00     0.166 HD
BRANCH  10  12
HETATM   12  C10 UNL     1      24.313   2.908  52.529  1.00  0.00     0.022 C 
HETATM   13  C9  UNL     1      24.895   3.510  51.361  1.00  0.00     0.045 C 
HETATM   14  C8  UNL     1      24.463   3.758  50.147  1.00  0.00     0.120 C 
HETATM   15  N2  UNL     1      23.132   3.266  50.164  1.00  0.00    -0.254 NA
HETATM   16  C7  UNL     1      22.968   1.962  50.102  1.00  0.00     0.233 C 
HETATM   17  N1  UNL     1      21.531   2.059  50.154  1.00  0.00    -0.237 NA
HETATM   18  C6  UNL     1      20.993   2.131  51.291  1.00  0.00     0.119 C 
HETATM   19  C5  UNL     1      21.735   2.038  52.348  1.00  0.00     0.092 C 
HETATM   20  C18 UNL     1      23.080   2.527  52.338  1.00  0.00     0.111 C 
BRANCH  19  21
HETATM   21  O2  UNL     1      20.589   1.468  52.812  1.00  0.00    -0.322 OA
BRANCH  21  22
HETATM   22  C3  UNL     1      20.540   0.144  53.342  1.00  0.00     0.261 C 
HETATM   23  C4  UNL     1      19.196  -0.504  53.170  1.00  0.00     0.071 C 
BRANCH  22  24
HETATM   24  O1  UNL     1      20.993   0.118  54.653  1.00  0.00    -0.362 OA
BRANCH  24  25
HETATM   25  C2  UNL     1      21.854  -0.932  54.927  1.00  0.00     0.166 C 
HETATM   26  C1  UNL     1      22.894  -0.987  53.815  1.00  0.00     0.033 C 
ENDBRANCH  24  25
ENDBRANCH  22  24
ENDBRANCH  21  22
ENDBRANCH  19  21
ENDBRANCH  10  12
ENDBRANCH   1  10
TORSDOF 6
ENDMDL
MODEL 6
REMARK VINA RESULT:      -7.6      2.423      4.792
REMARK  6 active torsions:
REMARK  status: ('A' for Active; 'I' for Inactive)
REMARK    1  A    between atoms: C2_2  and  O1_3 
REMARK    2  A    between atoms: O1_3  and  C3_4 
REMARK    3  A    between atoms: C3_4  and  O2_6 
REMARK    4  A    between atoms: O2_6  and  C5_7 
REMARK    5  A    between atoms: C10_14  and  N3_15 
REMARK    6  A    between atoms: N3_15  and  C11_16 
ROOT
HETATM    1  C11 UNL     1      24.926   3.231  51.128  1.00  0.00     0.034 A 
HETATM    2  C12 UNL     1      24.005   3.769  52.028  1.00  0.00     0.032 A 
HETATM    3  C13 UNL     1      22.669   4.038  51.711  1.00  0.00     0.046 A 
HETATM    4  C14 UNL     1      22.300   3.724  50.399  1.00  0.00     0.137 A 
HETATM    5  F1  UNL     1      21.002   3.963  50.021  1.00  0.00    -0.204 F 
HETATM    6  C15 UNL     1      23.156   3.198  49.484  1.00  0.00     0.085 A 
HETATM    7  C16 UNL     1      22.683   2.910  48.164  1.00  0.00     0.102 C 
HETATM    8  N4  UNL     1      22.300   2.692  47.095  1.00  0.00    -0.191 NA
HETATM    9  C17 UNL     1      24.466   2.955  49.856  1.00  0.00     0.055 A 
ENDROOT
BRANCH   1  10
HETATM   10  N3  UNL     1      26.276   2.992  51.555  1.00  0.00    -0.359 N 
HETATM   11  H13 UNL     1      26.990   3.679  51.174  1.00  0.00     0.166 HD
BRANCH  10  12
HETATM   12  C10 UNL     1      26.440   1.885  52.410  1.00  0.00     0.022 C 
HETATM   13  C9  UNL     1      27.805   1.831  52.855  1.00  0.00     0.045 C 
HETATM   14  C8  UNL     1      28.479   1.028  53.644  1.00  0.00     0.120 C 
HETATM   15  N2  UNL     1      27.508   0.078  54.055  1.00  0.00    -0.254 NA
HETATM   16  C7  UNL     1      26.636   0.458  54.963  1.00  0.00     0.233 C 
HETATM   17  N1  UNL     1      25.967  -0.819  54.972  1.00  0.00    -0.237 NA
HETATM   18  C6  UNL     1      25.071  -1.013  54.107  1.00  0.00     0.119 C 
HETATM   19  C5  UNL     1      24.740  -0.047  53.311  1.00  0.00     0.092 C 
HETATM   20  C18 UNL     1      25.713   0.919  52.897  1.00  0.00     0.111 C 
BRANCH  19  21
HETATM   21  O2  UNL     1      23.542  -0.684  53.421  1.00  0.00    -0.322 OA
BRANCH  21  22
HETATM   22  C3  UNL     1      22.395  -0.083  54.020  1.00  0.00     0.261 C 
HETATM   23  C4  UNL     1      21.446  -1.090  54.603  1.00  0.00     0.071 C 
BRANCH  22  24
HETATM   24  O1  UNL     1      21.781   0.798  53.141  1.00  0.00    -0.362 OA
BRANCH  24  25
HETATM   25  C2  UNL     1      20.840   0.202  52.318  1.00  0.00     0.166 C 
HETATM   26  C1  UNL     1      21.344   0.300  50.883  1.00  0.00     0.033 C 
ENDBRANCH  24  25
ENDBRANCH  22  24
ENDBRANCH  21  22
ENDBRANCH  19  21
ENDBRANCH  10  12
ENDBRANCH   1  10
TORSDOF 6
ENDMDL
MODEL 7
REMARK VINA RESULT:      -7.5      2.732      4.975
REMARK  6 active torsions:
REMARK  status: ('A' for Active; 'I' for Inactive)
REMARK    1  A    between atoms: C2_2  and  O1_3 
REMARK    2  A    between atoms: O1_3  and  C3_4 
REMARK    3  A    between atoms: C3_4  and  O2_6 
REMARK    4  A    between atoms: O2_6  and  C5_7 
REMARK    5  A    between atoms: C10_14  and  N3_15 
REMARK    6  A    between atoms: N3_15  and  C11_16 
ROOT
HETATM    1  C11 UNL     1      25.224  -0.009  53.303  1.00  0.00     0.034 A 
HETATM    2  C12 UNL     1      26.107   0.102  54.379  1.00  0.00     0.032 A 
HETATM    3  C13 UNL     1      27.174   1.006  54.421  1.00  0.00     0.046 A 
HETATM    4  C14 UNL     1      27.307   1.815  53.289  1.00  0.00     0.137 A 
HETATM    5  F1  UNL     1      28.335   2.725  53.265  1.00  0.00    -0.204 F 
HETATM    6  C15 UNL     1      26.476   1.748  52.216  1.00  0.00     0.085 A 
HETATM    7  C16 UNL     1      26.693   2.621  51.102  1.00  0.00     0.102 C 
HETATM    8  N4  UNL     1      26.881   3.318  50.200  1.00  0.00    -0.191 NA
HETATM    9  C17 UNL     1      25.438   0.833  52.231  1.00  0.00     0.055 A 
ENDROOT
BRANCH   1  10
HETATM   10  N3  UNL     1      24.159  -0.971  53.360  1.00  0.00    -0.359 N 
HETATM   11  H13 UNL     1      24.470  -1.967  53.553  1.00  0.00     0.166 HD
BRANCH  10  12
HETATM   12  C10 UNL     1      22.871  -0.442  53.149  1.00  0.00     0.022 C 
HETATM   13  C9  UNL     1      22.143  -0.462  54.387  1.00  0.00     0.045 C 
HETATM   14  C8  UNL     1      20.936  -0.092  54.745  1.00  0.00     0.120 C 
HETATM   15  N2  UNL     1      20.374   0.406  53.543  1.00  0.00    -0.254 NA
HETATM   16  C7  UNL     1      20.764   1.596  53.139  1.00  0.00     0.233 C 
HETATM   17  N1  UNL     1      19.924   1.564  51.968  1.00  0.00    -0.237 NA
HETATM   18  C6  UNL     1      20.383   1.000  50.938  1.00  0.00     0.119 C 
HETATM   19  C5  UNL     1      21.597   0.550  50.951  1.00  0.00     0.092 C 
HETATM   20  C18 UNL     1      22.174   0.050  52.163  1.00  0.00     0.111 C 
BRANCH  19  21
HETATM   21  O2  UNL     1      21.488   0.900  49.641  1.00  0.00    -0.322 OA
BRANCH  21  22
HETATM   22  C3  UNL     1      22.077   2.083  49.101  1.00  0.00     0.261 C 
HETATM   23  C4  UNL     1      22.313   1.995  47.621  1.00  0.00     0.071 C 
BRANCH  22  24
HETATM   24  O1  UNL     1      23.213   2.440  49.813  1.00  0.00    -0.362 OA
BRANCH  24  25
HETATM   25  C2  UNL     1      23.253   3.778  50.170  1.00  0.00     0.166 C 
HETATM   26  C1  UNL     1      23.243   3.856  51.692  1.00  0.00     0.033 C 
ENDBRANCH  24  25
ENDBRANCH  22  24
ENDBRANCH  21  22
ENDBRANCH  19  21
ENDBRANCH  10  12
ENDBRANCH   1  10
TORSDOF 6
ENDMDL
MODEL 8
REMARK VINA RESULT:      -7.2      1.938      2.588
REMARK  6 active torsions:
REMARK  status: ('A' for Active; 'I' for Inactive)
REMARK    1  A    between atoms: C2_2  and  O1_3 
REMARK    2  A    between atoms: O1_3  and  C3_4 
REMARK    3  A    between atoms: C3_4  and  O2_6 
REMARK    4  A    between atoms: O2_6  and  C5_7 
REMARK    5  A    between atoms: C10_14  and  N3_15 
REMARK    6  A    between atoms: N3_15  and  C11_16 
ROOT
HETATM    1  C11 UNL     1      24.166   3.531  49.768  1.00  0.00     0.034 A 
HETATM    2  C12 UNL     1      25.527   3.340  49.524  1.00  0.00     0.032 A 
HETATM    3  C13 UNL     1      26.456   4.382  49.425  1.00  0.00     0.046 A 
HETATM    4  C14 UNL     1      25.924   5.665  49.590  1.00  0.00     0.137 A 
HETATM    5  F1  UNL     1      26.781   6.733  49.505  1.00  0.00    -0.204 F 
HETATM    6  C15 UNL     1      24.608   5.906  49.830  1.00  0.00     0.085 A 
HETATM    7  C16 UNL     1      24.158   7.256  49.986  1.00  0.00     0.102 C 
HETATM    8  N4  UNL     1      23.798   8.349  50.097  1.00  0.00    -0.191 NA
HETATM    9  C17 UNL     1      23.736   4.835  49.917  1.00  0.00     0.055 A 
ENDROOT
BRANCH   1  10
HETATM   10  N3  UNL     1      23.296   2.392  49.852  1.00  0.00    -0.359 N 
HETATM   11  H13 UNL     1      22.783   2.158  48.953  1.00  0.00     0.166 HD
BRANCH  10  12
HETATM   12  C10 UNL     1      23.259   1.767  51.113  1.00  0.00     0.022 C 
HETATM   13  C9  UNL     1      21.908   1.766  51.601  1.00  0.00     0.045 C 
HETATM   14  C8  UNL     1      21.329   1.320  52.691  1.00  0.00     0.120 C 
HETATM   15  N2  UNL     1      22.401   0.751  53.424  1.00  0.00    -0.254 NA
HETATM   16  C7  UNL     1      22.855  -0.417  53.026  1.00  0.00     0.233 C 
HETATM   17  N1  UNL     1      23.852  -0.476  54.066  1.00  0.00    -0.237 NA
HETATM   18  C6  UNL     1      24.955   0.093  53.848  1.00  0.00     0.119 C 
HETATM   19  C5  UNL     1      25.172   0.629  52.690  1.00  0.00     0.092 C 
HETATM   20  C18 UNL     1      24.094   1.201  51.940  1.00  0.00     0.111 C 
BRANCH  19  21
HETATM   21  O2  UNL     1      26.436   0.239  53.010  1.00  0.00    -0.322 OA
BRANCH  21  22
HETATM   22  C3  UNL     1      27.301   1.013  53.838  1.00  0.00     0.261 C 
HETATM   23  C4  UNL     1      27.954   2.147  53.102  1.00  0.00     0.071 C 
BRANCH  22  24
HETATM   24  O1  UNL     1      28.210   0.201  54.502  1.00  0.00    -0.362 OA
BRANCH  24  25
HETATM   25  C2  UNL     1      29.433   0.090  53.862  1.00  0.00     0.166 C 
HETATM   26  C1  UNL     1      29.602  -1.358  53.421  1.00  0.00     0.033 C 
ENDBRANCH  24  25
ENDBRANCH  22  24
ENDBRANCH  21  22
ENDBRANCH  19  21
ENDBRANCH  10  12
ENDBRANCH   1  10
TORSDOF 6
ENDMDL
MODEL 9
REMARK VINA RESULT:      -7.1      3.116      6.428
REMARK  6 active torsions:
REMARK  status: ('A' for Active; 'I' for Inactive)
REMARK    1  A    between atoms: C2_2  and  O1_3 
REMARK    2  A    between atoms: O1_3  and  C3_4 
REMARK    3  A    between atoms: C3_4  and  O2_6 
REMARK    4  A    between atoms: O2_6  and  C5_7 
REMARK    5  A    between atoms: C10_14  and  N3_15 
REMARK    6  A    between atoms: N3_15  and  C11_16 
ROOT
HETATM    1  C11 UNL     1      25.443   2.153  52.465  1.00  0.00     0.034 A 
HETATM    2  C12 UNL     1      26.302   1.579  51.526  1.00  0.00     0.032 A 
HETATM    3  C13 UNL     1      26.820   0.283  51.632  1.00  0.00     0.046 A 
HETATM    4  C14 UNL     1      26.414  -0.423  52.768  1.00  0.00     0.137 A 
HETATM    5  F1  UNL     1      26.886  -1.702  52.934  1.00  0.00    -0.204 F 
HETATM    6  C15 UNL     1      25.580   0.087  53.711  1.00  0.00     0.085 A 
HETATM    7  C16 UNL     1      25.220  -0.715  54.840  1.00  0.00     0.102 C 
HETATM    8  N4  UNL     1      24.944  -1.363  55.757  1.00  0.00    -0.191 NA
HETATM    9  C17 UNL     1      25.100   1.376  53.553  1.00  0.00     0.055 A 
ENDROOT
BRANCH   1  10
HETATM   10  N3  UNL     1      24.967   3.492  52.262  1.00  0.00    -0.359 N 
HETATM   11  H13 UNL     1      25.516   4.242  52.775  1.00  0.00     0.166 HD
BRANCH  10  12
HETATM   12  C10 UNL     1      23.846   3.600  51.416  1.00  0.00     0.022 C 
HETATM   13  C9  UNL     1      24.220   4.311  50.225  1.00  0.00     0.045 C 
HETATM   14  C8  UNL     1      23.582   4.675  49.138  1.00  0.00     0.120 C 
HETATM   15  N2  UNL     1      22.268   4.186  49.348  1.00  0.00    -0.254 NA
HETATM   16  C7  UNL     1      22.070   2.895  49.194  1.00  0.00     0.233 C 
HETATM   17  N1  UNL     1      20.667   2.988  49.513  1.00  0.00    -0.237 NA
HETATM   18  C6  UNL     1      20.344   2.951  50.730  1.00  0.00     0.119 C 
HETATM   19  C5  UNL     1      21.262   2.756  51.623  1.00  0.00     0.092 C 
HETATM   20  C18 UNL     1      22.593   3.242  51.416  1.00  0.00     0.111 C 
BRANCH  19  21
HETATM   21  O2  UNL     1      20.208   2.145  52.230  1.00  0.00    -0.322 OA
BRANCH  21  22
HETATM   22  C3  UNL     1      20.163   0.741  52.481  1.00  0.00     0.261 C 
HETATM   23  C4  UNL     1      18.939   0.085  51.910  1.00  0.00     0.071 C 
BRANCH  22  24
HETATM   24  O1  UNL     1      20.344   0.473  53.830  1.00  0.00    -0.362 OA
BRANCH  24  25
HETATM   25  C2  UNL     1      21.620   0.035  54.147  1.00  0.00     0.166 C 
HETATM   26  C1  UNL     1      21.534  -1.447  54.489  1.00  0.00     0.033 C 
ENDBRANCH  24  25
ENDBRANCH  22  24
ENDBRANCH  21  22
ENDBRANCH  19  21
ENDBRANCH  10  12
ENDBRANCH   1  10
TORSDOF 6
ENDMDL
