MODEL 1
REMARK VINA RESULT:      -9.1      0.000      0.000
REMARK  6 active torsions:
REMARK  status: ('A' for Active; 'I' for Inactive)
REMARK    1  A    between atoms: C3_3  and  C4_4 
REMARK    2  A    between atoms: C4_4  and  N1_5 
REMARK    3  A    between atoms: N1_5  and  C5_6 
REMARK    4  A    between atoms: C7_8  and  N2_10 
REMARK    5  A    between atoms: N2_10  and  C9_11 
REMARK    6  A    between atoms: C12_14  and  N3_15 
ROOT
HETATM    1  C5  UNL     1      24.179   1.231  52.834  1.00  0.00     0.022 C 
HETATM    2  C6  UNL     1      24.344   1.954  51.736  1.00  0.00     0.039 C 
HETATM    3  C7  UNL     1      23.240   2.479  50.892  1.00  0.00     0.128 C 
HETATM    4  C8  UNL     1      22.559   3.579  51.623  1.00  0.00     0.054 C 
HETATM    5  C19 UNL     1      22.265   1.348  50.783  1.00  0.00     0.249 C 
HETATM    6  O1  UNL     1      21.656   0.828  49.807  1.00  0.00    -0.270 OA
HETATM    7  N5  UNL     1      21.935   0.701  52.029  1.00  0.00    -0.353 N 
HETATM    8  C20 UNL     1      22.770   0.961  53.194  1.00  0.00     0.179 C 
HETATM    9  H25 UNL     1      21.117   0.046  52.147  1.00  0.00     0.162 HD
ENDROOT
BRANCH   3  10
HETATM   10  N2  UNL     1      23.774   2.836  49.596  1.00  0.00    -0.369 N 
HETATM   11  H11 UNL     1      23.457   2.294  48.735  1.00  0.00     0.161 HD
BRANCH  10  12
HETATM   12  C9  UNL     1      24.724   3.875  49.285  1.00  0.00     0.029 A 
HETATM   13  C10 UNL     1      24.345   5.179  48.951  1.00  0.00     0.031 A 
HETATM   14  C11 UNL     1      25.354   6.076  48.668  1.00  0.00     0.031 A 
HETATM   15  C12 UNL     1      26.702   5.785  48.691  1.00  0.00     0.031 A 
HETATM   16  C17 UNL     1      27.081   4.509  49.018  1.00  0.00     0.031 A 
HETATM   17  C18 UNL     1      26.087   3.581  49.309  1.00  0.00     0.031 A 
BRANCH  15  18
HETATM   18  N3  UNL     1      27.662   6.789  48.382  1.00  0.00    -0.354 N 
HETATM   19  C13 UNL     1      29.115   6.661  48.447  1.00  0.00     0.155 C 
HETATM   20  C14 UNL     1      29.600   8.068  48.562  1.00  0.00     0.293 C 
HETATM   21  N4  UNL     1      28.443   8.928  48.516  1.00  0.00     0.103 N 
HETATM   22  C15 UNL     1      28.106   9.380  49.837  1.00  0.00     0.312 C 
HETATM   23  C16 UNL     1      27.368   8.136  47.943  1.00  0.00     0.397 C 
ENDBRANCH  15  18
ENDBRANCH  10  12
ENDBRANCH   3  10
BRANCH   1  24
HETATM   24  N1  UNL     1      25.325   0.804  53.530  1.00  0.00    -0.388 N 
HETATM   25  H6  UNL     1      24.836  -0.090  53.838  1.00  0.00     0.159 HD
BRANCH  24  26
HETATM   26  C4  UNL     1      26.680   0.974  53.975  1.00  0.00     0.154 C 
BRANCH  26  27
HETATM   27  C3  UNL     1      27.561  -0.161  53.640  1.00  0.00    -0.056 A 
HETATM   28  C2  UNL     1      28.837  -0.009  53.882  1.00  0.00    -0.058 A 
HETATM   29  C1  UNL     1      29.384   1.232  54.462  1.00  0.00     0.048 C 
HETATM   30  C24 UNL     1      29.686  -1.135  53.542  1.00  0.00     0.003 A 
HETATM   31  C23 UNL     1      28.994  -2.137  53.036  1.00  0.00    -0.026 A 
HETATM   32  C22 UNL     1      27.578  -2.414  52.723  1.00  0.00     0.031 A 
HETATM   33  C21 UNL     1      26.714  -1.238  53.085  1.00  0.00     0.040 A 
ENDBRANCH  26  27
ENDBRANCH  24  26
ENDBRANCH   1  24
TORSDOF 6
ENDMDL
MODEL 2
REMARK VINA RESULT:      -9.1      0.681      1.507
REMARK  6 active torsions:
REMARK  status: ('A' for Active; 'I' for Inactive)
REMARK    1  A    between atoms: C3_3  and  C4_4 
REMARK    2  A    between atoms: C4_4  and  N1_5 
REMARK    3  A    between atoms: N1_5  and  C5_6 
REMARK    4  A    between atoms: C7_8  and  N2_10 
REMARK    5  A    between atoms: N2_10  and  C9_11 
REMARK    6  A    between atoms: C12_14  and  N3_15 
ROOT
HETATM    1  C5  UNL     1      23.994   0.556  52.911  1.00  0.00     0.022 C 
HETATM    2  C6  UNL     1      24.142   1.342  51.855  1.00  0.00     0.039 C 
HETATM    3  C7  UNL     1      23.045   2.101  51.202  1.00  0.00     0.128 C 
HETATM    4  C8  UNL     1      22.641   3.221  52.091  1.00  0.00     0.054 C 
HETATM    5  C19 UNL     1      21.895   1.145  51.142  1.00  0.00     0.249 C 
HETATM    6  O1  UNL     1      21.099   0.813  50.220  1.00  0.00    -0.270 OA
HETATM    7  N5  UNL     1      21.614   0.446  52.371  1.00  0.00    -0.353 N 
HETATM    8  C20 UNL     1      22.612   0.470  53.433  1.00  0.00     0.179 C 
HETATM    9  H25 UNL     1      20.721  -0.086  52.549  1.00  0.00     0.162 HD
ENDROOT
BRANCH   3  10
HETATM   10  N2  UNL     1      23.473   2.489  49.876  1.00  0.00    -0.369 N 
HETATM   11  H11 UNL     1      23.138   1.925  49.036  1.00  0.00     0.161 HD
BRANCH  10  12
HETATM   12  C9  UNL     1      24.333   3.587  49.508  1.00  0.00     0.029 A 
HETATM   13  C10 UNL     1      23.846   4.814  49.045  1.00  0.00     0.031 A 
HETATM   14  C11 UNL     1      24.777   5.778  48.720  1.00  0.00     0.031 A 
HETATM   15  C12 UNL     1      26.143   5.625  48.817  1.00  0.00     0.031 A 
HETATM   16  C17 UNL     1      26.628   4.426  49.270  1.00  0.00     0.031 A 
HETATM   17  C18 UNL     1      25.714   3.432  49.607  1.00  0.00     0.031 A 
BRANCH  15  18
HETATM   18  N3  UNL     1      27.016   6.689  48.455  1.00  0.00    -0.354 N 
HETATM   19  C13 UNL     1      28.466   6.616  48.292  1.00  0.00     0.155 C 
HETATM   20  C14 UNL     1      28.921   8.029  48.452  1.00  0.00     0.293 C 
HETATM   21  N4  UNL     1      27.746   8.841  48.651  1.00  0.00     0.103 N 
HETATM   22  C15 UNL     1      27.600   9.173  50.041  1.00  0.00     0.312 C 
HETATM   23  C16 UNL     1      26.620   8.054  48.179  1.00  0.00     0.397 C 
ENDBRANCH  15  18
ENDBRANCH  10  12
ENDBRANCH   3  10
BRANCH   1  24
HETATM   24  N1  UNL     1      25.130  -0.099  53.420  1.00  0.00    -0.388 N 
HETATM   25  H6  UNL     1      25.091   0.474  54.317  1.00  0.00     0.159 HD
BRANCH  24  26
HETATM   26  C4  UNL     1      26.194  -1.058  53.323  1.00  0.00     0.154 C 
BRANCH  26  27
HETATM   27  C3  UNL     1      27.539  -0.466  53.455  1.00  0.00    -0.056 A 
HETATM   28  C2  UNL     1      28.557  -1.271  53.291  1.00  0.00    -0.058 A 
HETATM   29  C1  UNL     1      28.384  -2.704  52.989  1.00  0.00     0.048 C 
HETATM   30  C24 UNL     1      29.870  -0.669  53.429  1.00  0.00     0.003 A 
HETATM   31  C23 UNL     1      29.795   0.618  53.703  1.00  0.00    -0.026 A 
HETATM   32  C22 UNL     1      28.722   1.612  53.906  1.00  0.00     0.031 A 
HETATM   33  C21 UNL     1      27.369   0.971  53.756  1.00  0.00     0.040 A 
ENDBRANCH  26  27
ENDBRANCH  24  26
ENDBRANCH   1  24
TORSDOF 6
ENDMDL
MODEL 3
REMARK VINA RESULT:      -9.0      3.429      8.265
REMARK  6 active torsions:
REMARK  status: ('A' for Active; 'I' for Inactive)
REMARK    1  A    between atoms: C3_3  and  C4_4 
REMARK    2  A    between atoms: C4_4  and  N1_5 
REMARK    3  A    between atoms: N1_5  and  C5_6 
REMARK    4  A    between atoms: C7_8  and  N2_10 
REMARK    5  A    between atoms: N2_10  and  C9_11 
REMARK    6  A    between atoms: C12_14  and  N3_15 
ROOT
HETATM    1  C5  UNL     1      30.597   7.848  48.758  1.00  0.00     0.022 C 
HETATM    2  C6  UNL     1      29.455   7.432  48.230  1.00  0.00     0.039 C 
HETATM    3  C7  UNL     1      28.204   8.231  48.177  1.00  0.00     0.128 C 
HETATM    4  C8  UNL     1      28.373   9.320  47.179  1.00  0.00     0.054 C 
HETATM    5  C19 UNL     1      28.099   8.876  49.524  1.00  0.00     0.249 C 
HETATM    6  O1  UNL     1      27.154   8.984  50.354  1.00  0.00    -0.270 OA
HETATM    7  N5  UNL     1      29.304   9.511  49.996  1.00  0.00    -0.353 N 
HETATM    8  C20 UNL     1      30.560   9.218  49.318  1.00  0.00     0.179 C 
HETATM    9  H25 UNL     1      29.330  10.181  50.810  1.00  0.00     0.162 HD
ENDROOT
BRANCH   3  10
HETATM   10  N2  UNL     1      27.092   7.340  47.935  1.00  0.00    -0.369 N 
HETATM   11  H11 UNL     1      26.420   7.551  47.134  1.00  0.00     0.161 HD
BRANCH  10  12
HETATM   12  C9  UNL     1      26.741   6.143  48.659  1.00  0.00     0.029 A 
HETATM   13  C10 UNL     1      27.494   4.966  48.596  1.00  0.00     0.031 A 
HETATM   14  C11 UNL     1      27.045   3.891  49.332  1.00  0.00     0.031 A 
HETATM   15  C12 UNL     1      25.915   3.888  50.122  1.00  0.00     0.031 A 
HETATM   16  C17 UNL     1      25.172   5.037  50.189  1.00  0.00     0.031 A 
HETATM   17  C18 UNL     1      25.599   6.141  49.458  1.00  0.00     0.031 A 
BRANCH  15  18
HETATM   18  N3  UNL     1      25.541   2.720  50.844  1.00  0.00    -0.354 N 
HETATM   19  C13 UNL     1      24.184   2.259  51.123  1.00  0.00     0.155 C 
HETATM   20  C14 UNL     1      24.340   1.362  52.306  1.00  0.00     0.293 C 
HETATM   21  N4  UNL     1      25.746   1.310  52.625  1.00  0.00     0.103 N 
HETATM   22  C15 UNL     1      26.033   2.151  53.753  1.00  0.00     0.312 C 
HETATM   23  C16 UNL     1      26.451   1.764  51.439  1.00  0.00     0.397 C 
ENDBRANCH  15  18
ENDBRANCH  10  12
ENDBRANCH   3  10
BRANCH   1  24
HETATM   24  N1  UNL     1      31.700   6.975  48.735  1.00  0.00    -0.388 N 
HETATM   25  H6  UNL     1      32.111   7.477  47.891  1.00  0.00     0.159 HD
BRANCH  24  26
HETATM   26  C4  UNL     1      32.451   5.862  49.243  1.00  0.00     0.154 C 
BRANCH  26  27
HETATM   27  C3  UNL     1      32.929   4.941  48.194  1.00  0.00    -0.056 A 
HETATM   28  C2  UNL     1      34.224   4.794  48.083  1.00  0.00    -0.058 A 
HETATM   29  C1  UNL     1      35.172   5.507  48.957  1.00  0.00     0.048 C 
HETATM   30  C24 UNL     1      34.672   3.887  47.043  1.00  0.00     0.003 A 
HETATM   31  C23 UNL     1      33.662   3.362  46.380  1.00  0.00    -0.026 A 
HETATM   32  C22 UNL     1      32.188   3.454  46.416  1.00  0.00     0.031 A 
HETATM   33  C21 UNL     1      31.742   4.394  47.502  1.00  0.00     0.040 A 
ENDBRANCH  26  27
ENDBRANCH  24  26
ENDBRANCH   1  24
TORSDOF 6
ENDMDL
MODEL 4
REMARK VINA RESULT:      -8.8      2.033      3.114
REMARK  6 active torsions:
REMARK  status: ('A' for Active; 'I' for Inactive)
REMARK    1  A    between atoms: C3_3  and  C4_4 
REMARK    2  A    between atoms: C4_4  and  N1_5 
REMARK    3  A    between atoms: N1_5  and  C5_6 
REMARK    4  A    between atoms: C7_8  and  N2_10 
REMARK    5  A    between atoms: N2_10  and  C9_11 
REMARK    6  A    between atoms: C12_14  and  N3_15 
ROOT
HETATM    1  C5  UNL     1      24.474   3.192  51.733  1.00  0.00     0.022 C 
HETATM    2  C6  UNL     1      24.982   3.943  50.767  1.00  0.00     0.039 C 
HETATM    3  C7  UNL     1      24.294   5.102  50.143  1.00  0.00     0.128 C 
HETATM    4  C8  UNL     1      24.261   6.222  51.118  1.00  0.00     0.054 C 
HETATM    5  C19 UNL     1      22.881   4.650  49.938  1.00  0.00     0.249 C 
HETATM    6  O1  UNL     1      22.094   4.707  48.953  1.00  0.00    -0.270 OA
HETATM    7  N5  UNL     1      22.269   4.015  51.079  1.00  0.00    -0.353 N 
HETATM    8  C20 UNL     1      23.121   3.588  52.181  1.00  0.00     0.179 C 
HETATM    9  H25 UNL     1      21.233   3.842  51.163  1.00  0.00     0.162 HD
ENDROOT
BRANCH   3  10
HETATM   10  N2  UNL     1      24.936   5.401  48.881  1.00  0.00    -0.369 N 
HETATM   11  H11 UNL     1      24.398   5.246  47.974  1.00  0.00     0.161 HD
BRANCH  10  12
HETATM   12  C9  UNL     1      26.269   5.904  48.663  1.00  0.00     0.029 A 
HETATM   13  C10 UNL     1      26.552   7.262  48.488  1.00  0.00     0.031 A 
HETATM   14  C11 UNL     1      27.870   7.610  48.280  1.00  0.00     0.031 A 
HETATM   15  C12 UNL     1      28.925   6.724  48.233  1.00  0.00     0.031 A 
HETATM   16  C17 UNL     1      28.656   5.391  48.404  1.00  0.00     0.031 A 
HETATM   17  C18 UNL     1      27.336   5.008  48.616  1.00  0.00     0.031 A 
BRANCH  15  18
HETATM   18  N3  UNL     1      30.251   7.192  48.013  1.00  0.00    -0.354 N 
HETATM   19  C13 UNL     1      30.964   7.238  46.739  1.00  0.00     0.155 C 
HETATM   20  C14 UNL     1      32.404   7.278  47.129  1.00  0.00     0.293 C 
HETATM   21  N4  UNL     1      32.460   7.296  48.570  1.00  0.00     0.103 N 
HETATM   22  C15 UNL     1      32.794   5.993  49.073  1.00  0.00     0.312 C 
HETATM   23  C16 UNL     1      31.145   7.712  49.026  1.00  0.00     0.397 C 
ENDBRANCH  15  18
ENDBRANCH  10  12
ENDBRANCH   3  10
BRANCH   1  24
HETATM   24  N1  UNL     1      25.248   2.125  52.225  1.00  0.00    -0.388 N 
HETATM   25  H6  UNL     1      25.450   2.654  53.126  1.00  0.00     0.159 HD
BRANCH  24  26
HETATM   26  C4  UNL     1      25.829   0.817  52.109  1.00  0.00     0.154 C 
BRANCH  26  27
HETATM   27  C3  UNL     1      27.139   0.689  52.775  1.00  0.00    -0.056 A 
HETATM   28  C2  UNL     1      27.595  -0.523  52.956  1.00  0.00    -0.058 A 
HETATM   29  C1  UNL     1      26.845  -1.716  52.521  1.00  0.00     0.048 C 
HETATM   30  C24 UNL     1      28.882  -0.626  53.616  1.00  0.00     0.003 A 
HETATM   31  C23 UNL     1      29.373   0.558  53.922  1.00  0.00    -0.026 A 
HETATM   32  C22 UNL     1      28.956   1.966  53.769  1.00  0.00     0.031 A 
HETATM   33  C21 UNL     1      27.622   2.053  53.080  1.00  0.00     0.040 A 
ENDBRANCH  26  27
ENDBRANCH  24  26
ENDBRANCH   1  24
TORSDOF 6
ENDMDL
MODEL 5
REMARK VINA RESULT:      -8.8      3.784      6.456
REMARK  6 active torsions:
REMARK  status: ('A' for Active; 'I' for Inactive)
REMARK    1  A    between atoms: C3_3  and  C4_4 
REMARK    2  A    between atoms: C4_4  and  N1_5 
REMARK    3  A    between atoms: N1_5  and  C5_6 
REMARK    4  A    between atoms: C7_8  and  N2_10 
REMARK    5  A    between atoms: N2_10  and  C9_11 
REMARK    6  A    between atoms: C12_14  and  N3_15 
ROOT
HETATM    1  C5  UNL     1      23.864  -0.650  54.157  1.00  0.00     0.022 C 
HETATM    2  C6  UNL     1      24.364   0.054  53.152  1.00  0.00     0.039 C 
HETATM    3  C7  UNL     1      25.811   0.301  52.926  1.00  0.00     0.128 C 
HETATM    4  C8  UNL     1      26.448  -0.964  52.475  1.00  0.00     0.054 C 
HETATM    5  C19 UNL     1      26.366   0.619  54.280  1.00  0.00     0.249 C 
HETATM    6  O1  UNL     1      27.122   1.536  54.706  1.00  0.00    -0.270 OA
HETATM    7  N5  UNL     1      25.975  -0.287  55.331  1.00  0.00    -0.353 N 
HETATM    8  C20 UNL     1      24.871  -1.206  55.088  1.00  0.00     0.179 C 
HETATM    9  H25 UNL     1      26.446  -0.325  56.274  1.00  0.00     0.162 HD
ENDROOT
BRANCH   3  10
HETATM   10  N2  UNL     1      25.958   1.421  52.024  1.00  0.00    -0.369 N 
HETATM   11  H11 UNL     1      26.893   1.579  51.538  1.00  0.00     0.161 HD
BRANCH  10  12
HETATM   12  C9  UNL     1      24.968   2.408  51.668  1.00  0.00     0.029 A 
HETATM   13  C10 UNL     1      24.408   3.295  52.593  1.00  0.00     0.031 A 
HETATM   14  C11 UNL     1      23.467   4.185  52.123  1.00  0.00     0.031 A 
HETATM   15  C12 UNL     1      23.038   4.267  50.815  1.00  0.00     0.031 A 
HETATM   16  C17 UNL     1      23.581   3.402  49.902  1.00  0.00     0.031 A 
HETATM   17  C18 UNL     1      24.535   2.491  50.346  1.00  0.00     0.031 A 
BRANCH  15  18
HETATM   18  N3  UNL     1      22.058   5.227  50.436  1.00  0.00    -0.354 N 
HETATM   19  C13 UNL     1      21.253   5.223  49.217  1.00  0.00     0.155 C 
HETATM   20  C14 UNL     1      20.827   6.645  49.058  1.00  0.00     0.293 C 
HETATM   21  N4  UNL     1      21.352   7.381  50.182  1.00  0.00     0.103 N 
HETATM   22  C15 UNL     1      22.516   8.126  49.790  1.00  0.00     0.312 C 
HETATM   23  C16 UNL     1      21.678   6.397  51.200  1.00  0.00     0.397 C 
ENDBRANCH  15  18
ENDBRANCH  10  12
ENDBRANCH   3  10
BRANCH   1  24
HETATM   24  N1  UNL     1      22.467  -0.796  54.239  1.00  0.00    -0.388 N 
HETATM   25  H6  UNL     1      22.524  -1.789  53.858  1.00  0.00     0.159 HD
BRANCH  24  26
HETATM   26  C4  UNL     1      21.154  -0.308  54.552  1.00  0.00     0.154 C 
BRANCH  26  27
HETATM   27  C3  UNL     1      20.400   0.163  53.374  1.00  0.00    -0.056 A 
HETATM   28  C2  UNL     1      19.362  -0.547  53.014  1.00  0.00    -0.058 A 
HETATM   29  C1  UNL     1      18.953  -1.763  53.741  1.00  0.00     0.048 C 
HETATM   30  C24 UNL     1      18.639  -0.068  51.852  1.00  0.00     0.003 A 
HETATM   31  C23 UNL     1      19.175   1.029  51.356  1.00  0.00    -0.026 A 
HETATM   32  C22 UNL     1      20.323   1.901  51.673  1.00  0.00     0.031 A 
HETATM   33  C21 UNL     1      21.059   1.392  52.882  1.00  0.00     0.040 A 
ENDBRANCH  26  27
ENDBRANCH  24  26
ENDBRANCH   1  24
TORSDOF 6
ENDMDL
MODEL 6
REMARK VINA RESULT:      -8.6      2.598      4.439
REMARK  6 active torsions:
REMARK  status: ('A' for Active; 'I' for Inactive)
REMARK    1  A    between atoms: C3_3  and  C4_4 
REMARK    2  A    between atoms: C4_4  and  N1_5 
REMARK    3  A    between atoms: N1_5  and  C5_6 
REMARK    4  A    between atoms: C7_8  and  N2_10 
REMARK    5  A    between atoms: N2_10  and  C9_11 
REMARK    6  A    between atoms: C12_14  and  N3_15 
ROOT
HETATM    1  C5  UNL     1      23.420   3.885  51.897  1.00  0.00     0.022 C 
HETATM    2  C6  UNL     1      24.146   4.346  50.890  1.00  0.00     0.039 C 
HETATM    3  C7  UNL     1      23.954   5.668  50.241  1.00  0.00     0.128 C 
HETATM    4  C8  UNL     1      24.411   6.731  51.174  1.00  0.00     0.054 C 
HETATM    5  C19 UNL     1      22.471   5.815  50.092  1.00  0.00     0.249 C 
HETATM    6  O1  UNL     1      21.733   6.160  49.127  1.00  0.00    -0.270 OA
HETATM    7  N5  UNL     1      21.703   5.507  51.273  1.00  0.00    -0.353 N 
HETATM    8  C20 UNL     1      22.356   4.801  52.367  1.00  0.00     0.179 C 
HETATM    9  H25 UNL     1      20.688   5.766  51.392  1.00  0.00     0.162 HD
ENDROOT
BRANCH   3  10
HETATM   10  N2  UNL     1      24.610   5.654  48.952  1.00  0.00    -0.369 N 
HETATM   11  H11 UNL     1      24.026   5.512  48.072  1.00  0.00     0.161 HD
BRANCH  10  12
HETATM   12  C9  UNL     1      26.016   5.813  48.672  1.00  0.00     0.029 A 
HETATM   13  C10 UNL     1      26.951   4.790  48.861  1.00  0.00     0.031 A 
HETATM   14  C11 UNL     1      28.266   5.075  48.560  1.00  0.00     0.031 A 
HETATM   15  C12 UNL     1      28.726   6.286  48.089  1.00  0.00     0.031 A 
HETATM   16  C17 UNL     1      27.816   7.294  47.901  1.00  0.00     0.031 A 
HETATM   17  C18 UNL     1      26.481   7.037  48.195  1.00  0.00     0.031 A 
BRANCH  15  18
HETATM   18  N3  UNL     1      30.109   6.474  47.809  1.00  0.00    -0.354 N 
HETATM   19  C13 UNL     1      30.684   7.211  46.687  1.00  0.00     0.155 C 
HETATM   20  C14 UNL     1      32.065   6.660  46.559  1.00  0.00     0.293 C 
HETATM   21  N4  UNL     1      32.241   5.687  47.609  1.00  0.00     0.103 N 
HETATM   22  C15 UNL     1      32.114   4.357  47.082  1.00  0.00     0.312 C 
HETATM   23  C16 UNL     1      31.210   5.960  48.596  1.00  0.00     0.397 C 
ENDBRANCH  15  18
ENDBRANCH  10  12
ENDBRANCH   3  10
BRANCH   1  24
HETATM   24  N1  UNL     1      23.721   2.609  52.408  1.00  0.00    -0.388 N 
HETATM   25  H6  UNL     1      23.962   3.020  53.361  1.00  0.00     0.159 HD
BRANCH  24  26
HETATM   26  C4  UNL     1      23.847   1.185  52.279  1.00  0.00     0.154 C 
BRANCH  26  27
HETATM   27  C3  UNL     1      23.015   0.427  53.232  1.00  0.00    -0.056 A 
HETATM   28  C2  UNL     1      23.626  -0.458  53.976  1.00  0.00    -0.058 A 
HETATM   29  C1  UNL     1      25.077  -0.698  53.876  1.00  0.00     0.048 C 
HETATM   30  C24 UNL     1      22.789  -1.195  54.903  1.00  0.00     0.003 A 
HETATM   31  C23 UNL     1      21.526  -0.826  54.825  1.00  0.00    -0.026 A 
HETATM   32  C22 UNL     1      20.737   0.143  54.039  1.00  0.00     0.031 A 
HETATM   33  C21 UNL     1      21.621   0.899  53.086  1.00  0.00     0.040 A 
ENDBRANCH  26  27
ENDBRANCH  24  26
ENDBRANCH   1  24
TORSDOF 6
ENDMDL
MODEL 7
REMARK VINA RESULT:      -8.5      2.455      4.034
REMARK  6 active torsions:
REMARK  status: ('A' for Active; 'I' for Inactive)
REMARK    1  A    between atoms: C3_3  and  C4_4 
REMARK    2  A    between atoms: C4_4  and  N1_5 
REMARK    3  A    between atoms: N1_5  and  C5_6 
REMARK    4  A    between atoms: C7_8  and  N2_10 
REMARK    5  A    between atoms: N2_10  and  C9_11 
REMARK    6  A    between atoms: C12_14  and  N3_15 
ROOT
HETATM    1  C5  UNL     1      23.142   4.191  51.504  1.00  0.00     0.022 C 
HETATM    2  C6  UNL     1      23.978   4.596  50.560  1.00  0.00     0.039 C 
HETATM    3  C7  UNL     1      23.954   5.938  49.925  1.00  0.00     0.128 C 
HETATM    4  C8  UNL     1      24.436   6.942  50.908  1.00  0.00     0.054 C 
HETATM    5  C19 UNL     1      22.506   6.222  49.674  1.00  0.00     0.249 C 
HETATM    6  O1  UNL     1      21.875   6.646  48.665  1.00  0.00    -0.270 OA
HETATM    7  N5  UNL     1      21.629   5.971  50.790  1.00  0.00    -0.353 N 
HETATM    8  C20 UNL     1      22.134   5.194  51.914  1.00  0.00     0.179 C 
HETATM    9  H25 UNL     1      20.636   6.320  50.841  1.00  0.00     0.162 HD
ENDROOT
BRANCH   3  10
HETATM   10  N2  UNL     1      24.699   5.881  48.686  1.00  0.00    -0.369 N 
HETATM   11  H11 UNL     1      24.172   5.758  47.768  1.00  0.00     0.161 HD
BRANCH  10  12
HETATM   12  C9  UNL     1      26.127   5.970  48.506  1.00  0.00     0.029 A 
HETATM   13  C10 UNL     1      26.999   4.916  48.796  1.00  0.00     0.031 A 
HETATM   14  C11 UNL     1      28.344   5.135  48.584  1.00  0.00     0.031 A 
HETATM   15  C12 UNL     1      28.891   6.308  48.111  1.00  0.00     0.031 A 
HETATM   16  C17 UNL     1      28.043   7.345  47.823  1.00  0.00     0.031 A 
HETATM   17  C18 UNL     1      26.680   7.156  48.026  1.00  0.00     0.031 A 
BRANCH  15  18
HETATM   18  N3  UNL     1      30.297   6.427  47.928  1.00  0.00    -0.354 N 
HETATM   19  C13 UNL     1      30.985   7.041  46.795  1.00  0.00     0.155 C 
HETATM   20  C14 UNL     1      32.350   6.439  46.829  1.00  0.00     0.293 C 
HETATM   21  N4  UNL     1      32.407   5.561  47.971  1.00  0.00     0.103 N 
HETATM   22  C15 UNL     1      32.272   4.193  47.556  1.00  0.00     0.312 C 
HETATM   23  C16 UNL     1      31.314   5.955  48.844  1.00  0.00     0.397 C 
ENDBRANCH  15  18
ENDBRANCH  10  12
ENDBRANCH   3  10
BRANCH   1  24
HETATM   24  N1  UNL     1      23.288   2.886  52.011  1.00  0.00    -0.388 N 
HETATM   25  H6  UNL     1      23.080   2.465  51.055  1.00  0.00     0.159 HD
BRANCH  24  26
HETATM   26  C4  UNL     1      23.552   1.957  53.073  1.00  0.00     0.154 C 
BRANCH  26  27
HETATM   27  C3  UNL     1      24.748   1.123  52.848  1.00  0.00    -0.056 A 
HETATM   28  C2  UNL     1      24.662  -0.137  53.189  1.00  0.00    -0.058 A 
HETATM   29  C1  UNL     1      23.435  -0.710  53.772  1.00  0.00     0.048 C 
HETATM   30  C24 UNL     1      25.850  -0.938  52.963  1.00  0.00     0.003 A 
HETATM   31  C23 UNL     1      26.829  -0.228  52.439  1.00  0.00    -0.026 A 
HETATM   32  C22 UNL     1      27.035   1.173  52.020  1.00  0.00     0.031 A 
HETATM   33  C21 UNL     1      25.793   1.987  52.259  1.00  0.00     0.040 A 
ENDBRANCH  26  27
ENDBRANCH  24  26
ENDBRANCH   1  24
TORSDOF 6
ENDMDL
MODEL 8
REMARK VINA RESULT:      -8.4      1.045      1.352
REMARK  6 active torsions:
REMARK  status: ('A' for Active; 'I' for Inactive)
REMARK    1  A    between atoms: C3_3  and  C4_4 
REMARK    2  A    between atoms: C4_4  and  N1_5 
REMARK    3  A    between atoms: N1_5  and  C5_6 
REMARK    4  A    between atoms: C7_8  and  N2_10 
REMARK    5  A    between atoms: N2_10  and  C9_11 
REMARK    6  A    between atoms: C12_14  and  N3_15 
ROOT
HETATM    1  C5  UNL     1      24.507   1.730  52.294  1.00  0.00     0.022 C 
HETATM    2  C6  UNL     1      24.651   2.563  51.274  1.00  0.00     0.039 C 
HETATM    3  C7  UNL     1      23.539   3.289  50.609  1.00  0.00     0.128 C 
HETATM    4  C8  UNL     1      23.045   4.352  51.523  1.00  0.00     0.054 C 
HETATM    5  C19 UNL     1      22.443   2.278  50.471  1.00  0.00     0.249 C 
HETATM    6  O1  UNL     1      21.699   1.942  49.508  1.00  0.00    -0.270 OA
HETATM    7  N5  UNL     1      22.157   1.518  51.662  1.00  0.00    -0.353 N 
HETATM    8  C20 UNL     1      23.114   1.553  52.760  1.00  0.00     0.179 C 
HETATM    9  H25 UNL     1      21.288   0.934  51.787  1.00  0.00     0.162 HD
ENDROOT
BRANCH   3  10
HETATM   10  N2  UNL     1      23.992   3.750  49.315  1.00  0.00    -0.369 N 
HETATM   11  H11 UNL     1      23.558   3.335  48.434  1.00  0.00     0.161 HD
BRANCH  10  12
HETATM   12  C9  UNL     1      24.999   4.742  49.030  1.00  0.00     0.029 A 
HETATM   13  C10 UNL     1      24.697   6.086  48.788  1.00  0.00     0.031 A 
HETATM   14  C11 UNL     1      25.754   6.931  48.521  1.00  0.00     0.031 A 
HETATM   15  C12 UNL     1      27.079   6.552  48.475  1.00  0.00     0.031 A 
HETATM   16  C17 UNL     1      27.382   5.237  48.712  1.00  0.00     0.031 A 
HETATM   17  C18 UNL     1      26.338   4.359  48.985  1.00  0.00     0.031 A 
BRANCH  15  18
HETATM   18  N3  UNL     1      28.093   7.508  48.191  1.00  0.00    -0.354 N 
HETATM   19  C13 UNL     1      28.049   8.942  48.468  1.00  0.00     0.155 C 
HETATM   20  C14 UNL     1      29.053   9.524  47.529  1.00  0.00     0.293 C 
HETATM   21  N4  UNL     1      29.648   8.431  46.800  1.00  0.00     0.103 N 
HETATM   22  C15 UNL     1      29.086   8.346  45.481  1.00  0.00     0.312 C 
HETATM   23  C16 UNL     1      29.370   7.229  47.567  1.00  0.00     0.397 C 
ENDBRANCH  15  18
ENDBRANCH  10  12
ENDBRANCH   3  10
BRANCH   1  24
HETATM   24  N1  UNL     1      25.658   1.114  52.820  1.00  0.00    -0.388 N 
HETATM   25  H6  UNL     1      25.677   0.411  52.021  1.00  0.00     0.159 HD
BRANCH  24  26
HETATM   26  C4  UNL     1      26.698   0.992  53.802  1.00  0.00     0.154 C 
BRANCH  26  27
HETATM   27  C3  UNL     1      27.599  -0.154  53.572  1.00  0.00    -0.056 A 
HETATM   28  C2  UNL     1      28.849  -0.003  53.926  1.00  0.00    -0.058 A 
HETATM   29  C1  UNL     1      29.348   1.247  54.528  1.00  0.00     0.048 C 
HETATM   30  C24 UNL     1      29.718  -1.139  53.687  1.00  0.00     0.003 A 
HETATM   31  C23 UNL     1      29.069  -2.147  53.141  1.00  0.00    -0.026 A 
HETATM   32  C22 UNL     1      27.686  -2.426  52.705  1.00  0.00     0.031 A 
HETATM   33  C21 UNL     1      26.799  -1.238  52.964  1.00  0.00     0.040 A 
ENDBRANCH  26  27
ENDBRANCH  24  26
ENDBRANCH   1  24
TORSDOF 6
ENDMDL
MODEL 9
REMARK VINA RESULT:      -8.3      3.597      6.666
REMARK  6 active torsions:
REMARK  status: ('A' for Active; 'I' for Inactive)
REMARK    1  A    between atoms: C3_3  and  C4_4 
REMARK    2  A    between atoms: C4_4  and  N1_5 
REMARK    3  A    between atoms: N1_5  and  C5_6 
REMARK    4  A    between atoms: C7_8  and  N2_10 
REMARK    5  A    between atoms: N2_10  and  C9_11 
REMARK    6  A    between atoms: C12_14  and  N3_15 
ROOT
HETATM    1  C5  UNL     1      19.978   2.999  50.148  1.00  0.00     0.022 C 
HETATM    2  C6  UNL     1      20.971   3.684  50.695  1.00  0.00     0.039 C 
HETATM    3  C7  UNL     1      21.595   4.893  50.100  1.00  0.00     0.128 C 
HETATM    4  C8  UNL     1      20.639   6.026  50.202  1.00  0.00     0.054 C 
HETATM    5  C19 UNL     1      21.751   4.574  48.646  1.00  0.00     0.249 C 
HETATM    6  O1  UNL     1      22.714   4.691  47.837  1.00  0.00    -0.270 OA
HETATM    7  N5  UNL     1      20.582   4.017  48.011  1.00  0.00    -0.353 N 
HETATM    8  C20 UNL     1      19.497   3.528  48.852  1.00  0.00     0.179 C 
HETATM    9  H25 UNL     1      20.465   3.944  46.966  1.00  0.00     0.162 HD
ENDROOT
BRANCH   3  10
HETATM   10  N2  UNL     1      22.880   5.111  50.729  1.00  0.00    -0.369 N 
HETATM   11  H11 UNL     1      23.259   6.105  50.805  1.00  0.00     0.161 HD
BRANCH  10  12
HETATM   12  C9  UNL     1      23.768   4.127  51.296  1.00  0.00     0.029 A 
HETATM   13  C10 UNL     1      24.636   3.349  50.524  1.00  0.00     0.031 A 
HETATM   14  C11 UNL     1      25.428   2.439  51.191  1.00  0.00     0.031 A 
HETATM   15  C12 UNL     1      25.429   2.239  52.555  1.00  0.00     0.031 A 
HETATM   16  C17 UNL     1      24.581   2.998  53.319  1.00  0.00     0.031 A 
HETATM   17  C18 UNL     1      23.769   3.926  52.675  1.00  0.00     0.031 A 
BRANCH  15  18
HETATM   18  N3  UNL     1      26.290   1.270  53.142  1.00  0.00    -0.354 N 
HETATM   19  C13 UNL     1      26.101   0.589  54.420  1.00  0.00     0.155 C 
HETATM   20  C14 UNL     1      27.472   0.134  54.797  1.00  0.00     0.293 C 
HETATM   21  N4  UNL     1      28.363   0.523  53.732  1.00  0.00     0.103 N 
HETATM   22  C15 UNL     1      29.105   1.695  54.105  1.00  0.00     0.312 C 
HETATM   23  C16 UNL     1      27.527   0.779  52.572  1.00  0.00     0.397 C 
ENDBRANCH  15  18
ENDBRANCH  10  12
ENDBRANCH   3  10
BRANCH   1  24
HETATM   24  N1  UNL     1      19.489   1.871  50.832  1.00  0.00    -0.388 N 
HETATM   25  H6  UNL     1      18.891   2.482  51.466  1.00  0.00     0.159 HD
BRANCH  24  26
HETATM   26  C4  UNL     1      19.419   0.455  51.061  1.00  0.00     0.154 C 
BRANCH  26  27
HETATM   27  C3  UNL     1      20.324  -0.020  52.125  1.00  0.00    -0.056 A 
HETATM   28  C2  UNL     1      19.777  -0.661  53.125  1.00  0.00    -0.058 A 
HETATM   29  C1  UNL     1      18.325  -0.905  53.199  1.00  0.00     0.048 C 
HETATM   30  C24 UNL     1      20.685  -1.115  54.161  1.00  0.00     0.003 A 
HETATM   31  C23 UNL     1      21.934  -0.789  53.897  1.00  0.00    -0.026 A 
HETATM   32  C22 UNL     1      22.655  -0.080  52.821  1.00  0.00     0.031 A 
HETATM   33  C21 UNL     1      21.699   0.380  51.755  1.00  0.00     0.040 A 
ENDBRANCH  26  27
ENDBRANCH  24  26
ENDBRANCH   1  24
TORSDOF 6
ENDMDL
