MODEL 1
REMARK VINA RESULT:      -6.9      0.000      0.000
REMARK  6 active torsions:
REMARK  status: ('A' for Active; 'I' for Inactive)
REMARK    1  A    between atoms: O1_2  and  C2_3 
REMARK    2  A    between atoms: C2_3  and  C3_4 
REMARK    3  A    between atoms: C3_4  and  C4_5 
REMARK    4  A    between atoms: C6_9  and  P1_10 
REMARK    5  A    between atoms: P1_10  and  N3_11 
REMARK    6  A    between atoms: N3_11  and  C8_13 
ROOT
HETATM    1  C4  UNL     1      24.995   0.222  53.084  1.00  0.00     0.046 A 
HETATM    2  N1  UNL     1      23.741  -0.058  53.539  1.00  0.00    -0.246 NA
HETATM    3  C5  UNL     1      22.654   0.520  52.989  1.00  0.00     0.234 A 
HETATM    4  N2  UNL     1      22.755   1.401  51.962  1.00  0.00    -0.239 NA
HETATM    5  C6  UNL     1      23.987   1.707  51.481  1.00  0.00     0.087 A 
HETATM    6  C14 UNL     1      25.096   1.118  52.041  1.00  0.00    -0.006 A 
HETATM    7  C15 UNL     1      26.410   1.471  51.500  1.00  0.00     0.053 C 
ENDROOT
BRANCH   5   8
HETATM    8  P1  UNL     1      23.981   2.885  50.124  1.00  0.00     0.027 P 
HETATM    9  H9  UNL     1      22.917   2.779  49.188  1.00  0.00     0.087 HD
BRANCH   8  10
HETATM   10  N3  UNL     1      24.491   4.525  50.541  1.00  0.00    -0.357 N 
HETATM   11  C7  UNL     1      23.865   5.348  51.547  1.00  0.00     0.155 C 
BRANCH  10  12
HETATM   12  C8  UNL     1      25.600   5.076  49.838  1.00  0.00     0.035 A 
HETATM   13  C9  UNL     1      26.619   4.328  49.287  1.00  0.00     0.029 A 
HETATM   14  C10 UNL     1      27.689   4.869  48.606  1.00  0.00     0.004 A 
HETATM   15  C11 UNL     1      27.774   6.250  48.451  1.00  0.00     0.024 A 
HETATM   16  C12 UNL     1      26.796   7.042  48.976  1.00  0.00     0.036 A 
HETATM   17 CL1  UNL     1      26.790   8.792  48.846  1.00  0.00    -0.084 Cl
HETATM   18  C13 UNL     1      25.748   6.453  49.646  1.00  0.00     0.053 A 
ENDBRANCH  10  12
ENDBRANCH   8  10
ENDBRANCH   5   8
BRANCH   1  19
HETATM   19  C3  UNL     1      26.166  -0.431  53.710  1.00  0.00     0.086 C 
BRANCH  19  20
HETATM   20  C2  UNL     1      26.593   0.204  54.987  1.00  0.00     0.173 C 
BRANCH  20  21
HETATM   21  O1  UNL     1      27.775   0.901  54.954  1.00  0.00    -0.396 OA
HETATM   22  C1  UNL     1      28.865   0.155  54.534  1.00  0.00     0.201 C 
ENDBRANCH  20  21
ENDBRANCH  19  20
ENDBRANCH   1  19
TORSDOF 6
ENDMDL
MODEL 2
REMARK VINA RESULT:      -6.8      1.550      2.143
REMARK  6 active torsions:
REMARK  status: ('A' for Active; 'I' for Inactive)
REMARK    1  A    between atoms: O1_2  and  C2_3 
REMARK    2  A    between atoms: C2_3  and  C3_4 
REMARK    3  A    between atoms: C3_4  and  C4_5 
REMARK    4  A    between atoms: C6_9  and  P1_10 
REMARK    5  A    between atoms: P1_10  and  N3_11 
REMARK    6  A    between atoms: N3_11  and  C8_13 
ROOT
HETATM    1  C4  UNL     1      26.538  -0.177  53.298  1.00  0.00     0.046 A 
HETATM    2  N1  UNL     1      25.691  -0.828  54.146  1.00  0.00    -0.246 NA
HETATM    3  C5  UNL     1      24.360  -0.619  54.100  1.00  0.00     0.234 A 
HETATM    4  N2  UNL     1      23.802   0.242  53.212  1.00  0.00    -0.239 NA
HETATM    5  C6  UNL     1      24.612   0.909  52.350  1.00  0.00     0.087 A 
HETATM    6  C14 UNL     1      25.970   0.697  52.397  1.00  0.00    -0.006 A 
HETATM    7  C15 UNL     1      26.814   1.434  51.456  1.00  0.00     0.053 C 
ENDROOT
BRANCH   5   8
HETATM    8  P1  UNL     1      23.749   2.018  51.230  1.00  0.00     0.027 P 
HETATM    9  H9  UNL     1      22.474   1.594  50.765  1.00  0.00     0.087 HD
BRANCH   8  10
HETATM   10  N3  UNL     1      23.913   3.740  51.589  1.00  0.00    -0.357 N 
HETATM   11  C7  UNL     1      23.566   4.352  52.848  1.00  0.00     0.155 C 
BRANCH  10  12
HETATM   12  C8  UNL     1      24.426   4.587  50.566  1.00  0.00     0.035 A 
HETATM   13  C9  UNL     1      23.722   5.626  49.994  1.00  0.00     0.029 A 
HETATM   14  C10 UNL     1      24.226   6.443  49.004  1.00  0.00     0.004 A 
HETATM   15  C11 UNL     1      25.519   6.231  48.533  1.00  0.00     0.024 A 
HETATM   16  C12 UNL     1      26.264   5.217  49.060  1.00  0.00     0.036 A 
HETATM   17 CL1  UNL     1      27.903   4.851  48.553  1.00  0.00    -0.084 Cl
HETATM   18  C13 UNL     1      25.715   4.430  50.048  1.00  0.00     0.053 A 
ENDBRANCH  10  12
ENDBRANCH   8  10
ENDBRANCH   5   8
BRANCH   1  19
HETATM   19  C3  UNL     1      27.993  -0.432  53.377  1.00  0.00     0.086 C 
BRANCH  19  20
HETATM   20  C2  UNL     1      28.601  -0.028  54.674  1.00  0.00     0.173 C 
BRANCH  20  21
HETATM   21  O1  UNL     1      28.525   1.306  54.993  1.00  0.00    -0.396 OA
HETATM   22  C1  UNL     1      29.218   2.138  54.128  1.00  0.00     0.201 C 
ENDBRANCH  20  21
ENDBRANCH  19  20
ENDBRANCH   1  19
TORSDOF 6
ENDMDL
MODEL 3
REMARK VINA RESULT:      -6.7      1.283      1.845
REMARK  6 active torsions:
REMARK  status: ('A' for Active; 'I' for Inactive)
REMARK    1  A    between atoms: O1_2  and  C2_3 
REMARK    2  A    between atoms: C2_3  and  C3_4 
REMARK    3  A    between atoms: C3_4  and  C4_5 
REMARK    4  A    between atoms: C6_9  and  P1_10 
REMARK    5  A    between atoms: P1_10  and  N3_11 
REMARK    6  A    between atoms: N3_11  and  C8_13 
ROOT
HETATM    1  C4  UNL     1      25.509   0.056  53.145  1.00  0.00     0.046 A 
HETATM    2  N1  UNL     1      24.442  -0.597  53.687  1.00  0.00    -0.246 NA
HETATM    3  C5  UNL     1      23.180  -0.295  53.321  1.00  0.00     0.234 A 
HETATM    4  N2  UNL     1      22.912   0.666  52.401  1.00  0.00    -0.239 NA
HETATM    5  C6  UNL     1      23.948   1.339  51.838  1.00  0.00     0.087 A 
HETATM    6  C14 UNL     1      25.235   1.032  52.211  1.00  0.00    -0.006 A 
HETATM    7  C15 UNL     1      26.329   1.779  51.587  1.00  0.00     0.053 C 
ENDROOT
BRANCH   5   8
HETATM    8  P1  UNL     1      23.457   2.584  50.639  1.00  0.00     0.027 P 
HETATM    9  H9  UNL     1      22.498   2.193  49.665  1.00  0.00     0.087 HD
BRANCH   8  10
HETATM   10  N3  UNL     1      23.301   4.227  51.270  1.00  0.00    -0.357 N 
HETATM   11  C7  UNL     1      22.332   4.638  52.257  1.00  0.00     0.155 C 
BRANCH  10  12
HETATM   12  C8  UNL     1      24.195   5.219  50.774  1.00  0.00     0.035 A 
HETATM   13  C9  UNL     1      24.070   6.569  51.022  1.00  0.00     0.029 A 
HETATM   14  C10 UNL     1      24.941   7.524  50.539  1.00  0.00     0.004 A 
HETATM   15  C11 UNL     1      26.018   7.130  49.750  1.00  0.00     0.024 A 
HETATM   16  C12 UNL     1      26.193   5.807  49.470  1.00  0.00     0.036 A 
HETATM   17 CL1  UNL     1      27.510   5.188  48.491  1.00  0.00    -0.084 Cl
HETATM   18  C13 UNL     1      25.297   4.894  49.977  1.00  0.00     0.053 A 
ENDBRANCH  10  12
ENDBRANCH   8  10
ENDBRANCH   5   8
BRANCH   1  19
HETATM   19  C3  UNL     1      26.881  -0.302  53.569  1.00  0.00     0.086 C 
BRANCH  19  20
HETATM   20  C2  UNL     1      27.256   0.245  54.901  1.00  0.00     0.173 C 
BRANCH  20  21
HETATM   21  O1  UNL     1      28.486   0.849  54.987  1.00  0.00    -0.396 OA
HETATM   22  C1  UNL     1      29.322   0.594  53.912  1.00  0.00     0.201 C 
ENDBRANCH  20  21
ENDBRANCH  19  20
ENDBRANCH   1  19
TORSDOF 6
ENDMDL
MODEL 4
REMARK VINA RESULT:      -6.6      3.586      6.504
REMARK  6 active torsions:
REMARK  status: ('A' for Active; 'I' for Inactive)
REMARK    1  A    between atoms: O1_2  and  C2_3 
REMARK    2  A    between atoms: C2_3  and  C3_4 
REMARK    3  A    between atoms: C3_4  and  C4_5 
REMARK    4  A    between atoms: C6_9  and  P1_10 
REMARK    5  A    between atoms: P1_10  and  N3_11 
REMARK    6  A    between atoms: N3_11  and  C8_13 
ROOT
HETATM    1  C4  UNL     1      26.359   2.082  51.498  1.00  0.00     0.046 A 
HETATM    2  N1  UNL     1      26.835   2.794  50.437  1.00  0.00    -0.246 NA
HETATM    3  C5  UNL     1      26.002   3.474  49.624  1.00  0.00     0.234 A 
HETATM    4  N2  UNL     1      24.659   3.483  49.822  1.00  0.00    -0.239 NA
HETATM    5  C6  UNL     1      24.147   2.785  50.868  1.00  0.00     0.087 A 
HETATM    6  C14 UNL     1      24.996   2.091  51.697  1.00  0.00    -0.006 A 
HETATM    7  C15 UNL     1      24.411   1.347  52.814  1.00  0.00     0.053 C 
ENDROOT
BRANCH   5   8
HETATM    8  P1  UNL     1      22.358   2.879  51.016  1.00  0.00     0.027 P 
HETATM    9  H9  UNL     1      21.762   4.148  50.785  1.00  0.00     0.087 HD
BRANCH   8  10
HETATM   10  N3  UNL     1      21.472   1.478  50.404  1.00  0.00    -0.357 N 
HETATM   11  C7  UNL     1      21.493   1.029  49.033  1.00  0.00     0.155 C 
BRANCH  10  12
HETATM   12  C8  UNL     1      20.680   0.736  51.326  1.00  0.00     0.035 A 
HETATM   13  C9  UNL     1      19.331   0.493  51.171  1.00  0.00     0.029 A 
HETATM   14  C10 UNL     1      18.571  -0.227  52.068  1.00  0.00     0.004 A 
HETATM   15  C11 UNL     1      19.173  -0.752  53.209  1.00  0.00     0.024 A 
HETATM   16  C12 UNL     1      20.505  -0.543  53.417  1.00  0.00     0.036 A 
HETATM   17 CL1  UNL     1      21.377  -1.153  54.812  1.00  0.00    -0.084 Cl
HETATM   18  C13 UNL     1      21.220   0.182  52.491  1.00  0.00     0.053 A 
ENDBRANCH  10  12
ENDBRANCH   8  10
ENDBRANCH   5   8
BRANCH   1  19
HETATM   19  C3  UNL     1      27.303   1.348  52.370  1.00  0.00     0.086 C 
BRANCH  19  20
HETATM   20  C2  UNL     1      28.079   2.229  53.286  1.00  0.00     0.173 C 
BRANCH  20  21
HETATM   21  O1  UNL     1      28.232   1.783  54.575  1.00  0.00    -0.396 OA
HETATM   22  C1  UNL     1      28.702   0.484  54.676  1.00  0.00     0.201 C 
ENDBRANCH  20  21
ENDBRANCH  19  20
ENDBRANCH   1  19
TORSDOF 6
ENDMDL
MODEL 5
REMARK VINA RESULT:      -6.3      4.028      6.735
REMARK  6 active torsions:
REMARK  status: ('A' for Active; 'I' for Inactive)
REMARK    1  A    between atoms: O1_2  and  C2_3 
REMARK    2  A    between atoms: C2_3  and  C3_4 
REMARK    3  A    between atoms: C3_4  and  C4_5 
REMARK    4  A    between atoms: C6_9  and  P1_10 
REMARK    5  A    between atoms: P1_10  and  N3_11 
REMARK    6  A    between atoms: N3_11  and  C8_13 
ROOT
HETATM    1  C4  UNL     1      26.190   0.570  52.385  1.00  0.00     0.046 A 
HETATM    2  N1  UNL     1      26.859   1.468  51.607  1.00  0.00    -0.246 NA
HETATM    3  C5  UNL     1      26.213   2.487  51.007  1.00  0.00     0.234 A 
HETATM    4  N2  UNL     1      24.875   2.669  51.147  1.00  0.00    -0.239 NA
HETATM    5  C6  UNL     1      24.174   1.795  51.914  1.00  0.00     0.087 A 
HETATM    6  C14 UNL     1      24.832   0.754  52.527  1.00  0.00    -0.006 A 
HETATM    7  C15 UNL     1      24.046  -0.171  53.344  1.00  0.00     0.053 C 
ENDROOT
BRANCH   5   8
HETATM    8  P1  UNL     1      22.415   2.146  52.017  1.00  0.00     0.027 P 
HETATM    9  H9  UNL     1      22.040   3.512  52.141  1.00  0.00     0.087 HD
BRANCH   8  10
HETATM   10  N3  UNL     1      21.380   1.145  50.992  1.00  0.00    -0.357 N 
HETATM   11  C7  UNL     1      21.543   0.985  49.568  1.00  0.00     0.155 C 
BRANCH  10  12
HETATM   12  C8  UNL     1      20.308   0.442  51.614  1.00  0.00     0.035 A 
HETATM   13  C9  UNL     1      20.383  -0.142  52.861  1.00  0.00     0.029 A 
HETATM   14  C10 UNL     1      19.341  -0.820  53.456  1.00  0.00     0.004 A 
HETATM   15  C11 UNL     1      18.128  -0.939  52.783  1.00  0.00     0.024 A 
HETATM   16  C12 UNL     1      17.994  -0.382  51.546  1.00  0.00     0.036 A 
HETATM   17 CL1  UNL     1      16.519  -0.462  50.599  1.00  0.00    -0.084 Cl
HETATM   18  C13 UNL     1      19.064   0.286  50.995  1.00  0.00     0.053 A 
ENDBRANCH  10  12
ENDBRANCH   8  10
ENDBRANCH   5   8
BRANCH   1  19
HETATM   19  C3  UNL     1      26.932  -0.537  53.030  1.00  0.00     0.086 C 
BRANCH  19  20
HETATM   20  C2  UNL     1      27.654  -0.130  54.267  1.00  0.00     0.173 C 
BRANCH  20  21
HETATM   21  O1  UNL     1      28.945   0.309  54.102  1.00  0.00    -0.396 OA
HETATM   22  C1  UNL     1      29.792  -0.621  53.522  1.00  0.00     0.201 C 
ENDBRANCH  20  21
ENDBRANCH  19  20
ENDBRANCH   1  19
TORSDOF 6
ENDMDL
MODEL 6
REMARK VINA RESULT:      -6.3      3.419      5.512
REMARK  6 active torsions:
REMARK  status: ('A' for Active; 'I' for Inactive)
REMARK    1  A    between atoms: O1_2  and  C2_3 
REMARK    2  A    between atoms: C2_3  and  C3_4 
REMARK    3  A    between atoms: C3_4  and  C4_5 
REMARK    4  A    between atoms: C6_9  and  P1_10 
REMARK    5  A    between atoms: P1_10  and  N3_11 
REMARK    6  A    between atoms: N3_11  and  C8_13 
ROOT
HETATM    1  C4  UNL     1      26.285   2.449  51.449  1.00  0.00     0.046 A 
HETATM    2  N1  UNL     1      26.814   2.851  50.258  1.00  0.00    -0.246 NA
HETATM    3  C5  UNL     1      26.243   3.836  49.538  1.00  0.00     0.234 A 
HETATM    4  N2  UNL     1      25.120   4.472  49.961  1.00  0.00    -0.239 NA
HETATM    5  C6  UNL     1      24.563   4.100  51.142  1.00  0.00     0.087 A 
HETATM    6  C14 UNL     1      25.146   3.095  51.877  1.00  0.00    -0.006 A 
HETATM    7  C15 UNL     1      24.518   2.716  53.144  1.00  0.00     0.053 C 
ENDROOT
BRANCH   5   8
HETATM    8  P1  UNL     1      23.083   5.018  51.584  1.00  0.00     0.027 P 
HETATM    9  H9  UNL     1      23.157   6.435  51.493  1.00  0.00     0.087 HD
BRANCH   8  10
HETATM   10  N3  UNL     1      21.556   4.284  51.084  1.00  0.00    -0.357 N 
HETATM   11  C7  UNL     1      20.439   5.010  50.531  1.00  0.00     0.155 C 
BRANCH  10  12
HETATM   12  C8  UNL     1      21.414   2.875  51.235  1.00  0.00     0.035 A 
HETATM   13  C9  UNL     1      21.557   1.967  50.207  1.00  0.00     0.029 A 
HETATM   14  C10 UNL     1      21.419   0.603  50.361  1.00  0.00     0.004 A 
HETATM   15  C11 UNL     1      21.117   0.083  51.617  1.00  0.00     0.024 A 
HETATM   16  C12 UNL     1      20.964   0.933  52.672  1.00  0.00     0.036 A 
HETATM   17 CL1  UNL     1      20.586   0.401  54.301  1.00  0.00    -0.084 Cl
HETATM   18  C13 UNL     1      21.113   2.286  52.467  1.00  0.00     0.053 A 
ENDBRANCH  10  12
ENDBRANCH   8  10
ENDBRANCH   5   8
BRANCH   1  19
HETATM   19  C3  UNL     1      26.941   1.364  52.214  1.00  0.00     0.086 C 
BRANCH  19  20
HETATM   20  C2  UNL     1      28.006   1.844  53.136  1.00  0.00     0.173 C 
BRANCH  20  21
HETATM   21  O1  UNL     1      27.904   1.441  54.445  1.00  0.00    -0.396 OA
HETATM   22  C1  UNL     1      27.040   0.377  54.648  1.00  0.00     0.201 C 
ENDBRANCH  20  21
ENDBRANCH  19  20
ENDBRANCH   1  19
TORSDOF 6
ENDMDL
MODEL 7
REMARK VINA RESULT:      -6.1      3.460      7.124
REMARK  6 active torsions:
REMARK  status: ('A' for Active; 'I' for Inactive)
REMARK    1  A    between atoms: O1_2  and  C2_3 
REMARK    2  A    between atoms: C2_3  and  C3_4 
REMARK    3  A    between atoms: C3_4  and  C4_5 
REMARK    4  A    between atoms: C6_9  and  P1_10 
REMARK    5  A    between atoms: P1_10  and  N3_11 
REMARK    6  A    between atoms: N3_11  and  C8_13 
ROOT
HETATM    1  C4  UNL     1      26.793   6.066  48.545  1.00  0.00     0.046 A 
HETATM    2  N1  UNL     1      26.086   7.181  48.206  1.00  0.00    -0.246 NA
HETATM    3  C5  UNL     1      24.748   7.233  48.363  1.00  0.00     0.234 A 
HETATM    4  N2  UNL     1      24.045   6.185  48.863  1.00  0.00    -0.239 NA
HETATM    5  C6  UNL     1      24.714   5.056  49.212  1.00  0.00     0.087 A 
HETATM    6  C14 UNL     1      26.079   5.002  49.052  1.00  0.00    -0.006 A 
HETATM    7  C15 UNL     1      26.768   3.769  49.436  1.00  0.00     0.053 C 
ENDROOT
BRANCH   5   8
HETATM    8  P1  UNL     1      23.668   3.746  49.859  1.00  0.00     0.027 P 
HETATM    9  H9  UNL     1      23.631   2.532  49.119  1.00  0.00     0.087 HD
BRANCH   8  10
HETATM   10  N3  UNL     1      23.651   3.587  51.619  1.00  0.00    -0.357 N 
HETATM   11  C7  UNL     1      23.448   4.679  52.539  1.00  0.00     0.155 C 
BRANCH  10  12
HETATM   12  C8  UNL     1      23.849   2.290  52.172  1.00  0.00     0.035 A 
HETATM   13  C9  UNL     1      22.903   1.606  52.905  1.00  0.00     0.029 A 
HETATM   14  C10 UNL     1      23.102   0.349  53.437  1.00  0.00     0.004 A 
HETATM   15  C11 UNL     1      24.322  -0.293  53.238  1.00  0.00     0.024 A 
HETATM   16  C12 UNL     1      25.297   0.334  52.521  1.00  0.00     0.036 A 
HETATM   17 CL1  UNL     1      26.872  -0.370  52.200  1.00  0.00    -0.084 Cl
HETATM   18  C13 UNL     1      25.048   1.588  52.010  1.00  0.00     0.053 A 
ENDBRANCH  10  12
ENDBRANCH   8  10
ENDBRANCH   5   8
BRANCH   1  19
HETATM   19  C3  UNL     1      28.261   6.045  48.360  1.00  0.00     0.086 C 
BRANCH  19  20
HETATM   20  C2  UNL     1      28.834   7.363  47.973  1.00  0.00     0.173 C 
BRANCH  20  21
HETATM   21  O1  UNL     1      29.562   8.017  48.936  1.00  0.00    -0.396 OA
HETATM   22  C1  UNL     1      29.089   9.282  49.247  1.00  0.00     0.201 C 
ENDBRANCH  20  21
ENDBRANCH  19  20
ENDBRANCH   1  19
TORSDOF 6
ENDMDL
MODEL 8
REMARK VINA RESULT:      -6.1      2.729      3.787
REMARK  6 active torsions:
REMARK  status: ('A' for Active; 'I' for Inactive)
REMARK    1  A    between atoms: O1_2  and  C2_3 
REMARK    2  A    between atoms: C2_3  and  C3_4 
REMARK    3  A    between atoms: C3_4  and  C4_5 
REMARK    4  A    between atoms: C6_9  and  P1_10 
REMARK    5  A    between atoms: P1_10  and  N3_11 
REMARK    6  A    between atoms: N3_11  and  C8_13 
ROOT
HETATM    1  C4  UNL     1      26.133  -0.083  52.931  1.00  0.00     0.046 A 
HETATM    2  N1  UNL     1      25.188  -0.873  53.517  1.00  0.00    -0.246 NA
HETATM    3  C5  UNL     1      23.942  -0.414  53.748  1.00  0.00     0.234 A 
HETATM    4  N2  UNL     1      23.569   0.848  53.411  1.00  0.00    -0.239 NA
HETATM    5  C6  UNL     1      24.483   1.664  52.827  1.00  0.00     0.087 A 
HETATM    6  C14 UNL     1      25.754   1.197  52.590  1.00  0.00    -0.006 A 
HETATM    7  C15 UNL     1      26.715   2.104  51.960  1.00  0.00     0.053 C 
ENDROOT
BRANCH   5   8
HETATM    8  P1  UNL     1      23.864   3.305  52.433  1.00  0.00     0.027 P 
HETATM    9  H9  UNL     1      24.145   4.337  53.369  1.00  0.00     0.087 HD
BRANCH   8  10
HETATM   10  N3  UNL     1      23.946   3.757  50.726  1.00  0.00    -0.357 N 
HETATM   11  C7  UNL     1      24.799   4.790  50.192  1.00  0.00     0.155 C 
BRANCH  10  12
HETATM   12  C8  UNL     1      23.113   3.054  49.810  1.00  0.00     0.035 A 
HETATM   13  C9  UNL     1      22.425   1.899  50.118  1.00  0.00     0.029 A 
HETATM   14  C10 UNL     1      21.619   1.223  49.225  1.00  0.00     0.004 A 
HETATM   15  C11 UNL     1      21.473   1.712  47.930  1.00  0.00     0.024 A 
HETATM   16  C12 UNL     1      22.130   2.850  47.567  1.00  0.00     0.036 A 
HETATM   17 CL1  UNL     1      22.025   3.565  45.968  1.00  0.00    -0.084 Cl
HETATM   18  C13 UNL     1      22.921   3.488  48.495  1.00  0.00     0.053 A 
ENDBRANCH  10  12
ENDBRANCH   8  10
ENDBRANCH   5   8
BRANCH   1  19
HETATM   19  C3  UNL     1      27.490  -0.621  52.691  1.00  0.00     0.086 C 
BRANCH  19  20
HETATM   20  C2  UNL     1      28.395  -0.508  53.868  1.00  0.00     0.173 C 
BRANCH  20  21
HETATM   21  O1  UNL     1      29.449   0.364  53.744  1.00  0.00    -0.396 OA
HETATM   22  C1  UNL     1      29.303   1.540  54.460  1.00  0.00     0.201 C 
ENDBRANCH  20  21
ENDBRANCH  19  20
ENDBRANCH   1  19
TORSDOF 6
ENDMDL
MODEL 9
REMARK VINA RESULT:      -6.1      4.203      6.538
REMARK  6 active torsions:
REMARK  status: ('A' for Active; 'I' for Inactive)
REMARK    1  A    between atoms: O1_2  and  C2_3 
REMARK    2  A    between atoms: C2_3  and  C3_4 
REMARK    3  A    between atoms: C3_4  and  C4_5 
REMARK    4  A    between atoms: C6_9  and  P1_10 
REMARK    5  A    between atoms: P1_10  and  N3_11 
REMARK    6  A    between atoms: N3_11  and  C8_13 
ROOT
HETATM    1  C4  UNL     1      21.031   1.045  52.272  1.00  0.00     0.046 A 
HETATM    2  N1  UNL     1      21.319  -0.234  52.644  1.00  0.00    -0.246 NA
HETATM    3  C5  UNL     1      22.548  -0.575  53.078  1.00  0.00     0.234 A 
HETATM    4  N2  UNL     1      23.554   0.333  53.165  1.00  0.00    -0.239 NA
HETATM    5  C6  UNL     1      23.307   1.618  52.803  1.00  0.00     0.087 A 
HETATM    6  C14 UNL     1      22.053   1.966  52.361  1.00  0.00    -0.006 A 
HETATM    7  C15 UNL     1      21.821   3.360  51.976  1.00  0.00     0.053 C 
ENDROOT
BRANCH   5   8
HETATM    8  P1  UNL     1      24.720   2.717  52.964  1.00  0.00     0.027 P 
HETATM    9  H9  UNL     1      24.977   3.244  54.259  1.00  0.00     0.087 HD
BRANCH   8  10
HETATM   10  N3  UNL     1      26.138   2.276  52.007  1.00  0.00    -0.357 N 
HETATM   11  C7  UNL     1      26.403   2.747  50.669  1.00  0.00     0.155 C 
BRANCH  10  12
HETATM   12  C8  UNL     1      27.090   1.394  52.594  1.00  0.00     0.035 A 
HETATM   13  C9  UNL     1      28.166   1.807  53.350  1.00  0.00     0.029 A 
HETATM   14  C10 UNL     1      29.083   0.947  53.917  1.00  0.00     0.004 A 
HETATM   15  C11 UNL     1      28.941  -0.425  53.731  1.00  0.00     0.024 A 
HETATM   16  C12 UNL     1      27.895  -0.893  52.992  1.00  0.00     0.036 A 
HETATM   17 CL1  UNL     1      27.606  -2.597  52.688  1.00  0.00    -0.084 Cl
HETATM   18  C13 UNL     1      27.006   0.006  52.448  1.00  0.00     0.053 A 
ENDBRANCH  10  12
ENDBRANCH   8  10
ENDBRANCH   5   8
BRANCH   1  19
HETATM   19  C3  UNL     1      19.669   1.384  51.803  1.00  0.00     0.086 C 
BRANCH  19  20
HETATM   20  C2  UNL     1      19.406   0.981  50.394  1.00  0.00     0.173 C 
BRANCH  20  21
HETATM   21  O1  UNL     1      19.849   1.843  49.421  1.00  0.00    -0.396 OA
HETATM   22  C1  UNL     1      18.854   2.622  48.854  1.00  0.00     0.201 C 
ENDBRANCH  20  21
ENDBRANCH  19  20
ENDBRANCH   1  19
TORSDOF 6
ENDMDL
