MODEL 1
REMARK VINA RESULT:      -8.3      0.000      0.000
REMARK  8 active torsions:
REMARK  status: ('A' for Active; 'I' for Inactive)
REMARK    1  A    between atoms: C2_2  and  C3_3 
REMARK    2  A    between atoms: C4_4  and  C5_5 
REMARK    3  A    between atoms: C4_4  and  N1_11 
REMARK    4  A    between atoms: C6_6  and  C7_7 
REMARK       I    between atoms: N1_11  and  C8_12 
REMARK    5  A    between atoms: C8_12  and  C9_14 
REMARK    6  A    between atoms: C14_19  and  N2_20 
REMARK    7  A    between atoms: N2_20  and  C15_21 
REMARK    8  A    between atoms: C15_21  and  C16_22 
ROOT
HETATM    1  C9  UNL     1      24.290   3.122  50.622  1.00  0.00     0.058 A 
HETATM    2  C10 UNL     1      24.238   4.192  49.780  1.00  0.00     0.019 A 
HETATM    3  C11 UNL     1      25.349   4.697  49.167  1.00  0.00     0.001 A 
HETATM    4  C12 UNL     1      26.575   4.108  49.401  1.00  0.00     0.002 A 
HETATM    5  C13 UNL     1      26.607   3.029  50.254  1.00  0.00     0.030 A 
HETATM    6  C14 UNL     1      25.495   2.514  50.875  1.00  0.00     0.044 A 
ENDROOT
BRANCH   1   7
HETATM    7  C8  UNL     1      23.079   2.632  51.242  1.00  0.00     0.258 C 
HETATM    8  N1  UNL     1      22.546   1.371  50.859  1.00  0.00    -0.323 N 
HETATM    9  H7  UNL     1      22.934   0.695  50.135  1.00  0.00     0.169 HD
HETATM   10  O1  UNL     1      22.245   2.982  52.100  1.00  0.00    -0.267 OA
BRANCH   8  11
HETATM   11  C4  UNL     1      21.353   0.772  51.400  1.00  0.00     0.035 C 
HETATM   12  C3  UNL     1      20.230   0.837  50.715  1.00  0.00     0.029 C 
BRANCH  12  13
HETATM   13  C2  UNL     1      19.013   0.241  51.233  1.00  0.00    -0.008 C 
HETATM   14  C1  UNL     1      17.932   0.168  50.489  1.00  0.00     0.011 C 
ENDBRANCH  12  13
BRANCH  11  15
HETATM   15  C5  UNL     1      21.490   0.124  52.697  1.00  0.00     0.034 C 
HETATM   16  C6  UNL     1      22.505  -0.473  53.282  1.00  0.00     0.091 C 
BRANCH  16  17
HETATM   17  C7  UNL     1      22.502  -1.092  54.611  1.00  0.00     0.408 C 
HETATM   18  F1  UNL     1      23.758  -1.164  55.202  1.00  0.00    -0.167 F 
HETATM   19  F2  UNL     1      21.952  -2.346  54.663  1.00  0.00    -0.167 F 
HETATM   20  F3  UNL     1      21.753  -0.282  55.452  1.00  0.00    -0.167 F 
ENDBRANCH  16  17
ENDBRANCH  11  15
ENDBRANCH   8  11
ENDBRANCH   1   7
BRANCH   6  21
HETATM   21  N2  UNL     1      25.708   1.396  51.710  1.00  0.00    -0.385 N 
HETATM   22  H12 UNL     1      25.392   0.525  51.255  1.00  0.00     0.160 HD
BRANCH  21  23
HETATM   23  C15 UNL     1      26.234   1.122  53.006  1.00  0.00     0.158 C 
BRANCH  23  24
HETATM   24  C16 UNL     1      27.187  -0.001  53.089  1.00  0.00    -0.038 A 
HETATM   25  C17 UNL     1      28.483  -0.132  53.505  1.00  0.00     0.028 A 
HETATM   26  C18 UNL     1      29.134  -1.344  53.491  1.00  0.00     0.116 A 
HETATM   27  N3  UNL     1      28.562  -2.481  53.072  1.00  0.00    -0.273 NA
HETATM   28  C19 UNL     1      27.290  -2.407  52.653  1.00  0.00     0.116 A 
HETATM   29  C20 UNL     1      26.609  -1.208  52.655  1.00  0.00     0.028 A 
ENDBRANCH  23  24
ENDBRANCH  21  23
ENDBRANCH   6  21
TORSDOF 8
ENDMDL
MODEL 2
REMARK VINA RESULT:      -8.3      2.565      5.829
REMARK  8 active torsions:
REMARK  status: ('A' for Active; 'I' for Inactive)
REMARK    1  A    between atoms: C2_2  and  C3_3 
REMARK    2  A    between atoms: C4_4  and  C5_5 
REMARK    3  A    between atoms: C4_4  and  N1_11 
REMARK    4  A    between atoms: C6_6  and  C7_7 
REMARK       I    between atoms: N1_11  and  C8_12 
REMARK    5  A    between atoms: C8_12  and  C9_14 
REMARK    6  A    between atoms: C14_19  and  N2_20 
REMARK    7  A    between atoms: N2_20  and  C15_21 
REMARK    8  A    between atoms: C15_21  and  C16_22 
ROOT
HETATM    1  C9  UNL     1      23.734   4.072  51.881  1.00  0.00     0.058 A 
HETATM    2  C10 UNL     1      22.428   4.332  52.171  1.00  0.00     0.019 A 
HETATM    3  C11 UNL     1      21.742   5.364  51.598  1.00  0.00     0.001 A 
HETATM    4  C12 UNL     1      22.386   6.181  50.691  1.00  0.00     0.002 A 
HETATM    5  C13 UNL     1      23.704   5.903  50.411  1.00  0.00     0.030 A 
HETATM    6  C14 UNL     1      24.402   4.866  50.982  1.00  0.00     0.044 A 
ENDROOT
BRANCH   1   7
HETATM    7  C8  UNL     1      24.409   2.963  52.519  1.00  0.00     0.258 C 
HETATM    8  N1  UNL     1      24.386   1.676  51.914  1.00  0.00    -0.323 N 
HETATM    9  H7  UNL     1      23.915   1.395  51.004  1.00  0.00     0.169 HD
HETATM   10  O1  UNL     1      25.081   2.724  53.541  1.00  0.00    -0.267 OA
BRANCH   8  11
HETATM   11  C4  UNL     1      25.018   0.496  52.445  1.00  0.00     0.035 C 
HETATM   12  C3  UNL     1      26.276   0.246  52.143  1.00  0.00     0.029 C 
BRANCH  12  13
HETATM   13  C2  UNL     1      26.941  -0.933  52.665  1.00  0.00    -0.008 C 
HETATM   14  C1  UNL     1      28.133  -0.845  53.211  1.00  0.00     0.011 C 
ENDBRANCH  12  13
BRANCH  11  15
HETATM   15  C5  UNL     1      24.193  -0.349  53.297  1.00  0.00     0.034 C 
HETATM   16  C6  UNL     1      23.008  -0.167  53.836  1.00  0.00     0.091 C 
BRANCH  16  17
HETATM   17  C7  UNL     1      22.283  -1.117  54.686  1.00  0.00     0.408 C 
HETATM   18  F1  UNL     1      23.015  -1.570  55.777  1.00  0.00    -0.167 F 
HETATM   19  F2  UNL     1      21.794  -2.219  54.034  1.00  0.00    -0.167 F 
HETATM   20  F3  UNL     1      21.196  -0.450  55.232  1.00  0.00    -0.167 F 
ENDBRANCH  16  17
ENDBRANCH  11  15
ENDBRANCH   8  11
ENDBRANCH   1   7
BRANCH   6  21
HETATM   21  N2  UNL     1      25.745   4.718  50.572  1.00  0.00    -0.385 N 
HETATM   22  H12 UNL     1      26.395   4.899  51.352  1.00  0.00     0.160 HD
BRANCH  21  23
HETATM   23  C15 UNL     1      26.464   4.392  49.385  1.00  0.00     0.158 C 
BRANCH  23  24
HETATM   24  C16 UNL     1      27.087   5.527  48.679  1.00  0.00    -0.038 A 
HETATM   25  C17 UNL     1      26.646   6.748  48.247  1.00  0.00     0.028 A 
HETATM   26  C18 UNL     1      27.481   7.642  47.616  1.00  0.00     0.116 A 
HETATM   27  N3  UNL     1      28.775   7.394  47.373  1.00  0.00    -0.273 NA
HETATM   28  C19 UNL     1      29.257   6.210  47.777  1.00  0.00     0.116 A 
HETATM   29  C20 UNL     1      28.448   5.292  48.413  1.00  0.00     0.028 A 
ENDBRANCH  23  24
ENDBRANCH  21  23
ENDBRANCH   6  21
TORSDOF 8
ENDMDL
MODEL 3
REMARK VINA RESULT:      -8.2      3.051      6.913
REMARK  8 active torsions:
REMARK  status: ('A' for Active; 'I' for Inactive)
REMARK    1  A    between atoms: C2_2  and  C3_3 
REMARK    2  A    between atoms: C4_4  and  C5_5 
REMARK    3  A    between atoms: C4_4  and  N1_11 
REMARK    4  A    between atoms: C6_6  and  C7_7 
REMARK       I    between atoms: N1_11  and  C8_12 
REMARK    5  A    between atoms: C8_12  and  C9_14 
REMARK    6  A    between atoms: C14_19  and  N2_20 
REMARK    7  A    between atoms: N2_20  and  C15_21 
REMARK    8  A    between atoms: C15_21  and  C16_22 
ROOT
HETATM    1  C9  UNL     1      22.637   0.547  53.359  1.00  0.00     0.058 A 
HETATM    2  C10 UNL     1      23.004  -0.673  53.842  1.00  0.00     0.019 A 
HETATM    3  C11 UNL     1      22.093  -1.601  54.258  1.00  0.00     0.001 A 
HETATM    4  C12 UNL     1      20.747  -1.302  54.192  1.00  0.00     0.002 A 
HETATM    5  C13 UNL     1      20.396  -0.066  53.702  1.00  0.00     0.030 A 
HETATM    6  C14 UNL     1      21.305   0.875  53.281  1.00  0.00     0.044 A 
ENDROOT
BRANCH   1   7
HETATM    7  C8  UNL     1      23.647   1.490  52.932  1.00  0.00     0.258 C 
HETATM    8  N1  UNL     1      24.710   1.058  52.093  1.00  0.00    -0.323 N 
HETATM    9  H7  UNL     1      24.880   0.080  51.712  1.00  0.00     0.169 HD
HETATM   10  O1  UNL     1      23.937   2.694  53.068  1.00  0.00    -0.267 OA
BRANCH   8  11
HETATM   11  C4  UNL     1      25.773   1.895  51.599  1.00  0.00     0.035 C 
HETATM   12  C3  UNL     1      25.538   2.709  50.590  1.00  0.00     0.029 C 
BRANCH  12  13
HETATM   13  C2  UNL     1      26.588   3.566  50.073  1.00  0.00    -0.008 C 
HETATM   14  C1  UNL     1      26.305   4.552  49.251  1.00  0.00     0.011 C 
ENDBRANCH  12  13
BRANCH  11  15
HETATM   15  C5  UNL     1      27.058   1.771  52.274  1.00  0.00     0.034 C 
HETATM   16  C6  UNL     1      27.383   1.369  53.483  1.00  0.00     0.091 C 
BRANCH  16  17
HETATM   17  C7  UNL     1      28.738   1.293  54.040  1.00  0.00     0.408 C 
HETATM   18  F1  UNL     1      29.656   0.666  53.207  1.00  0.00    -0.167 F 
HETATM   19  F2  UNL     1      28.823   0.694  55.270  1.00  0.00    -0.167 F 
HETATM   20  F3  UNL     1      29.207   2.591  54.185  1.00  0.00    -0.167 F 
ENDBRANCH  16  17
ENDBRANCH  11  15
ENDBRANCH   8  11
ENDBRANCH   1   7
BRANCH   6  21
HETATM   21  N2  UNL     1      20.769   2.087  52.796  1.00  0.00    -0.385 N 
HETATM   22  H12 UNL     1      20.790   2.821  53.522  1.00  0.00     0.160 HD
BRANCH  21  23
HETATM   23  C15 UNL     1      20.203   2.592  51.590  1.00  0.00     0.158 C 
BRANCH  23  24
HETATM   24  C16 UNL     1      20.936   2.271  50.351  1.00  0.00    -0.038 A 
HETATM   25  C17 UNL     1      21.008   1.176  49.535  1.00  0.00     0.028 A 
HETATM   26  C18 UNL     1      21.783   1.166  48.398  1.00  0.00     0.116 A 
HETATM   27  N3  UNL     1      22.523   2.210  48.003  1.00  0.00    -0.273 NA
HETATM   28  C19 UNL     1      22.489   3.309  48.770  1.00  0.00     0.116 A 
HETATM   29  C20 UNL     1      21.721   3.353  49.915  1.00  0.00     0.028 A 
ENDBRANCH  23  24
ENDBRANCH  21  23
ENDBRANCH   6  21
TORSDOF 8
ENDMDL
MODEL 4
REMARK VINA RESULT:      -8.0      2.767      5.458
REMARK  8 active torsions:
REMARK  status: ('A' for Active; 'I' for Inactive)
REMARK    1  A    between atoms: C2_2  and  C3_3 
REMARK    2  A    between atoms: C4_4  and  C5_5 
REMARK    3  A    between atoms: C4_4  and  N1_11 
REMARK    4  A    between atoms: C6_6  and  C7_7 
REMARK       I    between atoms: N1_11  and  C8_12 
REMARK    5  A    between atoms: C8_12  and  C9_14 
REMARK    6  A    between atoms: C14_19  and  N2_20 
REMARK    7  A    between atoms: N2_20  and  C15_21 
REMARK    8  A    between atoms: C15_21  and  C16_22 
ROOT
HETATM    1  C9  UNL     1      25.139   3.699  51.021  1.00  0.00     0.058 A 
HETATM    2  C10 UNL     1      26.231   3.639  50.208  1.00  0.00     0.019 A 
HETATM    3  C11 UNL     1      26.394   4.470  49.137  1.00  0.00     0.001 A 
HETATM    4  C12 UNL     1      25.422   5.409  48.857  1.00  0.00     0.002 A 
HETATM    5  C13 UNL     1      24.327   5.454  49.689  1.00  0.00     0.030 A 
HETATM    6  C14 UNL     1      24.155   4.623  50.769  1.00  0.00     0.044 A 
ENDROOT
BRANCH   1   7
HETATM    7  C8  UNL     1      25.022   2.793  52.142  1.00  0.00     0.258 C 
HETATM    8  N1  UNL     1      25.141   1.391  51.936  1.00  0.00    -0.323 N 
HETATM    9  H7  UNL     1      25.313   0.882  51.018  1.00  0.00     0.169 HD
HETATM   10  O1  UNL     1      24.829   2.828  53.372  1.00  0.00    -0.267 OA
BRANCH   8  11
HETATM   11  C4  UNL     1      25.046   0.388  52.965  1.00  0.00     0.035 C 
HETATM   12  C3  UNL     1      23.860   0.036  53.417  1.00  0.00     0.029 C 
BRANCH  12  13
HETATM   13  C2  UNL     1      23.733  -0.974  54.451  1.00  0.00    -0.008 C 
HETATM   14  C1  UNL     1      22.554  -1.290  54.938  1.00  0.00     0.011 C 
ENDBRANCH  12  13
BRANCH  11  15
HETATM   15  C5  UNL     1      26.306  -0.173  53.435  1.00  0.00     0.034 C 
HETATM   16  C6  UNL     1      27.551   0.021  53.062  1.00  0.00     0.091 C 
BRANCH  16  17
HETATM   17  C7  UNL     1      28.740  -0.620  53.632  1.00  0.00     0.408 C 
HETATM   18  F1  UNL     1      29.940  -0.066  53.201  1.00  0.00    -0.167 F 
HETATM   19  F2  UNL     1      28.818  -1.974  53.431  1.00  0.00    -0.167 F 
HETATM   20  F3  UNL     1      28.716  -0.411  55.003  1.00  0.00    -0.167 F 
ENDBRANCH  16  17
ENDBRANCH  11  15
ENDBRANCH   8  11
ENDBRANCH   1   7
BRANCH   6  21
HETATM   21  N2  UNL     1      22.976   4.814  51.522  1.00  0.00    -0.385 N 
HETATM   22  H12 UNL     1      23.147   5.428  52.334  1.00  0.00     0.160 HD
BRANCH  21  23
HETATM   23  C15 UNL     1      21.612   4.401  51.484  1.00  0.00     0.158 C 
BRANCH  23  24
HETATM   24  C16 UNL     1      21.383   2.946  51.408  1.00  0.00    -0.038 A 
HETATM   25  C17 UNL     1      21.728   1.966  50.519  1.00  0.00     0.028 A 
HETATM   26  C18 UNL     1      21.386   0.648  50.720  1.00  0.00     0.116 A 
HETATM   27  N3  UNL     1      20.695   0.222  51.785  1.00  0.00    -0.273 NA
HETATM   28  C19 UNL     1      20.332   1.145  52.687  1.00  0.00     0.116 A 
HETATM   29  C20 UNL     1      20.659   2.474  52.517  1.00  0.00     0.028 A 
ENDBRANCH  23  24
ENDBRANCH  21  23
ENDBRANCH   6  21
TORSDOF 8
ENDMDL
MODEL 5
REMARK VINA RESULT:      -8.0      2.053      3.207
REMARK  8 active torsions:
REMARK  status: ('A' for Active; 'I' for Inactive)
REMARK    1  A    between atoms: C2_2  and  C3_3 
REMARK    2  A    between atoms: C4_4  and  C5_5 
REMARK    3  A    between atoms: C4_4  and  N1_11 
REMARK    4  A    between atoms: C6_6  and  C7_7 
REMARK       I    between atoms: N1_11  and  C8_12 
REMARK    5  A    between atoms: C8_12  and  C9_14 
REMARK    6  A    between atoms: C14_19  and  N2_20 
REMARK    7  A    between atoms: N2_20  and  C15_21 
REMARK    8  A    between atoms: C15_21  and  C16_22 
ROOT
HETATM    1  C9  UNL     1      24.605   3.538  50.719  1.00  0.00     0.058 A 
HETATM    2  C10 UNL     1      24.058   4.601  50.066  1.00  0.00     0.019 A 
HETATM    3  C11 UNL     1      24.777   5.380  49.205  1.00  0.00     0.001 A 
HETATM    4  C12 UNL     1      26.107   5.089  48.981  1.00  0.00     0.002 A 
HETATM    5  C13 UNL     1      26.641   4.012  49.650  1.00  0.00     0.030 A 
HETATM    6  C14 UNL     1      25.926   3.221  50.518  1.00  0.00     0.044 A 
ENDROOT
BRANCH   1   7
HETATM    7  C8  UNL     1      23.794   2.748  51.619  1.00  0.00     0.258 C 
HETATM    8  N1  UNL     1      23.500   1.393  51.305  1.00  0.00    -0.323 N 
HETATM    9  H7  UNL     1      23.810   0.843  50.449  1.00  0.00     0.169 HD
HETATM   10  O1  UNL     1      23.193   2.867  52.704  1.00  0.00    -0.267 OA
BRANCH   8  11
HETATM   11  C4  UNL     1      22.709   0.503  52.115  1.00  0.00     0.035 C 
HETATM   12  C3  UNL     1      23.240  -0.028  53.198  1.00  0.00     0.029 C 
BRANCH  12  13
HETATM   13  C2  UNL     1      22.467  -0.925  54.036  1.00  0.00    -0.008 C 
HETATM   14  C1  UNL     1      22.884  -1.243  55.242  1.00  0.00     0.011 C 
ENDBRANCH  12  13
BRANCH  11  15
HETATM   15  C5  UNL     1      21.348   0.255  51.660  1.00  0.00     0.034 C 
HETATM   16  C6  UNL     1      20.292   1.034  51.574  1.00  0.00     0.091 C 
BRANCH  16  17
HETATM   17  C7  UNL     1      18.963   0.648  51.090  1.00  0.00     0.408 C 
HETATM   18  F1  UNL     1      18.558  -0.617  51.501  1.00  0.00    -0.167 F 
HETATM   19  F2  UNL     1      18.804   0.707  49.730  1.00  0.00    -0.167 F 
HETATM   20  F3  UNL     1      18.041   1.522  51.647  1.00  0.00    -0.167 F 
ENDBRANCH  16  17
ENDBRANCH  11  15
ENDBRANCH   8  11
ENDBRANCH   1   7
BRANCH   6  21
HETATM   21  N2  UNL     1      26.630   2.150  51.109  1.00  0.00    -0.385 N 
HETATM   22  H12 UNL     1      26.823   1.406  50.421  1.00  0.00     0.160 HD
BRANCH  21  23
HETATM   23  C15 UNL     1      27.151   1.798  52.388  1.00  0.00     0.158 C 
BRANCH  23  24
HETATM   24  C16 UNL     1      27.359   0.357  52.623  1.00  0.00    -0.038 A 
HETATM   25  C17 UNL     1      26.638  -0.774  52.354  1.00  0.00     0.028 A 
HETATM   26  C18 UNL     1      27.103  -2.028  52.677  1.00  0.00     0.116 A 
HETATM   27  N3  UNL     1      28.282  -2.244  53.274  1.00  0.00    -0.273 NA
HETATM   28  C19 UNL     1      29.028  -1.167  53.561  1.00  0.00     0.116 A 
HETATM   29  C20 UNL     1      28.592   0.104  53.249  1.00  0.00     0.028 A 
ENDBRANCH  23  24
ENDBRANCH  21  23
ENDBRANCH   6  21
TORSDOF 8
ENDMDL
MODEL 6
REMARK VINA RESULT:      -8.0      3.418      6.191
REMARK  8 active torsions:
REMARK  status: ('A' for Active; 'I' for Inactive)
REMARK    1  A    between atoms: C2_2  and  C3_3 
REMARK    2  A    between atoms: C4_4  and  C5_5 
REMARK    3  A    between atoms: C4_4  and  N1_11 
REMARK    4  A    between atoms: C6_6  and  C7_7 
REMARK       I    between atoms: N1_11  and  C8_12 
REMARK    5  A    between atoms: C8_12  and  C9_14 
REMARK    6  A    between atoms: C14_19  and  N2_20 
REMARK    7  A    between atoms: N2_20  and  C15_21 
REMARK    8  A    between atoms: C15_21  and  C16_22 
ROOT
HETATM    1  C9  UNL     1      27.011   4.912  48.942  1.00  0.00     0.058 A 
HETATM    2  C10 UNL     1      28.289   5.138  48.526  1.00  0.00     0.019 A 
HETATM    3  C11 UNL     1      28.666   6.298  47.914  1.00  0.00     0.001 A 
HETATM    4  C12 UNL     1      27.727   7.287  47.705  1.00  0.00     0.002 A 
HETATM    5  C13 UNL     1      26.442   7.041  48.131  1.00  0.00     0.030 A 
HETATM    6  C14 UNL     1      26.053   5.876  48.748  1.00  0.00     0.044 A 
ENDROOT
BRANCH   1   7
HETATM    7  C8  UNL     1      26.671   3.661  49.585  1.00  0.00     0.258 C 
HETATM    8  N1  UNL     1      26.465   3.620  50.990  1.00  0.00    -0.323 N 
HETATM    9  H7  UNL     1      26.530   4.427  51.680  1.00  0.00     0.169 HD
HETATM   10  O1  UNL     1      26.475   2.467  49.289  1.00  0.00    -0.267 OA
BRANCH   8  11
HETATM   11  C4  UNL     1      26.121   2.444  51.747  1.00  0.00     0.035 C 
HETATM   12  C3  UNL     1      24.876   2.012  51.738  1.00  0.00     0.029 C 
BRANCH  12  13
HETATM   13  C2  UNL     1      24.500   0.828  52.488  1.00  0.00    -0.008 C 
HETATM   14  C1  UNL     1      23.311   0.734  53.041  1.00  0.00     0.011 C 
ENDBRANCH  12  13
BRANCH  11  15
HETATM   15  C5  UNL     1      27.208   1.808  52.480  1.00  0.00     0.034 C 
HETATM   16  C6  UNL     1      27.976   2.231  53.458  1.00  0.00     0.091 C 
BRANCH  16  17
HETATM   17  C7  UNL     1      29.048   1.475  54.113  1.00  0.00     0.408 C 
HETATM   18  F1  UNL     1      29.897   2.255  54.889  1.00  0.00    -0.167 F 
HETATM   19  F2  UNL     1      29.831   0.732  53.267  1.00  0.00    -0.167 F 
HETATM   20  F3  UNL     1      28.456   0.590  55.004  1.00  0.00    -0.167 F 
ENDBRANCH  16  17
ENDBRANCH  11  15
ENDBRANCH   8  11
ENDBRANCH   1   7
BRANCH   6  21
HETATM   21  N2  UNL     1      24.697   5.796  49.131  1.00  0.00    -0.385 N 
HETATM   22  H12 UNL     1      24.566   6.103  50.108  1.00  0.00     0.160 HD
BRANCH  21  23
HETATM   23  C15 UNL     1      23.451   5.410  48.556  1.00  0.00     0.158 C 
BRANCH  23  24
HETATM   24  C16 UNL     1      22.753   4.295  49.223  1.00  0.00    -0.038 A 
HETATM   25  C17 UNL     1      21.943   4.189  50.320  1.00  0.00     0.028 A 
HETATM   26  C18 UNL     1      21.398   2.987  50.710  1.00  0.00     0.116 A 
HETATM   27  N3  UNL     1      21.614   1.836  50.058  1.00  0.00    -0.273 NA
HETATM   28  C19 UNL     1      22.403   1.886  48.975  1.00  0.00     0.116 A 
HETATM   29  C20 UNL     1      22.963   3.075  48.557  1.00  0.00     0.028 A 
ENDBRANCH  23  24
ENDBRANCH  21  23
ENDBRANCH   6  21
TORSDOF 8
ENDMDL
MODEL 7
REMARK VINA RESULT:      -8.0      3.671      6.065
REMARK  8 active torsions:
REMARK  status: ('A' for Active; 'I' for Inactive)
REMARK    1  A    between atoms: C2_2  and  C3_3 
REMARK    2  A    between atoms: C4_4  and  C5_5 
REMARK    3  A    between atoms: C4_4  and  N1_11 
REMARK    4  A    between atoms: C6_6  and  C7_7 
REMARK       I    between atoms: N1_11  and  C8_12 
REMARK    5  A    between atoms: C8_12  and  C9_14 
REMARK    6  A    between atoms: C14_19  and  N2_20 
REMARK    7  A    between atoms: N2_20  and  C15_21 
REMARK    8  A    between atoms: C15_21  and  C16_22 
ROOT
HETATM    1  C9  UNL     1      22.281   0.907  52.734  1.00  0.00     0.058 A 
HETATM    2  C10 UNL     1      20.947   0.631  52.691  1.00  0.00     0.019 A 
HETATM    3  C11 UNL     1      20.398  -0.437  53.341  1.00  0.00     0.001 A 
HETATM    4  C12 UNL     1      21.215  -1.275  54.072  1.00  0.00     0.002 A 
HETATM    5  C13 UNL     1      22.559  -0.981  54.104  1.00  0.00     0.030 A 
HETATM    6  C14 UNL     1      23.120   0.092  53.453  1.00  0.00     0.044 A 
ENDROOT
BRANCH   1   7
HETATM    7  C8  UNL     1      22.805   2.053  52.026  1.00  0.00     0.258 C 
HETATM    8  N1  UNL     1      23.505   1.871  50.802  1.00  0.00    -0.323 N 
HETATM    9  H7  UNL     1      23.712   0.955  50.303  1.00  0.00     0.169 HD
HETATM   10  O1  UNL     1      22.859   3.293  52.138  1.00  0.00    -0.267 OA
BRANCH   8  11
HETATM   11  C4  UNL     1      24.071   2.926  50.002  1.00  0.00     0.035 C 
HETATM   12  C3  UNL     1      25.264   3.398  50.305  1.00  0.00     0.029 C 
BRANCH  12  13
HETATM   13  C2  UNL     1      25.861   4.459  49.517  1.00  0.00    -0.008 C 
HETATM   14  C1  UNL     1      27.092   4.350  49.069  1.00  0.00     0.011 C 
ENDBRANCH  12  13
BRANCH  11  15
HETATM   15  C5  UNL     1      23.258   3.400  48.890  1.00  0.00     0.034 C 
HETATM   16  C6  UNL     1      22.347   2.808  48.150  1.00  0.00     0.091 C 
BRANCH  16  17
HETATM   17  C7  UNL     1      21.594   3.413  47.047  1.00  0.00     0.408 C 
HETATM   18  F1  UNL     1      21.556   4.802  47.084  1.00  0.00    -0.167 F 
HETATM   19  F2  UNL     1      20.303   2.970  46.917  1.00  0.00    -0.167 F 
HETATM   20  F3  UNL     1      22.253   3.101  45.866  1.00  0.00    -0.167 F 
ENDBRANCH  16  17
ENDBRANCH  11  15
ENDBRANCH   8  11
ENDBRANCH   1   7
BRANCH   6  21
HETATM   21  N2  UNL     1      24.515   0.251  53.603  1.00  0.00    -0.385 N 
HETATM   22  H12 UNL     1      24.750   0.626  54.536  1.00  0.00     0.160 HD
BRANCH  21  23
HETATM   23  C15 UNL     1      25.697   0.044  52.834  1.00  0.00     0.158 C 
BRANCH  23  24
HETATM   24  C16 UNL     1      26.896   0.773  53.289  1.00  0.00    -0.038 A 
HETATM   25  C17 UNL     1      27.457   1.983  52.987  1.00  0.00     0.028 A 
HETATM   26  C18 UNL     1      28.603   2.429  53.603  1.00  0.00     0.116 A 
HETATM   27  N3  UNL     1      29.258   1.724  54.535  1.00  0.00    -0.273 NA
HETATM   28  C19 UNL     1      28.750   0.528  54.867  1.00  0.00     0.116 A 
HETATM   29  C20 UNL     1      27.602   0.053  54.270  1.00  0.00     0.028 A 
ENDBRANCH  23  24
ENDBRANCH  21  23
ENDBRANCH   6  21
TORSDOF 8
ENDMDL
MODEL 8
REMARK VINA RESULT:      -8.0      3.148      5.714
REMARK  8 active torsions:
REMARK  status: ('A' for Active; 'I' for Inactive)
REMARK    1  A    between atoms: C2_2  and  C3_3 
REMARK    2  A    between atoms: C4_4  and  C5_5 
REMARK    3  A    between atoms: C4_4  and  N1_11 
REMARK    4  A    between atoms: C6_6  and  C7_7 
REMARK       I    between atoms: N1_11  and  C8_12 
REMARK    5  A    between atoms: C8_12  and  C9_14 
REMARK    6  A    between atoms: C14_19  and  N2_20 
REMARK    7  A    between atoms: N2_20  and  C15_21 
REMARK    8  A    between atoms: C15_21  and  C16_22 
ROOT
HETATM    1  C9  UNL     1      26.226   1.340  53.543  1.00  0.00     0.058 A 
HETATM    2  C10 UNL     1      26.579   0.504  54.560  1.00  0.00     0.019 A 
HETATM    3  C11 UNL     1      27.882   0.248  54.879  1.00  0.00     0.001 A 
HETATM    4  C12 UNL     1      28.886   0.853  54.152  1.00  0.00     0.002 A 
HETATM    5  C13 UNL     1      28.510   1.694  53.130  1.00  0.00     0.030 A 
HETATM    6  C14 UNL     1      27.202   1.958  52.801  1.00  0.00     0.044 A 
ENDROOT
BRANCH   1   7
HETATM    7  C8  UNL     1      24.829   1.574  53.252  1.00  0.00     0.258 C 
HETATM    8  N1  UNL     1      24.010   0.503  52.802  1.00  0.00    -0.323 N 
HETATM    9  H7  UNL     1      24.296  -0.508  52.638  1.00  0.00     0.169 HD
HETATM   10  O1  UNL     1      24.002   2.506  53.262  1.00  0.00    -0.267 OA
BRANCH   8  11
HETATM   11  C4  UNL     1      22.609   0.604  52.482  1.00  0.00     0.035 C 
HETATM   12  C3  UNL     1      21.717   0.485  53.443  1.00  0.00     0.029 C 
BRANCH  12  13
HETATM   13  C2  UNL     1      20.299   0.585  53.152  1.00  0.00    -0.008 C 
HETATM   14  C1  UNL     1      19.520  -0.470  53.239  1.00  0.00     0.011 C 
ENDBRANCH  12  13
BRANCH  11  15
HETATM   15  C5  UNL     1      22.284   0.837  51.081  1.00  0.00     0.034 C 
HETATM   16  C6  UNL     1      22.480   1.869  50.291  1.00  0.00     0.091 C 
BRANCH  16  17
HETATM   17  C7  UNL     1      22.095   1.970  48.879  1.00  0.00     0.408 C 
HETATM   18  F1  UNL     1      21.139   2.946  48.624  1.00  0.00    -0.167 F 
HETATM   19  F2  UNL     1      21.650   0.802  48.317  1.00  0.00    -0.167 F 
HETATM   20  F3  UNL     1      23.217   2.366  48.164  1.00  0.00    -0.167 F 
ENDBRANCH  16  17
ENDBRANCH  11  15
ENDBRANCH   8  11
ENDBRANCH   1   7
BRANCH   6  21
HETATM   21  N2  UNL     1      26.998   2.855  51.731  1.00  0.00    -0.385 N 
HETATM   22  H12 UNL     1      27.216   3.825  52.009  1.00  0.00     0.160 HD
BRANCH  21  23
HETATM   23  C15 UNL     1      26.573   2.807  50.371  1.00  0.00     0.158 C 
BRANCH  23  24
HETATM   24  C16 UNL     1      26.348   4.112  49.721  1.00  0.00    -0.038 A 
HETATM   25  C17 UNL     1      27.105   4.937  48.935  1.00  0.00     0.028 A 
HETATM   26  C18 UNL     1      26.612   6.122  48.437  1.00  0.00     0.116 A 
HETATM   27  N3  UNL     1      25.371   6.561  48.679  1.00  0.00    -0.273 NA
HETATM   28  C19 UNL     1      24.587   5.789  49.446  1.00  0.00     0.116 A 
HETATM   29  C20 UNL     1      25.049   4.595  49.959  1.00  0.00     0.028 A 
ENDBRANCH  23  24
ENDBRANCH  21  23
ENDBRANCH   6  21
TORSDOF 8
ENDMDL
MODEL 9
REMARK VINA RESULT:      -8.0      2.144      5.636
REMARK  8 active torsions:
REMARK  status: ('A' for Active; 'I' for Inactive)
REMARK    1  A    between atoms: C2_2  and  C3_3 
REMARK    2  A    between atoms: C4_4  and  C5_5 
REMARK    3  A    between atoms: C4_4  and  N1_11 
REMARK    4  A    between atoms: C6_6  and  C7_7 
REMARK       I    between atoms: N1_11  and  C8_12 
REMARK    5  A    between atoms: C8_12  and  C9_14 
REMARK    6  A    between atoms: C14_19  and  N2_20 
REMARK    7  A    between atoms: N2_20  and  C15_21 
REMARK    8  A    between atoms: C15_21  and  C16_22 
ROOT
HETATM    1  C9  UNL     1      26.111   3.962  49.897  1.00  0.00     0.058 A 
HETATM    2  C10 UNL     1      27.127   4.662  49.318  1.00  0.00     0.019 A 
HETATM    3  C11 UNL     1      26.912   5.794  48.586  1.00  0.00     0.001 A 
HETATM    4  C12 UNL     1      25.622   6.256  48.419  1.00  0.00     0.002 A 
HETATM    5  C13 UNL     1      24.610   5.535  49.011  1.00  0.00     0.030 A 
HETATM    6  C14 UNL     1      24.817   4.395  49.751  1.00  0.00     0.044 A 
ENDROOT
BRANCH   1   7
HETATM    7  C8  UNL     1      26.401   2.769  50.663  1.00  0.00     0.258 C 
HETATM    8  N1  UNL     1      26.455   2.833  52.081  1.00  0.00    -0.323 N 
HETATM    9  H7  UNL     1      26.305   3.685  52.699  1.00  0.00     0.169 HD
HETATM   10  O1  UNL     1      26.649   1.562  50.478  1.00  0.00    -0.267 OA
BRANCH   8  11
HETATM   11  C4  UNL     1      26.730   1.721  52.955  1.00  0.00     0.035 C 
HETATM   12  C3  UNL     1      27.980   1.383  53.196  1.00  0.00     0.029 C 
BRANCH  12  13
HETATM   13  C2  UNL     1      28.288   0.270  54.074  1.00  0.00    -0.008 C 
HETATM   14  C1  UNL     1      29.349  -0.477  53.862  1.00  0.00     0.011 C 
ENDBRANCH  12  13
BRANCH  11  15
HETATM   15  C5  UNL     1      25.570   1.041  53.517  1.00  0.00     0.034 C 
HETATM   16  C6  UNL     1      24.711   0.191  53.001  1.00  0.00     0.091 C 
BRANCH  16  17
HETATM   17  C7  UNL     1      23.574  -0.425  53.692  1.00  0.00     0.408 C 
HETATM   18  F1  UNL     1      23.902  -1.009  54.909  1.00  0.00    -0.167 F 
HETATM   19  F2  UNL     1      22.891  -1.360  52.959  1.00  0.00    -0.167 F 
HETATM   20  F3  UNL     1      22.674   0.584  54.005  1.00  0.00    -0.167 F 
ENDBRANCH  16  17
ENDBRANCH  11  15
ENDBRANCH   8  11
ENDBRANCH   1   7
BRANCH   6  21
HETATM   21  N2  UNL     1      23.665   3.788  50.295  1.00  0.00    -0.385 N 
HETATM   22  H12 UNL     1      23.189   3.196  49.597  1.00  0.00     0.160 HD
BRANCH  21  23
HETATM   23  C15 UNL     1      22.965   3.760  51.537  1.00  0.00     0.158 C 
BRANCH  23  24
HETATM   24  C16 UNL     1      21.912   2.733  51.658  1.00  0.00    -0.038 A 
HETATM   25  C17 UNL     1      20.752   2.628  52.375  1.00  0.00     0.028 A 
HETATM   26  C18 UNL     1      19.929   1.531  52.271  1.00  0.00     0.116 A 
HETATM   27  N3  UNL     1      20.191   0.488  51.472  1.00  0.00    -0.273 NA
HETATM   28  C19 UNL     1      21.318   0.541  50.747  1.00  0.00     0.116 A 
HETATM   29  C20 UNL     1      22.164   1.628  50.827  1.00  0.00     0.028 A 
ENDBRANCH  23  24
ENDBRANCH  21  23
ENDBRANCH   6  21
TORSDOF 8
ENDMDL
