MODEL 1
REMARK VINA RESULT:      -7.7      0.000      0.000
REMARK  3 active torsions:
REMARK  status: ('A' for Active; 'I' for Inactive)
REMARK    1  A    between atoms: N1_1  and  C1_2 
REMARK    2  A    between atoms: C5_8  and  N4_9 
REMARK    3  A    between atoms: N4_9  and  C6_10 
ROOT
HETATM    1  C1  UNL     1      22.849   4.229  51.978  1.00  0.00     0.116 C 
HETATM    2  C2  UNL     1      21.731   3.689  52.523  1.00  0.00     0.081 C 
HETATM    3  C3  UNL     1      20.558   2.828  52.199  1.00  0.00     0.071 A 
HETATM    4  N2  UNL     1      19.568   3.699  51.981  1.00  0.00    -0.241 NA
HETATM    5  C4  UNL     1      18.313   3.352  51.655  1.00  0.00     0.236 A 
HETATM    6  N3  UNL     1      18.060   2.040  51.547  1.00  0.00    -0.222 NA
HETATM    7  C5  UNL     1      19.063   1.180  51.769  1.00  0.00     0.163 A 
HETATM    8  C7  UNL     1      20.371   1.474  52.105  1.00  0.00     0.019 A 
HETATM    9  C8  UNL     1      21.149   0.216  52.240  1.00  0.00     0.050 C 
HETATM   10  C9  UNL     1      22.586   0.344  52.118  1.00  0.00     0.003 C 
HETATM   11  C10 UNL     1      23.281  -0.167  53.178  1.00  0.00     0.020 C 
HETATM   12  C11 UNL     1      24.683  -0.337  53.641  1.00  0.00    -0.023 C 
HETATM   13  C12 UNL     1      26.029  -0.196  53.497  1.00  0.00    -0.001 C 
HETATM   14  C13 UNL     1      26.286   0.497  52.177  1.00  0.00     0.296 C 
HETATM   15  N5  UNL     1      26.896   1.769  52.381  1.00  0.00     0.086 N 
HETATM   16  C14 UNL     1      26.672   2.697  51.231  1.00  0.00     0.272 C 
HETATM   17  C15 UNL     1      25.188   2.983  51.265  1.00  0.00     0.056 C 
HETATM   18  C16 UNL     1      24.675   4.066  50.373  1.00  0.00     0.178 C 
HETATM   19  O2  UNL     1      23.230   4.035  50.654  1.00  0.00    -0.340 OA
HETATM   20  H13 UNL     1      27.897   1.748  52.630  1.00  0.00     0.316 HD
ENDROOT
BRANCH   1  21
HETATM   21  N1  UNL     1      23.671   5.048  52.848  1.00  0.00    -0.283 NA
HETATM   22  H1  UNL     1      24.585   4.601  52.718  1.00  0.00     0.126 HD
HETATM   23  H2  UNL     1      24.703   4.820  52.921  1.00  0.00     0.126 HD
ENDBRANCH   1  21
BRANCH   7  24
HETATM   24  N4  UNL     1      18.590  -0.172  51.604  1.00  0.00    -0.185 NA
BRANCH  24  25
HETATM   25  C6  UNL     1      17.588  -0.456  52.350  1.00  0.00     0.339 C 
HETATM   26  O1  UNL     1      16.998  -0.892  53.344  1.00  0.00    -0.260 OA
ENDBRANCH  24  25
ENDBRANCH   7  24
TORSDOF 3
ENDMDL
MODEL 2
REMARK VINA RESULT:      -7.3      3.041      5.875
REMARK  3 active torsions:
REMARK  status: ('A' for Active; 'I' for Inactive)
REMARK    1  A    between atoms: N1_1  and  C1_2 
REMARK    2  A    between atoms: C5_8  and  N4_9 
REMARK    3  A    between atoms: N4_9  and  C6_10 
ROOT
HETATM    1  C1  UNL     1      19.548   2.118  51.828  1.00  0.00     0.116 C 
HETATM    2  C2  UNL     1      20.506   1.952  52.774  1.00  0.00     0.081 C 
HETATM    3  C3  UNL     1      21.574   1.012  53.217  1.00  0.00     0.071 A 
HETATM    4  N2  UNL     1      21.009   0.330  54.218  1.00  0.00    -0.241 NA
HETATM    5  C4  UNL     1      21.625  -0.635  54.919  1.00  0.00     0.236 A 
HETATM    6  N3  UNL     1      22.890  -0.915  54.574  1.00  0.00    -0.222 NA
HETATM    7  C5  UNL     1      23.442  -0.222  53.570  1.00  0.00     0.163 A 
HETATM    8  C7  UNL     1      22.861   0.779  52.812  1.00  0.00     0.019 A 
HETATM    9  C8  UNL     1      23.829   1.261  51.794  1.00  0.00     0.050 C 
HETATM   10  C9  UNL     1      23.257   1.940  50.649  1.00  0.00     0.003 C 
HETATM   11  C10 UNL     1      23.773   3.185  50.427  1.00  0.00     0.020 C 
HETATM   12  C11 UNL     1      23.624   4.324  49.485  1.00  0.00    -0.023 C 
HETATM   13  C12 UNL     1      23.062   4.935  48.406  1.00  0.00    -0.001 C 
HETATM   14  C13 UNL     1      22.036   3.991  47.818  1.00  0.00     0.296 C 
HETATM   15  N5  UNL     1      20.724   4.542  47.913  1.00  0.00     0.086 N 
HETATM   16  C14 UNL     1      19.663   3.491  47.876  1.00  0.00     0.272 C 
HETATM   17  C15 UNL     1      19.844   2.731  49.169  1.00  0.00     0.056 C 
HETATM   18  C16 UNL     1      18.784   1.747  49.545  1.00  0.00     0.178 C 
HETATM   19  O2  UNL     1      19.306   1.203  50.809  1.00  0.00    -0.340 OA
HETATM   20  H13 UNL     1      20.507   5.292  47.237  1.00  0.00     0.316 HD
ENDROOT
BRANCH   1  21
HETATM   21  N1  UNL     1      18.749   3.326  51.912  1.00  0.00    -0.283 NA
HETATM   22  H1  UNL     1      18.770   3.495  52.922  1.00  0.00     0.126 HD
HETATM   23  H2  UNL     1      18.591   3.756  52.866  1.00  0.00     0.126 HD
ENDBRANCH   1  21
BRANCH   7  24
HETATM   24  N4  UNL     1      24.795  -0.670  53.355  1.00  0.00    -0.185 NA
BRANCH  24  25
HETATM   25  C6  UNL     1      25.555  -0.500  54.373  1.00  0.00     0.339 C 
HETATM   26  O1  UNL     1      26.605  -0.517  55.024  1.00  0.00    -0.260 OA
ENDBRANCH  24  25
ENDBRANCH   7  24
TORSDOF 3
ENDMDL
MODEL 3
REMARK VINA RESULT:      -7.2      2.853      6.320
REMARK  3 active torsions:
REMARK  status: ('A' for Active; 'I' for Inactive)
REMARK    1  A    between atoms: N1_1  and  C1_2 
REMARK    2  A    between atoms: C5_8  and  N4_9 
REMARK    3  A    between atoms: N4_9  and  C6_10 
ROOT
HETATM    1  C1  UNL     1      22.012   2.031  50.219  1.00  0.00     0.116 C 
HETATM    2  C2  UNL     1      22.829   2.630  49.317  1.00  0.00     0.081 C 
HETATM    3  C3  UNL     1      23.616   3.874  49.082  1.00  0.00     0.071 A 
HETATM    4  N2  UNL     1      22.833   4.607  48.285  1.00  0.00    -0.241 NA
HETATM    5  C4  UNL     1      23.155   5.824  47.818  1.00  0.00     0.236 A 
HETATM    6  N3  UNL     1      24.346   6.314  48.189  1.00  0.00    -0.222 NA
HETATM    7  C5  UNL     1      25.119   5.567  48.987  1.00  0.00     0.163 A 
HETATM    8  C7  UNL     1      24.844   4.313  49.500  1.00  0.00     0.019 A 
HETATM    9  C8  UNL     1      25.974   3.861  50.352  1.00  0.00     0.050 C 
HETATM   10  C9  UNL     1      25.665   2.827  51.317  1.00  0.00     0.003 C 
HETATM   11  C10 UNL     1      26.467   1.725  51.226  1.00  0.00     0.020 C 
HETATM   12  C11 UNL     1      26.657   0.402  51.876  1.00  0.00    -0.023 C 
HETATM   13  C12 UNL     1      26.336  -0.552  52.793  1.00  0.00    -0.001 C 
HETATM   14  C13 UNL     1      25.172  -0.039  53.611  1.00  0.00     0.296 C 
HETATM   15  N5  UNL     1      24.018  -0.853  53.420  1.00  0.00     0.086 N 
HETATM   16  C14 UNL     1      22.751  -0.123  53.730  1.00  0.00     0.272 C 
HETATM   17  C15 UNL     1      22.651   0.928  52.649  1.00  0.00     0.056 C 
HETATM   18  C16 UNL     1      21.368   1.687  52.543  1.00  0.00     0.178 C 
HETATM   19  O2  UNL     1      21.650   2.610  51.431  1.00  0.00    -0.340 OA
HETATM   20  H13 UNL     1      24.031  -1.764  53.904  1.00  0.00     0.316 HD
ENDROOT
BRANCH   1  21
HETATM   21  N1  UNL     1      21.506   0.717  49.871  1.00  0.00    -0.283 NA
HETATM   22  H1  UNL     1      21.468   0.280  50.798  1.00  0.00     0.126 HD
HETATM   23  H2  UNL     1      21.354   0.017  50.651  1.00  0.00     0.126 HD
ENDBRANCH   1  21
BRANCH   7  24
HETATM   24  N4  UNL     1      26.348   6.267  49.269  1.00  0.00    -0.185 NA
BRANCH  24  25
HETATM   25  C6  UNL     1      26.168   7.409  49.823  1.00  0.00     0.339 C 
HETATM   26  O1  UNL     1      26.296   8.626  49.985  1.00  0.00    -0.260 OA
ENDBRANCH  24  25
ENDBRANCH   7  24
TORSDOF 3
ENDMDL
MODEL 4
REMARK VINA RESULT:      -7.1      3.270      5.100
REMARK  3 active torsions:
REMARK  status: ('A' for Active; 'I' for Inactive)
REMARK    1  A    between atoms: N1_1  and  C1_2 
REMARK    2  A    between atoms: C5_8  and  N4_9 
REMARK    3  A    between atoms: N4_9  and  C6_10 
ROOT
HETATM    1  C1  UNL     1      24.521   3.366  52.040  1.00  0.00     0.116 C 
HETATM    2  C2  UNL     1      23.604   4.016  51.280  1.00  0.00     0.081 C 
HETATM    3  C3  UNL     1      23.093   4.127  49.885  1.00  0.00     0.071 A 
HETATM    4  N2  UNL     1      23.699   5.217  49.404  1.00  0.00    -0.241 NA
HETATM    5  C4  UNL     1      23.524   5.694  48.162  1.00  0.00     0.236 A 
HETATM    6  N3  UNL     1      22.682   5.016  47.369  1.00  0.00    -0.222 NA
HETATM    7  C5  UNL     1      22.083   3.926  47.866  1.00  0.00     0.163 A 
HETATM    8  C7  UNL     1      22.222   3.386  49.131  1.00  0.00     0.019 A 
HETATM    9  C8  UNL     1      21.385   2.164  49.249  1.00  0.00     0.050 C 
HETATM   10  C9  UNL     1      21.762   1.237  50.296  1.00  0.00     0.003 C 
HETATM   11  C10 UNL     1      20.748   0.930  51.157  1.00  0.00     0.020 C 
HETATM   12  C11 UNL     1      20.495   0.101  52.365  1.00  0.00    -0.023 C 
HETATM   13  C12 UNL     1      20.884  -0.767  53.338  1.00  0.00    -0.001 C 
HETATM   14  C13 UNL     1      22.344  -1.093  53.115  1.00  0.00     0.296 C 
HETATM   15  N5  UNL     1      23.141  -0.634  54.204  1.00  0.00     0.086 N 
HETATM   16  C14 UNL     1      24.568  -0.424  53.815  1.00  0.00     0.272 C 
HETATM   17  C15 UNL     1      24.527   0.747  52.860  1.00  0.00     0.056 C 
HETATM   18  C16 UNL     1      25.832   1.356  52.461  1.00  0.00     0.178 C 
HETATM   19  O2  UNL     1      25.403   2.417  51.534  1.00  0.00    -0.340 OA
HETATM   20  H13 UNL     1      23.087  -1.201  55.065  1.00  0.00     0.316 HD
ENDROOT
BRANCH   1  21
HETATM   21  N1  UNL     1      24.559   3.701  53.450  1.00  0.00    -0.283 NA
HETATM   22  H1  UNL     1      25.568   3.662  53.625  1.00  0.00     0.126 HD
HETATM   23  H2  UNL     1      25.502   3.743  53.929  1.00  0.00     0.126 HD
ENDBRANCH   1  21
BRANCH   7  24
HETATM   24  N4  UNL     1      21.225   3.344  46.865  1.00  0.00    -0.185 NA
BRANCH  24  25
HETATM   25  C6  UNL     1      21.569   3.638  45.666  1.00  0.00     0.339 C 
HETATM   26  O1  UNL     1      21.528   3.608  44.432  1.00  0.00    -0.260 OA
ENDBRANCH  24  25
ENDBRANCH   7  24
TORSDOF 3
ENDMDL
MODEL 5
REMARK VINA RESULT:      -7.0      2.924      6.735
REMARK  3 active torsions:
REMARK  status: ('A' for Active; 'I' for Inactive)
REMARK    1  A    between atoms: N1_1  and  C1_2 
REMARK    2  A    between atoms: C5_8  and  N4_9 
REMARK    3  A    between atoms: N4_9  and  C6_10 
ROOT
HETATM    1  C1  UNL     1      21.742   1.346  52.052  1.00  0.00     0.116 C 
HETATM    2  C2  UNL     1      22.808   1.376  52.891  1.00  0.00     0.081 C 
HETATM    3  C3  UNL     1      24.157   0.780  53.105  1.00  0.00     0.071 A 
HETATM    4  N2  UNL     1      23.949  -0.170  54.022  1.00  0.00    -0.241 NA
HETATM    5  C4  UNL     1      24.908  -0.968  54.517  1.00  0.00     0.236 A 
HETATM    6  N3  UNL     1      26.149  -0.781  54.046  1.00  0.00    -0.222 NA
HETATM    7  C5  UNL     1      26.340   0.175  53.128  1.00  0.00     0.163 A 
HETATM    8  C7  UNL     1      25.398   1.025  52.580  1.00  0.00     0.019 A 
HETATM    9  C8  UNL     1      26.046   1.918  51.586  1.00  0.00     0.050 C 
HETATM   10  C9  UNL     1      25.164   2.518  50.605  1.00  0.00     0.003 C 
HETATM   11  C10 UNL     1      25.244   3.881  50.547  1.00  0.00     0.020 C 
HETATM   12  C11 UNL     1      24.644   5.023  49.809  1.00  0.00    -0.023 C 
HETATM   13  C12 UNL     1      23.801   5.554  48.882  1.00  0.00    -0.001 C 
HETATM   14  C13 UNL     1      23.053   4.414  48.226  1.00  0.00     0.296 C 
HETATM   15  N5  UNL     1      21.656   4.499  48.497  1.00  0.00     0.086 N 
HETATM   16  C14 UNL     1      20.972   3.177  48.369  1.00  0.00     0.272 C 
HETATM   17  C15 UNL     1      21.526   2.356  49.509  1.00  0.00     0.056 C 
HETATM   18  C16 UNL     1      20.870   1.044  49.797  1.00  0.00     0.178 C 
HETATM   19  O2  UNL     1      21.677   0.539  50.921  1.00  0.00    -0.340 OA
HETATM   20  H13 UNL     1      21.142   5.219  47.965  1.00  0.00     0.316 HD
ENDROOT
BRANCH   1  21
HETATM   21  N1  UNL     1      20.627   2.212  52.381  1.00  0.00    -0.283 NA
HETATM   22  H1  UNL     1      20.827   2.410  53.366  1.00  0.00     0.126 HD
HETATM   23  H2  UNL     1      20.563   2.593  53.367  1.00  0.00     0.126 HD
ENDBRANCH   1  21
BRANCH   7  24
HETATM   24  N4  UNL     1      27.732   0.216  52.752  1.00  0.00    -0.185 NA
BRANCH  24  25
HETATM   25  C6  UNL     1      28.499  -0.405  53.569  1.00  0.00     0.339 C 
HETATM   26  O1  UNL     1      29.516  -0.616  54.238  1.00  0.00    -0.260 OA
ENDBRANCH  24  25
ENDBRANCH   7  24
TORSDOF 3
ENDMDL
MODEL 6
REMARK VINA RESULT:      -6.8      5.533      8.112
REMARK  3 active torsions:
REMARK  status: ('A' for Active; 'I' for Inactive)
REMARK    1  A    between atoms: N1_1  and  C1_2 
REMARK    2  A    between atoms: C5_8  and  N4_9 
REMARK    3  A    between atoms: N4_9  and  C6_10 
ROOT
HETATM    1  C1  UNL     1      26.864   9.412  49.397  1.00  0.00     0.116 C 
HETATM    2  C2  UNL     1      26.508   8.347  50.158  1.00  0.00     0.081 C 
HETATM    3  C3  UNL     1      25.672   7.113  50.142  1.00  0.00     0.071 A 
HETATM    4  N2  UNL     1      24.562   7.466  50.797  1.00  0.00    -0.241 NA
HETATM    5  C4  UNL     1      23.522   6.647  51.022  1.00  0.00     0.236 A 
HETATM    6  N3  UNL     1      23.628   5.397  50.548  1.00  0.00    -0.222 NA
HETATM    7  C5  UNL     1      24.747   5.059  49.895  1.00  0.00     0.163 A 
HETATM    8  C7  UNL     1      25.847   5.854  49.632  1.00  0.00     0.019 A 
HETATM    9  C8  UNL     1      26.855   5.078  48.865  1.00  0.00     0.050 C 
HETATM   10  C9  UNL     1      27.820   5.858  48.117  1.00  0.00     0.003 C 
HETATM   11  C10 UNL     1      29.120   5.555  48.404  1.00  0.00     0.020 C 
HETATM   12  C11 UNL     1      30.494   5.965  48.014  1.00  0.00    -0.023 C 
HETATM   13  C12 UNL     1      31.374   6.718  47.298  1.00  0.00    -0.001 C 
HETATM   14  C13 UNL     1      30.576   7.651  46.414  1.00  0.00     0.296 C 
HETATM   15  N5  UNL     1      30.805   9.011  46.771  1.00  0.00     0.086 N 
HETATM   16  C14 UNL     1      29.687   9.906  46.346  1.00  0.00     0.272 C 
HETATM   17  C15 UNL     1      28.521   9.483  47.210  1.00  0.00     0.056 C 
HETATM   18  C16 UNL     1      27.299  10.345  47.189  1.00  0.00     0.178 C 
HETATM   19  O2  UNL     1      26.400   9.621  48.103  1.00  0.00    -0.340 OA
HETATM   20  H13 UNL     1      31.710   9.405  46.468  1.00  0.00     0.316 HD
ENDROOT
BRANCH   1  21
HETATM   21  N1  UNL     1      27.780  10.365  49.993  1.00  0.00    -0.283 NA
HETATM   22  H1  UNL     1      28.581   9.756  50.192  1.00  0.00     0.126 HD
HETATM   23  H2  UNL     1      28.729  10.016  50.309  1.00  0.00     0.126 HD
ENDBRANCH   1  21
BRANCH   7  24
HETATM   24  N4  UNL     1      24.665   3.684  49.469  1.00  0.00    -0.185 NA
BRANCH  24  25
HETATM   25  C6  UNL     1      24.024   2.935  50.287  1.00  0.00     0.339 C 
HETATM   26  O1  UNL     1      23.604   1.880  50.773  1.00  0.00    -0.260 OA
ENDBRANCH  24  25
ENDBRANCH   7  24
TORSDOF 3
ENDMDL
MODEL 7
REMARK VINA RESULT:      -6.8      3.030      5.537
REMARK  3 active torsions:
REMARK  status: ('A' for Active; 'I' for Inactive)
REMARK    1  A    between atoms: N1_1  and  C1_2 
REMARK    2  A    between atoms: C5_8  and  N4_9 
REMARK    3  A    between atoms: N4_9  and  C6_10 
ROOT
HETATM    1  C1  UNL     1      24.719   4.247  50.772  1.00  0.00     0.116 C 
HETATM    2  C2  UNL     1      24.951   2.927  50.982  1.00  0.00     0.081 C 
HETATM    3  C3  UNL     1      24.630   1.806  51.909  1.00  0.00     0.071 A 
HETATM    4  N2  UNL     1      25.701   1.728  52.705  1.00  0.00    -0.241 NA
HETATM    5  C4  UNL     1      25.840   0.839  53.702  1.00  0.00     0.236 A 
HETATM    6  N3  UNL     1      24.825  -0.016  53.891  1.00  0.00    -0.222 NA
HETATM    7  C5  UNL     1      23.760   0.075  53.085  1.00  0.00     0.163 A 
HETATM    8  C7  UNL     1      23.558   0.965  52.046  1.00  0.00     0.019 A 
HETATM    9  C8  UNL     1      22.229   0.721  51.429  1.00  0.00     0.050 C 
HETATM   10  C9  UNL     1      21.669   1.823  50.675  1.00  0.00     0.003 C 
HETATM   11  C10 UNL     1      21.326   1.501  49.393  1.00  0.00     0.020 C 
HETATM   12  C11 UNL     1      20.746   2.134  48.180  1.00  0.00    -0.023 C 
HETATM   13  C12 UNL     1      20.228   3.192  47.498  1.00  0.00    -0.001 C 
HETATM   14  C13 UNL     1      20.217   4.385  48.429  1.00  0.00     0.296 C 
HETATM   15  N5  UNL     1      21.078   5.414  47.949  1.00  0.00     0.086 N 
HETATM   16  C14 UNL     1      21.530   6.331  49.039  1.00  0.00     0.272 C 
HETATM   17  C15 UNL     1      22.420   5.471  49.906  1.00  0.00     0.056 C 
HETATM   18  C16 UNL     1      23.219   6.157  50.967  1.00  0.00     0.178 C 
HETATM   19  O2  UNL     1      23.919   5.027  51.601  1.00  0.00    -0.340 OA
HETATM   20  H13 UNL     1      20.717   5.960  47.151  1.00  0.00     0.316 HD
ENDROOT
BRANCH   1  21
HETATM   21  N1  UNL     1      25.353   4.847  49.614  1.00  0.00    -0.283 NA
HETATM   22  H1  UNL     1      25.593   5.771  49.990  1.00  0.00     0.126 HD
HETATM   23  H2  UNL     1      25.721   5.837  49.702  1.00  0.00     0.126 HD
ENDBRANCH   1  21
BRANCH   7  24
HETATM   24  N4  UNL     1      22.787  -0.925  53.450  1.00  0.00    -0.185 NA
BRANCH  24  25
HETATM   25  C6  UNL     1      22.722  -1.134  54.712  1.00  0.00     0.339 C 
HETATM   26  O1  UNL     1      22.681  -1.797  55.754  1.00  0.00    -0.260 OA
ENDBRANCH  24  25
ENDBRANCH   7  24
TORSDOF 3
ENDMDL
MODEL 8
REMARK VINA RESULT:      -6.6      1.996      2.759
REMARK  3 active torsions:
REMARK  status: ('A' for Active; 'I' for Inactive)
REMARK    1  A    between atoms: N1_1  and  C1_2 
REMARK    2  A    between atoms: C5_8  and  N4_9 
REMARK    3  A    between atoms: N4_9  and  C6_10 
ROOT
HETATM    1  C1  UNL     1      23.204   3.626  52.083  1.00  0.00     0.116 C 
HETATM    2  C2  UNL     1      21.894   3.959  52.193  1.00  0.00     0.081 C 
HETATM    3  C3  UNL     1      20.577   3.807  51.513  1.00  0.00     0.071 A 
HETATM    4  N2  UNL     1      20.419   4.958  50.853  1.00  0.00    -0.241 NA
HETATM    5  C4  UNL     1      19.352   5.255  50.094  1.00  0.00     0.236 A 
HETATM    6  N3  UNL     1      18.395   4.320  50.008  1.00  0.00    -0.222 NA
HETATM    7  C5  UNL     1      18.569   3.172  50.676  1.00  0.00     0.163 A 
HETATM    8  C7  UNL     1      19.641   2.808  51.469  1.00  0.00     0.019 A 
HETATM    9  C8  UNL     1      19.426   1.438  52.003  1.00  0.00     0.050 C 
HETATM   10  C9  UNL     1      20.615   0.736  52.441  1.00  0.00     0.003 C 
HETATM   11  C10 UNL     1      20.548   0.280  53.727  1.00  0.00     0.020 C 
HETATM   12  C11 UNL     1      21.376  -0.462  54.713  1.00  0.00    -0.023 C 
HETATM   13  C12 UNL     1      22.510  -1.112  55.093  1.00  0.00    -0.001 C 
HETATM   14  C13 UNL     1      23.470  -1.098  53.924  1.00  0.00     0.296 C 
HETATM   15  N5  UNL     1      24.645  -0.356  54.240  1.00  0.00     0.086 N 
HETATM   16  C14 UNL     1      25.341   0.152  53.019  1.00  0.00     0.272 C 
HETATM   17  C15 UNL     1      24.392   1.179  52.447  1.00  0.00     0.056 C 
HETATM   18  C16 UNL     1      24.898   2.042  51.337  1.00  0.00     0.178 C 
HETATM   19  O2  UNL     1      23.720   2.872  51.034  1.00  0.00    -0.340 OA
HETATM   20  H13 UNL     1      25.319  -0.832  54.861  1.00  0.00     0.316 HD
ENDROOT
BRANCH   1  21
HETATM   21  N1  UNL     1      24.089   4.097  53.132  1.00  0.00    -0.283 NA
HETATM   22  H1  UNL     1      24.611   3.238  53.335  1.00  0.00     0.126 HD
HETATM   23  H2  UNL     1      24.774   3.409  53.554  1.00  0.00     0.126 HD
ENDBRANCH   1  21
BRANCH   7  24
HETATM   24  N4  UNL     1      17.438   2.306  50.455  1.00  0.00    -0.185 NA
BRANCH  24  25
HETATM   25  C6  UNL     1      16.313   2.862  50.711  1.00  0.00     0.339 C 
HETATM   26  O1  UNL     1      15.094   3.052  50.634  1.00  0.00    -0.260 OA
ENDBRANCH  24  25
ENDBRANCH   7  24
TORSDOF 3
ENDMDL
MODEL 9
REMARK VINA RESULT:      -6.5      9.705     13.848
REMARK  3 active torsions:
REMARK  status: ('A' for Active; 'I' for Inactive)
REMARK    1  A    between atoms: N1_1  and  C1_2 
REMARK    2  A    between atoms: C5_8  and  N4_9 
REMARK    3  A    between atoms: N4_9  and  C6_10 
ROOT
HETATM    1  C1  UNL     1      31.359   5.360  48.622  1.00  0.00     0.116 C 
HETATM    2  C2  UNL     1      32.589   5.450  48.059  1.00  0.00     0.081 C 
HETATM    3  C3  UNL     1      33.332   5.171  46.797  1.00  0.00     0.071 A 
HETATM    4  N2  UNL     1      33.946   4.008  47.033  1.00  0.00    -0.241 NA
HETATM    5  C4  UNL     1      34.737   3.377  46.151  1.00  0.00     0.236 A 
HETATM    6  N3  UNL     1      34.907   3.972  44.962  1.00  0.00    -0.222 NA
HETATM    7  C5  UNL     1      34.284   5.137  44.741  1.00  0.00     0.163 A 
HETATM    8  C7  UNL     1      33.460   5.833  45.605  1.00  0.00     0.019 A 
HETATM    9  C8  UNL     1      32.972   7.071  44.943  1.00  0.00     0.050 C 
HETATM   10  C9  UNL     1      31.767   7.652  45.498  1.00  0.00     0.003 C 
HETATM   11  C10 UNL     1      31.896   8.965  45.853  1.00  0.00     0.020 C 
HETATM   12  C11 UNL     1      31.091  10.066  46.442  1.00  0.00    -0.023 C 
HETATM   13  C12 UNL     1      29.943  10.579  46.963  1.00  0.00    -0.001 C 
HETATM   14  C13 UNL     1      28.902   9.482  46.965  1.00  0.00     0.296 C 
HETATM   15  N5  UNL     1      28.513   9.152  48.296  1.00  0.00     0.086 N 
HETATM   16  C14 UNL     1      27.947   7.773  48.397  1.00  0.00     0.272 C 
HETATM   17  C15 UNL     1      29.121   6.865  48.113  1.00  0.00     0.056 C 
HETATM   18  C16 UNL     1      28.937   5.403  48.361  1.00  0.00     0.178 C 
HETATM   19  O2  UNL     1      30.244   4.858  47.959  1.00  0.00    -0.340 OA
HETATM   20  H13 UNL     1      27.884   9.829  48.757  1.00  0.00     0.316 HD
ENDROOT
BRANCH   1  21
HETATM   21  N1  UNL     1      31.231   5.820  49.992  1.00  0.00    -0.283 NA
HETATM   22  H1  UNL     1      31.862   6.629  49.977  1.00  0.00     0.126 HD
HETATM   23  H2  UNL     1      31.784   6.674  50.285  1.00  0.00     0.126 HD
ENDBRANCH   1  21
BRANCH   7  24
HETATM   24  N4  UNL     1      34.592   5.608  43.413  1.00  0.00    -0.185 NA
BRANCH  24  25
HETATM   25  C6  UNL     1      34.106   4.870  42.486  1.00  0.00     0.339 C 
HETATM   26  O1  UNL     1      33.261   4.180  41.907  1.00  0.00    -0.260 OA
ENDBRANCH  24  25
ENDBRANCH   7  24
TORSDOF 3
ENDMDL
