MODEL 1
REMARK VINA RESULT:      -7.5      0.000      0.000
REMARK  7 active torsions:
REMARK  status: ('A' for Active; 'I' for Inactive)
REMARK    1  A    between atoms: O1_2  and  C2_3 
REMARK    2  A    between atoms: C2_3  and  C3_4 
REMARK    3  A    between atoms: C3_4  and  O2_5 
REMARK    4  A    between atoms: O2_5  and  C4_6 
REMARK    5  A    between atoms: C8_12  and  N3_13 
REMARK    6  A    between atoms: N3_13  and  C9_14 
REMARK    7  A    between atoms: C11_16  and  O3_17 
ROOT
HETATM    1  C4  UNL     1      20.805   2.721  52.319  1.00  0.00     0.107 A 
HETATM    2  C5  UNL     1      20.106   1.720  52.809  1.00  0.00     0.072 A 
HETATM    3  C6  UNL     1      20.802   0.672  53.248  1.00  0.00     0.077 A 
HETATM    4  N1  UNL     1      20.323  -0.442  53.806  1.00  0.00    -0.241 NA
HETATM    5  C7  UNL     1      20.879  -1.500  54.300  1.00  0.00     0.236 A 
HETATM    6  N2  UNL     1      22.175  -1.436  54.220  1.00  0.00    -0.223 NA
HETATM    7  C8  UNL     1      22.974  -0.498  53.723  1.00  0.00     0.146 A 
HETATM    8  C15 UNL     1      22.196   0.568  53.235  1.00  0.00     0.075 A 
HETATM    9  C16 UNL     1      22.916   1.660  52.704  1.00  0.00     0.121 A 
HETATM   10  C17 UNL     1      22.216   2.802  52.225  1.00  0.00     0.136 A 
HETATM   11  O4  UNL     1      22.988   3.838  51.723  1.00  0.00    -0.344 OA
HETATM   12  C18 UNL     1      24.091   3.532  50.860  1.00  0.00     0.202 C 
HETATM   13  C19 UNL     1      24.776   2.239  51.283  1.00  0.00     0.202 C 
HETATM   14  O5  UNL     1      24.302   1.751  52.567  1.00  0.00    -0.345 OA
ENDROOT
BRANCH   7  15
HETATM   15  N3  UNL     1      24.332  -0.497  53.702  1.00  0.00    -0.325 N 
HETATM   16  H10 UNL     1      24.214   0.503  54.055  1.00  0.00     0.169 HD
BRANCH  15  17
HETATM   17  C9  UNL     1      25.733  -0.486  53.685  1.00  0.00     0.131 A 
HETATM   18  C10 UNL     1      26.640   0.254  54.410  1.00  0.00     0.087 A 
HETATM   19  C11 UNL     1      27.984   0.301  54.495  1.00  0.00     0.073 A 
HETATM   20  C13 UNL     1      28.379  -0.631  53.640  1.00  0.00     0.056 A 
HETATM   21  C14 UNL     1      27.663  -1.479  52.807  1.00  0.00     0.122 A 
HETATM   22  N4  UNL     1      26.321  -1.398  52.830  1.00  0.00    -0.243 NA
BRANCH  19  23
HETATM   23  O3  UNL     1      28.862   1.015  55.194  1.00  0.00    -0.356 OA
HETATM   24  C12 UNL     1      29.564   2.100  54.495  1.00  0.00     0.210 C 
ENDBRANCH  19  23
ENDBRANCH  15  17
ENDBRANCH   7  15
BRANCH   1  25
HETATM   25  O2  UNL     1      20.192   3.861  51.790  1.00  0.00    -0.346 OA
BRANCH  25  26
HETATM   26  C3  UNL     1      19.668   4.031  50.531  1.00  0.00     0.201 C 
BRANCH  26  27
HETATM   27  C2  UNL     1      20.307   3.598  49.310  1.00  0.00     0.193 C 
BRANCH  27  28
HETATM   28  O1  UNL     1      19.999   2.191  49.044  1.00  0.00    -0.394 OA
HETATM   29  C1  UNL     1      21.150   1.464  48.869  1.00  0.00     0.201 C 
ENDBRANCH  27  28
ENDBRANCH  26  27
ENDBRANCH  25  26
ENDBRANCH   1  25
TORSDOF 7
ENDMDL
MODEL 2
REMARK VINA RESULT:      -7.5      2.041      6.803
REMARK  7 active torsions:
REMARK  status: ('A' for Active; 'I' for Inactive)
REMARK    1  A    between atoms: O1_2  and  C2_3 
REMARK    2  A    between atoms: C2_3  and  C3_4 
REMARK    3  A    between atoms: C3_4  and  O2_5 
REMARK    4  A    between atoms: O2_5  and  C4_6 
REMARK    5  A    between atoms: C8_12  and  N3_13 
REMARK    6  A    between atoms: N3_13  and  C9_14 
REMARK    7  A    between atoms: C11_16  and  O3_17 
ROOT
HETATM    1  C4  UNL     1      26.137  -0.357  52.918  1.00  0.00     0.107 A 
HETATM    2  C5  UNL     1      25.334  -0.955  53.773  1.00  0.00     0.072 A 
HETATM    3  C6  UNL     1      24.087  -0.490  53.838  1.00  0.00     0.077 A 
HETATM    4  N1  UNL     1      23.093  -0.946  54.602  1.00  0.00    -0.241 NA
HETATM    5  C7  UNL     1      21.848  -0.616  54.733  1.00  0.00     0.236 A 
HETATM    6  N2  UNL     1      21.532   0.368  53.945  1.00  0.00    -0.223 NA
HETATM    7  C8  UNL     1      22.262   1.058  53.075  1.00  0.00     0.146 A 
HETATM    8  C15 UNL     1      23.578   0.561  53.069  1.00  0.00     0.075 A 
HETATM    9  C16 UNL     1      24.464   1.180  52.162  1.00  0.00     0.121 A 
HETATM   10  C17 UNL     1      25.804   0.717  52.056  1.00  0.00     0.136 A 
HETATM   11  O4  UNL     1      26.616   1.369  51.140  1.00  0.00    -0.344 OA
HETATM   12  C18 UNL     1      26.577   2.800  51.066  1.00  0.00     0.202 C 
HETATM   13  C19 UNL     1      25.167   3.323  51.306  1.00  0.00     0.202 C 
HETATM   14  O5  UNL     1      24.174   2.261  51.328  1.00  0.00    -0.345 OA
ENDROOT
BRANCH   7  15
HETATM   15  N3  UNL     1      21.845   2.064  52.263  1.00  0.00    -0.325 N 
HETATM   16  H10 UNL     1      20.917   1.539  52.293  1.00  0.00     0.169 HD
BRANCH  15  17
HETATM   17  C9  UNL     1      21.406   3.099  51.426  1.00  0.00     0.131 A 
HETATM   18  C10 UNL     1      21.517   4.466  51.546  1.00  0.00     0.087 A 
HETATM   19  C11 UNL     1      21.172   5.522  50.782  1.00  0.00     0.073 A 
HETATM   20  C13 UNL     1      20.623   4.964  49.714  1.00  0.00     0.056 A 
HETATM   21  C14 UNL     1      20.396   3.635  49.383  1.00  0.00     0.122 A 
HETATM   22  N4  UNL     1      20.791   2.693  50.257  1.00  0.00    -0.243 NA
BRANCH  19  23
HETATM   23  O3  UNL     1      21.277   6.843  50.896  1.00  0.00    -0.356 OA
HETATM   24  C12 UNL     1      22.566   7.454  50.544  1.00  0.00     0.210 C 
ENDBRANCH  19  23
ENDBRANCH  15  17
ENDBRANCH   7  15
BRANCH   1  25
HETATM   25  O2  UNL     1      27.478  -0.723  52.783  1.00  0.00    -0.346 OA
BRANCH  25  26
HETATM   26  C3  UNL     1      28.564  -0.219  53.459  1.00  0.00     0.201 C 
BRANCH  26  27
HETATM   27  C2  UNL     1      28.560   0.161  54.851  1.00  0.00     0.193 C 
BRANCH  27  28
HETATM   28  O1  UNL     1      29.054   1.532  55.008  1.00  0.00    -0.394 OA
HETATM   29  C1  UNL     1      28.883   2.248  53.850  1.00  0.00     0.201 C 
ENDBRANCH  27  28
ENDBRANCH  26  27
ENDBRANCH  25  26
ENDBRANCH   1  25
TORSDOF 7
ENDMDL
MODEL 3
REMARK VINA RESULT:      -7.2      2.465      7.639
REMARK  7 active torsions:
REMARK  status: ('A' for Active; 'I' for Inactive)
REMARK    1  A    between atoms: O1_2  and  C2_3 
REMARK    2  A    between atoms: C2_3  and  C3_4 
REMARK    3  A    between atoms: C3_4  and  O2_5 
REMARK    4  A    between atoms: O2_5  and  C4_6 
REMARK    5  A    between atoms: C8_12  and  N3_13 
REMARK    6  A    between atoms: N3_13  and  C9_14 
REMARK    7  A    between atoms: C11_16  and  O3_17 
ROOT
HETATM    1  C4  UNL     1      27.130   1.190  53.436  1.00  0.00     0.107 A 
HETATM    2  C5  UNL     1      27.606   1.931  52.458  1.00  0.00     0.072 A 
HETATM    3  C6  UNL     1      26.715   2.407  51.589  1.00  0.00     0.077 A 
HETATM    4  N1  UNL     1      26.950   3.197  50.539  1.00  0.00    -0.241 NA
HETATM    5  C7  UNL     1      26.187   3.750  49.653  1.00  0.00     0.236 A 
HETATM    6  N2  UNL     1      24.937   3.454  49.852  1.00  0.00    -0.223 NA
HETATM    7  C8  UNL     1      24.355   2.698  50.777  1.00  0.00     0.146 A 
HETATM    8  C15 UNL     1      25.335   2.186  51.646  1.00  0.00     0.075 A 
HETATM    9  C16 UNL     1      24.858   1.387  52.708  1.00  0.00     0.121 A 
HETATM   10  C17 UNL     1      25.771   0.859  53.661  1.00  0.00     0.136 A 
HETATM   11  O4  UNL     1      25.230   0.088  54.678  1.00  0.00    -0.344 OA
HETATM   12  C18 UNL     1      24.226  -0.884  54.359  1.00  0.00     0.202 C 
HETATM   13  C19 UNL     1      23.314  -0.387  53.246  1.00  0.00     0.202 C 
HETATM   14  O5  UNL     1      23.531   1.016  52.933  1.00  0.00    -0.345 OA
ENDROOT
BRANCH   7  15
HETATM   15  N3  UNL     1      23.028   2.459  50.932  1.00  0.00    -0.325 N 
HETATM   16  H10 UNL     1      23.000   2.618  49.878  1.00  0.00     0.169 HD
BRANCH  15  17
HETATM   17  C9  UNL     1      21.656   2.212  51.082  1.00  0.00     0.131 A 
HETATM   18  C10 UNL     1      20.643   3.008  51.567  1.00  0.00     0.087 A 
HETATM   19  C11 UNL     1      19.309   2.877  51.706  1.00  0.00     0.073 A 
HETATM   20  C13 UNL     1      19.066   1.669  51.220  1.00  0.00     0.056 A 
HETATM   21  C14 UNL     1      19.910   0.700  50.697  1.00  0.00     0.122 A 
HETATM   22  N4  UNL     1      21.224   0.979  50.633  1.00  0.00    -0.243 NA
BRANCH  19  23
HETATM   23  O3  UNL     1      18.328   3.644  52.175  1.00  0.00    -0.356 OA
HETATM   24  C12 UNL     1      17.006   3.514  51.549  1.00  0.00     0.210 C 
ENDBRANCH  19  23
ENDBRANCH  15  17
ENDBRANCH   7  15
BRANCH   1  25
HETATM   25  O2  UNL     1      27.964   0.600  54.389  1.00  0.00    -0.346 OA
BRANCH  25  26
HETATM   26  C3  UNL     1      29.045  -0.221  54.173  1.00  0.00     0.201 C 
BRANCH  26  27
HETATM   27  C2  UNL     1      29.061  -1.333  53.252  1.00  0.00     0.193 C 
BRANCH  27  28
HETATM   28  O1  UNL     1      27.898  -2.196  53.473  1.00  0.00    -0.394 OA
HETATM   29  C1  UNL     1      27.124  -2.270  52.342  1.00  0.00     0.201 C 
ENDBRANCH  27  28
ENDBRANCH  26  27
ENDBRANCH  25  26
ENDBRANCH   1  25
TORSDOF 7
ENDMDL
MODEL 4
REMARK VINA RESULT:      -6.8      2.608      7.951
REMARK  7 active torsions:
REMARK  status: ('A' for Active; 'I' for Inactive)
REMARK    1  A    between atoms: O1_2  and  C2_3 
REMARK    2  A    between atoms: C2_3  and  C3_4 
REMARK    3  A    between atoms: C3_4  and  O2_5 
REMARK    4  A    between atoms: O2_5  and  C4_6 
REMARK    5  A    between atoms: C8_12  and  N3_13 
REMARK    6  A    between atoms: N3_13  and  C9_14 
REMARK    7  A    between atoms: C11_16  and  O3_17 
ROOT
HETATM    1  C4  UNL     1      25.816   0.852  52.855  1.00  0.00     0.107 A 
HETATM    2  C5  UNL     1      26.406   1.668  52.007  1.00  0.00     0.072 A 
HETATM    3  C6  UNL     1      25.606   2.350  51.188  1.00  0.00     0.077 A 
HETATM    4  N1  UNL     1      25.964   3.249  50.269  1.00  0.00    -0.241 NA
HETATM    5  C7  UNL     1      25.300   3.996  49.448  1.00  0.00     0.236 A 
HETATM    6  N2  UNL     1      24.019   3.807  49.566  1.00  0.00    -0.223 NA
HETATM    7  C8  UNL     1      23.325   2.996  50.357  1.00  0.00     0.146 A 
HETATM    8  C15 UNL     1      24.210   2.268  51.173  1.00  0.00     0.075 A 
HETATM    9  C16 UNL     1      23.610   1.384  52.095  1.00  0.00     0.121 A 
HETATM   10  C17 UNL     1      24.423   0.637  52.990  1.00  0.00     0.136 A 
HETATM   11  O4  UNL     1      23.764  -0.207  53.871  1.00  0.00    -0.344 OA
HETATM   12  C18 UNL     1      22.684  -1.016  53.387  1.00  0.00     0.202 C 
HETATM   13  C19 UNL     1      21.876  -0.276  52.330  1.00  0.00     0.202 C 
HETATM   14  O5  UNL     1      22.244   1.127  52.226  1.00  0.00    -0.345 OA
ENDROOT
BRANCH   7  15
HETATM   15  N3  UNL     1      21.975   2.878  50.437  1.00  0.00    -0.325 N 
HETATM   16  H10 UNL     1      22.047   3.801  50.966  1.00  0.00     0.169 HD
BRANCH  15  17
HETATM   17  C9  UNL     1      20.580   2.765  50.524  1.00  0.00     0.131 A 
HETATM   18  C10 UNL     1      19.669   3.419  51.321  1.00  0.00     0.087 A 
HETATM   19  C11 UNL     1      18.326   3.411  51.442  1.00  0.00     0.073 A 
HETATM   20  C13 UNL     1      17.940   2.540  50.522  1.00  0.00     0.056 A 
HETATM   21  C14 UNL     1      18.663   1.765  49.626  1.00  0.00     0.122 A 
HETATM   22  N4  UNL     1      20.002   1.880  49.634  1.00  0.00    -0.243 NA
BRANCH  19  23
HETATM   23  O3  UNL     1      17.444   4.041  52.212  1.00  0.00    -0.356 OA
HETATM   24  C12 UNL     1      16.066   4.151  51.716  1.00  0.00     0.210 C 
ENDBRANCH  19  23
ENDBRANCH  15  17
ENDBRANCH   7  15
BRANCH   1  25
HETATM   25  O2  UNL     1      26.545   0.052  53.738  1.00  0.00    -0.346 OA
BRANCH  25  26
HETATM   26  C3  UNL     1      27.784  -0.511  53.543  1.00  0.00     0.201 C 
BRANCH  26  27
HETATM   27  C2  UNL     1      28.946  -0.243  54.358  1.00  0.00     0.193 C 
BRANCH  27  28
HETATM   28  O1  UNL     1      28.791   1.031  55.065  1.00  0.00    -0.394 OA
HETATM   29  C1  UNL     1      29.308   2.065  54.327  1.00  0.00     0.201 C 
ENDBRANCH  27  28
ENDBRANCH  26  27
ENDBRANCH  25  26
ENDBRANCH   1  25
TORSDOF 7
ENDMDL
MODEL 5
REMARK VINA RESULT:      -6.8      1.872      7.340
REMARK  7 active torsions:
REMARK  status: ('A' for Active; 'I' for Inactive)
REMARK    1  A    between atoms: O1_2  and  C2_3 
REMARK    2  A    between atoms: C2_3  and  C3_4 
REMARK    3  A    between atoms: C3_4  and  O2_5 
REMARK    4  A    between atoms: O2_5  and  C4_6 
REMARK    5  A    between atoms: C8_12  and  N3_13 
REMARK    6  A    between atoms: N3_13  and  C9_14 
REMARK    7  A    between atoms: C11_16  and  O3_17 
ROOT
HETATM    1  C4  UNL     1      25.263   0.927  52.432  1.00  0.00     0.107 A 
HETATM    2  C5  UNL     1      24.873   0.021  53.304  1.00  0.00     0.072 A 
HETATM    3  C6  UNL     1      23.557  -0.102  53.478  1.00  0.00     0.077 A 
HETATM    4  N1  UNL     1      22.924  -0.961  54.280  1.00  0.00    -0.241 NA
HETATM    5  C7  UNL     1      21.676  -1.207  54.513  1.00  0.00     0.236 A 
HETATM    6  N2  UNL     1      20.901  -0.440  53.804  1.00  0.00    -0.223 NA
HETATM    7  C8  UNL     1      21.185   0.517  52.928  1.00  0.00     0.146 A 
HETATM    8  C15 UNL     1      22.582   0.640  52.806  1.00  0.00     0.075 A 
HETATM    9  C16 UNL     1      23.035   1.602  51.878  1.00  0.00     0.121 A 
HETATM   10  C17 UNL     1      24.429   1.769  51.656  1.00  0.00     0.136 A 
HETATM   11  O4  UNL     1      24.800   2.728  50.727  1.00  0.00    -0.344 OA
HETATM   12  C18 UNL     1      24.143   4.001  50.737  1.00  0.00     0.202 C 
HETATM   13  C19 UNL     1      22.671   3.856  51.100  1.00  0.00     0.202 C 
HETATM   14  O5  UNL     1      22.238   2.468  51.127  1.00  0.00    -0.345 OA
ENDROOT
BRANCH   7  15
HETATM   15  N3  UNL     1      20.309   1.260  52.204  1.00  0.00    -0.325 N 
HETATM   16  H10 UNL     1      20.725   2.070  52.759  1.00  0.00     0.169 HD
BRANCH  15  17
HETATM   17  C9  UNL     1      19.409   2.035  51.460  1.00  0.00     0.131 A 
HETATM   18  C10 UNL     1      18.846   1.825  50.221  1.00  0.00     0.087 A 
HETATM   19  C11 UNL     1      17.949   2.480  49.457  1.00  0.00     0.073 A 
HETATM   20  C13 UNL     1      17.625   3.531  50.195  1.00  0.00     0.056 A 
HETATM   21  C14 UNL     1      18.061   3.950  51.444  1.00  0.00     0.122 A 
HETATM   22  N4  UNL     1      18.970   3.189  52.080  1.00  0.00    -0.243 NA
BRANCH  19  23
HETATM   23  O3  UNL     1      17.404   2.280  48.260  1.00  0.00    -0.356 OA
HETATM   24  C12 UNL     1      17.778   3.205  47.181  1.00  0.00     0.210 C 
ENDBRANCH  19  23
ENDBRANCH  15  17
ENDBRANCH   7  15
BRANCH   1  25
HETATM   25  O2  UNL     1      26.615   1.181  52.188  1.00  0.00    -0.346 OA
BRANCH  25  26
HETATM   26  C3  UNL     1      27.422   2.118  52.791  1.00  0.00     0.201 C 
BRANCH  26  27
HETATM   27  C2  UNL     1      28.702   1.833  53.394  1.00  0.00     0.193 C 
BRANCH  27  28
HETATM   28  O1  UNL     1      28.531   1.443  54.796  1.00  0.00    -0.394 OA
HETATM   29  C1  UNL     1      28.424   0.080  54.915  1.00  0.00     0.201 C 
ENDBRANCH  27  28
ENDBRANCH  26  27
ENDBRANCH  25  26
ENDBRANCH   1  25
TORSDOF 7
ENDMDL
MODEL 6
REMARK VINA RESULT:      -6.7      3.190      5.974
REMARK  7 active torsions:
REMARK  status: ('A' for Active; 'I' for Inactive)
REMARK    1  A    between atoms: O1_2  and  C2_3 
REMARK    2  A    between atoms: C2_3  and  C3_4 
REMARK    3  A    between atoms: C3_4  and  O2_5 
REMARK    4  A    between atoms: O2_5  and  C4_6 
REMARK    5  A    between atoms: C8_12  and  N3_13 
REMARK    6  A    between atoms: N3_13  and  C9_14 
REMARK    7  A    between atoms: C11_16  and  O3_17 
ROOT
HETATM    1  C4  UNL     1      23.406   0.176  52.693  1.00  0.00     0.107 A 
HETATM    2  C5  UNL     1      24.526  -0.164  53.295  1.00  0.00     0.072 A 
HETATM    3  C6  UNL     1      25.608   0.544  52.973  1.00  0.00     0.077 A 
HETATM    4  N1  UNL     1      26.841   0.406  53.465  1.00  0.00    -0.241 NA
HETATM    5  C7  UNL     1      27.953   1.038  53.269  1.00  0.00     0.236 A 
HETATM    6  N2  UNL     1      27.807   2.000  52.408  1.00  0.00    -0.223 NA
HETATM    7  C8  UNL     1      26.742   2.406  51.724  1.00  0.00     0.146 A 
HETATM    8  C15 UNL     1      25.635   1.607  52.065  1.00  0.00     0.075 A 
HETATM    9  C16 UNL     1      24.417   1.945  51.438  1.00  0.00     0.121 A 
HETATM   10  C17 UNL     1      23.235   1.221  51.752  1.00  0.00     0.136 A 
HETATM   11  O4  UNL     1      22.075   1.612  51.101  1.00  0.00    -0.344 OA
HETATM   12  C18 UNL     1      22.124   1.900  49.698  1.00  0.00     0.202 C 
HETATM   13  C19 UNL     1      23.442   2.563  49.320  1.00  0.00     0.202 C 
HETATM   14  O5  UNL     1      24.228   2.945  50.482  1.00  0.00    -0.345 OA
ENDROOT
BRANCH   7  15
HETATM   15  N3  UNL     1      26.666   3.446  50.855  1.00  0.00    -0.325 N 
HETATM   16  H10 UNL     1      25.684   3.552  51.257  1.00  0.00     0.169 HD
BRANCH  15  17
HETATM   17  C9  UNL     1      26.580   4.523  49.962  1.00  0.00     0.131 A 
HETATM   18  C10 UNL     1      25.643   5.525  49.844  1.00  0.00     0.087 A 
HETATM   19  C11 UNL     1      25.502   6.612  49.060  1.00  0.00     0.073 A 
HETATM   20  C13 UNL     1      26.580   6.579  48.290  1.00  0.00     0.056 A 
HETATM   21  C14 UNL     1      27.634   5.680  48.221  1.00  0.00     0.122 A 
HETATM   22  N4  UNL     1      27.627   4.636  49.069  1.00  0.00    -0.243 NA
BRANCH  19  23
HETATM   23  O3  UNL     1      24.598   7.581  48.943  1.00  0.00    -0.356 OA
HETATM   24  C12 UNL     1      24.001   8.105  50.179  1.00  0.00     0.210 C 
ENDBRANCH  19  23
ENDBRANCH  15  17
ENDBRANCH   7  15
BRANCH   1  25
HETATM   25  O2  UNL     1      22.210  -0.513  52.914  1.00  0.00    -0.346 OA
BRANCH  25  26
HETATM   26  C3  UNL     1      21.312  -0.340  53.941  1.00  0.00     0.201 C 
BRANCH  26  27
HETATM   27  C2  UNL     1      19.881  -0.250  53.774  1.00  0.00     0.193 C 
BRANCH  27  28
HETATM   28  O1  UNL     1      19.552   0.208  52.421  1.00  0.00    -0.394 OA
HETATM   29  C1  UNL     1      18.382  -0.361  51.984  1.00  0.00     0.201 C 
ENDBRANCH  27  28
ENDBRANCH  26  27
ENDBRANCH  25  26
ENDBRANCH   1  25
TORSDOF 7
ENDMDL
MODEL 7
REMARK VINA RESULT:      -6.6      3.660      5.228
REMARK  7 active torsions:
REMARK  status: ('A' for Active; 'I' for Inactive)
REMARK    1  A    between atoms: O1_2  and  C2_3 
REMARK    2  A    between atoms: C2_3  and  C3_4 
REMARK    3  A    between atoms: C3_4  and  O2_5 
REMARK    4  A    between atoms: O2_5  and  C4_6 
REMARK    5  A    between atoms: C8_12  and  N3_13 
REMARK    6  A    between atoms: N3_13  and  C9_14 
REMARK    7  A    between atoms: C11_16  and  O3_17 
ROOT
HETATM    1  C4  UNL     1      24.000   6.467  49.171  1.00  0.00     0.107 A 
HETATM    2  C5  UNL     1      22.710   6.448  49.432  1.00  0.00     0.072 A 
HETATM    3  C6  UNL     1      22.285   5.480  50.243  1.00  0.00     0.077 A 
HETATM    4  N1  UNL     1      21.038   5.272  50.671  1.00  0.00    -0.241 NA
HETATM    5  C7  UNL     1      20.505   4.408  51.474  1.00  0.00     0.236 A 
HETATM    6  N2  UNL     1      21.394   3.585  51.943  1.00  0.00    -0.223 NA
HETATM    7  C8  UNL     1      22.702   3.494  51.725  1.00  0.00     0.146 A 
HETATM    8  C15 UNL     1      23.098   4.508  50.834  1.00  0.00     0.075 A 
HETATM    9  C16 UNL     1      24.477   4.557  50.534  1.00  0.00     0.121 A 
HETATM   10  C17 UNL     1      24.977   5.574  49.675  1.00  0.00     0.136 A 
HETATM   11  O4  UNL     1      26.342   5.563  49.429  1.00  0.00    -0.344 OA
HETATM   12  C18 UNL     1      26.993   4.316  49.156  1.00  0.00     0.202 C 
HETATM   13  C19 UNL     1      26.382   3.187  49.976  1.00  0.00     0.202 C 
HETATM   14  O5  UNL     1      25.455   3.670  50.986  1.00  0.00    -0.345 OA
ENDROOT
BRANCH   7  15
HETATM   15  N3  UNL     1      23.572   2.612  52.280  1.00  0.00    -0.325 N 
HETATM   16  H10 UNL     1      23.113   1.923  51.608  1.00  0.00     0.169 HD
BRANCH  15  17
HETATM   17  C9  UNL     1      24.468   1.695  52.847  1.00  0.00     0.131 A 
HETATM   18  C10 UNL     1      25.649   1.889  53.526  1.00  0.00     0.087 A 
HETATM   19  C11 UNL     1      26.542   1.085  54.138  1.00  0.00     0.073 A 
HETATM   20  C13 UNL     1      26.031  -0.126  53.971  1.00  0.00     0.056 A 
HETATM   21  C14 UNL     1      24.882  -0.559  53.324  1.00  0.00     0.122 A 
HETATM   22  N4  UNL     1      24.094   0.368  52.752  1.00  0.00    -0.243 NA
BRANCH  19  23
HETATM   23  O3  UNL     1      27.684   1.269  54.794  1.00  0.00    -0.356 OA
HETATM   24  C12 UNL     1      28.635   0.150  54.829  1.00  0.00     0.210 C 
ENDBRANCH  19  23
ENDBRANCH  15  17
ENDBRANCH   7  15
BRANCH   1  25
HETATM   25  O2  UNL     1      24.564   7.407  48.305  1.00  0.00    -0.346 OA
BRANCH  25  26
HETATM   26  C3  UNL     1      24.612   8.772  48.453  1.00  0.00     0.201 C 
BRANCH  26  27
HETATM   27  C2  UNL     1      25.823   9.559  48.436  1.00  0.00     0.193 C 
BRANCH  27  28
HETATM   28  O1  UNL     1      26.213   9.927  49.800  1.00  0.00    -0.394 OA
HETATM   29  C1  UNL     1      27.290   9.187  50.217  1.00  0.00     0.201 C 
ENDBRANCH  27  28
ENDBRANCH  26  27
ENDBRANCH  25  26
ENDBRANCH   1  25
TORSDOF 7
ENDMDL
MODEL 8
REMARK VINA RESULT:      -6.5      3.956      6.654
REMARK  7 active torsions:
REMARK  status: ('A' for Active; 'I' for Inactive)
REMARK    1  A    between atoms: O1_2  and  C2_3 
REMARK    2  A    between atoms: C2_3  and  C3_4 
REMARK    3  A    between atoms: C3_4  and  O2_5 
REMARK    4  A    between atoms: O2_5  and  C4_6 
REMARK    5  A    between atoms: C8_12  and  N3_13 
REMARK    6  A    between atoms: N3_13  and  C9_14 
REMARK    7  A    between atoms: C11_16  and  O3_17 
ROOT
HETATM    1  C4  UNL     1      22.327   1.941  52.456  1.00  0.00     0.107 A 
HETATM    2  C5  UNL     1      23.428   1.224  52.535  1.00  0.00     0.072 A 
HETATM    3  C6  UNL     1      24.521   1.757  51.988  1.00  0.00     0.077 A 
HETATM    4  N1  UNL     1      25.750   1.237  51.965  1.00  0.00    -0.241 NA
HETATM    5  C7  UNL     1      26.885   1.657  51.509  1.00  0.00     0.236 A 
HETATM    6  N2  UNL     1      26.773   2.831  50.964  1.00  0.00    -0.223 NA
HETATM    7  C8  UNL     1      25.717   3.622  50.804  1.00  0.00     0.146 A 
HETATM    8  C15 UNL     1      24.581   3.003  51.358  1.00  0.00     0.075 A 
HETATM    9  C16 UNL     1      23.383   3.747  51.292  1.00  0.00     0.121 A 
HETATM   10  C17 UNL     1      22.192   3.221  51.863  1.00  0.00     0.136 A 
HETATM   11  O4  UNL     1      21.056   4.008  51.765  1.00  0.00    -0.344 OA
HETATM   12  C18 UNL     1      20.765   4.663  50.524  1.00  0.00     0.202 C 
HETATM   13  C19 UNL     1      22.042   5.121  49.832  1.00  0.00     0.202 C 
HETATM   14  O5  UNL     1      23.214   4.992  50.683  1.00  0.00    -0.345 OA
ENDROOT
BRANCH   7  15
HETATM   15  N3  UNL     1      25.689   4.857  50.242  1.00  0.00    -0.325 N 
HETATM   16  H10 UNL     1      26.099   5.159  51.178  1.00  0.00     0.169 HD
BRANCH  15  17
HETATM   17  C9  UNL     1      25.665   6.136  49.669  1.00  0.00     0.131 A 
HETATM   18  C10 UNL     1      26.126   7.345  50.139  1.00  0.00     0.087 A 
HETATM   19  C11 UNL     1      26.188   8.599  49.649  1.00  0.00     0.073 A 
HETATM   20  C13 UNL     1      25.658   8.484  48.440  1.00  0.00     0.056 A 
HETATM   21  C14 UNL     1      25.125   7.393  47.768  1.00  0.00     0.122 A 
HETATM   22  N4  UNL     1      25.127   6.205  48.398  1.00  0.00    -0.243 NA
BRANCH  19  23
HETATM   23  O3  UNL     1      26.632   9.769  50.101  1.00  0.00    -0.356 OA
HETATM   24  C12 UNL     1      27.619  10.483  49.281  1.00  0.00     0.210 C 
ENDBRANCH  19  23
ENDBRANCH  15  17
ENDBRANCH   7  15
BRANCH   1  25
HETATM   25  O2  UNL     1      21.107   1.478  52.955  1.00  0.00    -0.346 OA
BRANCH  25  26
HETATM   26  C3  UNL     1      20.838   0.261  53.534  1.00  0.00     0.201 C 
BRANCH  26  27
HETATM   27  C2  UNL     1      21.123  -0.076  54.909  1.00  0.00     0.193 C 
BRANCH  27  28
HETATM   28  O1  UNL     1      21.673  -1.431  55.000  1.00  0.00    -0.394 OA
HETATM   29  C1  UNL     1      23.007  -1.396  55.319  1.00  0.00     0.201 C 
ENDBRANCH  27  28
ENDBRANCH  26  27
ENDBRANCH  25  26
ENDBRANCH   1  25
TORSDOF 7
ENDMDL
MODEL 9
REMARK VINA RESULT:      -6.4      2.884      8.045
REMARK  7 active torsions:
REMARK  status: ('A' for Active; 'I' for Inactive)
REMARK    1  A    between atoms: O1_2  and  C2_3 
REMARK    2  A    between atoms: C2_3  and  C3_4 
REMARK    3  A    between atoms: C3_4  and  O2_5 
REMARK    4  A    between atoms: O2_5  and  C4_6 
REMARK    5  A    between atoms: C8_12  and  N3_13 
REMARK    6  A    between atoms: N3_13  and  C9_14 
REMARK    7  A    between atoms: C11_16  and  O3_17 
ROOT
HETATM    1  C4  UNL     1      25.822   0.730  52.232  1.00  0.00     0.107 A 
HETATM    2  C5  UNL     1      26.657   1.498  51.565  1.00  0.00     0.072 A 
HETATM    3  C6  UNL     1      26.113   2.481  50.850  1.00  0.00     0.077 A 
HETATM    4  N1  UNL     1      26.751   3.398  50.118  1.00  0.00    -0.241 NA
HETATM    5  C7  UNL     1      26.353   4.411  49.417  1.00  0.00     0.236 A 
HETATM    6  N2  UNL     1      25.060   4.533  49.450  1.00  0.00    -0.223 NA
HETATM    7  C8  UNL     1      24.130   3.804  50.058  1.00  0.00     0.146 A 
HETATM    8  C15 UNL     1      24.745   2.756  50.766  1.00  0.00     0.075 A 
HETATM    9  C16 UNL     1      23.877   1.913  51.494  1.00  0.00     0.121 A 
HETATM   10  C17 UNL     1      24.411   0.852  52.274  1.00  0.00     0.136 A 
HETATM   11  O4  UNL     1      23.500   0.069  52.965  1.00  0.00    -0.344 OA
HETATM   12  C18 UNL     1      22.300  -0.354  52.305  1.00  0.00     0.202 C 
HETATM   13  C19 UNL     1      21.781   0.726  51.364  1.00  0.00     0.202 C 
HETATM   14  O5  UNL     1      22.483   1.989  51.524  1.00  0.00    -0.345 OA
ENDROOT
BRANCH   7  15
HETATM   15  N3  UNL     1      22.788   4.017  50.064  1.00  0.00    -0.325 N 
HETATM   16  H10 UNL     1      23.067   4.992  50.392  1.00  0.00     0.169 HD
BRANCH  15  17
HETATM   17  C9  UNL     1      21.406   4.246  50.072  1.00  0.00     0.131 A 
HETATM   18  C10 UNL     1      20.444   3.934  51.006  1.00  0.00     0.087 A 
HETATM   19  C11 UNL     1      19.118   4.150  51.121  1.00  0.00     0.073 A 
HETATM   20  C13 UNL     1      18.821   4.829  50.023  1.00  0.00     0.056 A 
HETATM   21  C14 UNL     1      19.605   5.241  48.955  1.00  0.00     0.122 A 
HETATM   22  N4  UNL     1      20.915   4.939  48.982  1.00  0.00    -0.243 NA
BRANCH  19  23
HETATM   23  O3  UNL     1      18.187   3.849  52.022  1.00  0.00    -0.356 OA
HETATM   24  C12 UNL     1      16.782   3.933  51.600  1.00  0.00     0.210 C 
ENDBRANCH  19  23
ENDBRANCH  15  17
ENDBRANCH   7  15
BRANCH   1  25
HETATM   25  O2  UNL     1      26.263  -0.360  52.987  1.00  0.00    -0.346 OA
BRANCH  25  26
HETATM   26  C3  UNL     1      27.390  -0.445  53.770  1.00  0.00     0.201 C 
BRANCH  26  27
HETATM   27  C2  UNL     1      27.555   0.209  55.047  1.00  0.00     0.193 C 
BRANCH  27  28
HETATM   28  O1  UNL     1      28.808   0.967  55.076  1.00  0.00    -0.394 OA
HETATM   29  C1  UNL     1      29.465   0.870  53.875  1.00  0.00     0.201 C 
ENDBRANCH  27  28
ENDBRANCH  26  27
ENDBRANCH  25  26
ENDBRANCH   1  25
TORSDOF 7
ENDMDL
