MODEL 1
REMARK VINA RESULT:      -7.4      0.000      0.000
REMARK  4 active torsions:
REMARK  status: ('A' for Active; 'I' for Inactive)
REMARK    1  A    between atoms: C2_2  and  C3_3 
REMARK    2  A    between atoms: C4_4  and  C5_5 
REMARK       I    between atoms: C5_5  and  N1_7 
REMARK    3  A    between atoms: N1_7  and  C6_8 
REMARK    4  A    between atoms: C10_15  and  N5_16 
ROOT
HETATM    1  C6  UNL     1      23.851   1.715  52.567  1.00  0.00     0.248 A 
HETATM    2  N2  UNL     1      23.156   0.677  53.334  1.00  0.00    -0.269 NA
HETATM    3  C7  UNL     1      22.211   0.167  52.620  1.00  0.00     0.145 A 
HETATM    4  C8  UNL     1      22.121   0.764  51.292  1.00  0.00     0.089 A 
HETATM    5  N3  UNL     1      21.334   0.580  50.224  1.00  0.00    -0.240 NA
HETATM    6  C9  UNL     1      21.528   1.332  49.105  1.00  0.00     0.236 A 
HETATM    7  N4  UNL     1      22.512   2.249  49.094  1.00  0.00    -0.224 NA
HETATM    8  C10 UNL     1      23.323   2.456  50.164  1.00  0.00     0.143 A 
HETATM    9  C16 UNL     1      23.135   1.703  51.294  1.00  0.00     0.062 A 
ENDROOT
BRANCH   1  10
HETATM   10  N1  UNL     1      25.209   1.209  52.361  1.00  0.00    -0.331 N 
HETATM   11  C5  UNL     1      26.224   1.653  53.230  1.00  0.00     0.243 C 
HETATM   12  O1  UNL     1      25.951   2.450  54.139  1.00  0.00    -0.269 OA
HETATM   13  H6  UNL     1      25.355   0.543  51.578  1.00  0.00     0.165 HD
BRANCH  11  14
HETATM   14  C4  UNL     1      27.599   1.171  53.057  1.00  0.00     0.074 C 
HETATM   15  C3  UNL     1      28.322   0.353  53.805  1.00  0.00     0.005 C 
BRANCH  15  16
HETATM   16  C2  UNL     1      29.704  -0.086  53.566  1.00  0.00    -0.010 C 
HETATM   17  C1  UNL     1      29.897  -1.392  53.519  1.00  0.00     0.011 C 
ENDBRANCH  15  16
ENDBRANCH  11  14
ENDBRANCH   1  10
BRANCH   8  18
HETATM   18  N5  UNL     1      24.288   3.456  49.961  1.00  0.00    -0.336 N 
HETATM   19  C11 UNL     1      23.804   4.748  50.315  1.00  0.00     0.112 A 
HETATM   20  C12 UNL     1      24.526   5.858  50.212  1.00  0.00     0.026 A 
HETATM   21 BR1  UNL     1      23.923   7.592  50.670  1.00  0.00    -0.050 Br
HETATM   22  C13 UNL     1      25.913   5.788  49.706  1.00  0.00     0.018 A 
HETATM   23  C14 UNL     1      26.362   4.568  49.375  1.00  0.00    -0.005 A 
HETATM   24  C15 UNL     1      25.642   3.292  49.456  1.00  0.00     0.157 A 
ENDBRANCH   8  18
TORSDOF 4
ENDMDL
MODEL 2
REMARK VINA RESULT:      -7.0      2.747      4.985
REMARK  4 active torsions:
REMARK  status: ('A' for Active; 'I' for Inactive)
REMARK    1  A    between atoms: C2_2  and  C3_3 
REMARK    2  A    between atoms: C4_4  and  C5_5 
REMARK       I    between atoms: C5_5  and  N1_7 
REMARK    3  A    between atoms: N1_7  and  C6_8 
REMARK    4  A    between atoms: C10_15  and  N5_16 
ROOT
HETATM    1  C6  UNL     1      25.208   5.238  49.757  1.00  0.00     0.248 A 
HETATM    2  N2  UNL     1      26.080   6.414  49.826  1.00  0.00    -0.269 NA
HETATM    3  C7  UNL     1      25.387   7.452  50.153  1.00  0.00     0.145 A 
HETATM    4  C8  UNL     1      23.974   7.148  50.350  1.00  0.00     0.089 A 
HETATM    5  N3  UNL     1      22.892   7.862  50.687  1.00  0.00    -0.240 NA
HETATM    6  C9  UNL     1      21.682   7.245  50.788  1.00  0.00     0.236 A 
HETATM    7  N4  UNL     1      21.596   5.925  50.547  1.00  0.00    -0.224 NA
HETATM    8  C10 UNL     1      22.678   5.178  50.205  1.00  0.00     0.143 A 
HETATM    9  C16 UNL     1      23.901   5.791  50.101  1.00  0.00     0.062 A 
ENDROOT
BRANCH   1  10
HETATM   10  N1  UNL     1      25.655   4.352  50.832  1.00  0.00    -0.331 N 
HETATM   11  C5  UNL     1      26.326   3.165  50.481  1.00  0.00     0.243 C 
HETATM   12  O1  UNL     1      26.523   2.899  49.286  1.00  0.00    -0.269 OA
HETATM   13  H6  UNL     1      25.454   4.646  51.806  1.00  0.00     0.165 HD
BRANCH  11  14
HETATM   14  C4  UNL     1      26.789   2.248  51.528  1.00  0.00     0.074 C 
HETATM   15  C3  UNL     1      26.461   0.989  51.772  1.00  0.00     0.005 C 
BRANCH  15  16
HETATM   16  C2  UNL     1      26.971   0.128  52.850  1.00  0.00    -0.010 C 
HETATM   17  C1  UNL     1      26.876  -1.173  52.645  1.00  0.00     0.011 C 
ENDBRANCH  15  16
ENDBRANCH  11  14
ENDBRANCH   1  10
BRANCH   8  18
HETATM   18  N5  UNL     1      22.389   3.820  49.993  1.00  0.00    -0.336 N 
HETATM   19  C11 UNL     1      22.571   3.044  51.174  1.00  0.00     0.112 A 
HETATM   20  C12 UNL     1      22.365   1.732  51.231  1.00  0.00     0.026 A 
HETATM   21 BR1  UNL     1      22.595   0.664  52.775  1.00  0.00    -0.050 Br
HETATM   22  C13 UNL     1      21.920   1.006  50.023  1.00  0.00     0.018 A 
HETATM   23  C14 UNL     1      21.750   1.744  48.917  1.00  0.00    -0.005 A 
HETATM   24  C15 UNL     1      21.952   3.189  48.759  1.00  0.00     0.157 A 
ENDBRANCH   8  18
TORSDOF 4
ENDMDL
MODEL 3
REMARK VINA RESULT:      -7.0      2.443      4.854
REMARK  4 active torsions:
REMARK  status: ('A' for Active; 'I' for Inactive)
REMARK    1  A    between atoms: C2_2  and  C3_3 
REMARK    2  A    between atoms: C4_4  and  C5_5 
REMARK       I    between atoms: C5_5  and  N1_7 
REMARK    3  A    between atoms: N1_7  and  C6_8 
REMARK    4  A    between atoms: C10_15  and  N5_16 
ROOT
HETATM    1  C6  UNL     1      26.352   4.054  49.557  1.00  0.00     0.248 A 
HETATM    2  N2  UNL     1      27.370   4.784  48.796  1.00  0.00    -0.269 NA
HETATM    3  C7  UNL     1      27.058   6.034  48.738  1.00  0.00     0.145 A 
HETATM    4  C8  UNL     1      25.812   6.338  49.432  1.00  0.00     0.089 A 
HETATM    5  N3  UNL     1      25.096   7.450  49.647  1.00  0.00    -0.240 NA
HETATM    6  C9  UNL     1      23.939   7.380  50.362  1.00  0.00     0.236 A 
HETATM    7  N4  UNL     1      23.535   6.190  50.841  1.00  0.00    -0.224 NA
HETATM    8  C10 UNL     1      24.242   5.048  50.637  1.00  0.00     0.143 A 
HETATM    9  C16 UNL     1      25.408   5.109  49.919  1.00  0.00     0.062 A 
ENDROOT
BRANCH   1  10
HETATM   10  N1  UNL     1      27.028   3.577  50.764  1.00  0.00    -0.331 N 
HETATM   11  C5  UNL     1      26.738   2.276  51.219  1.00  0.00     0.243 C 
HETATM   12  O1  UNL     1      25.930   1.572  50.597  1.00  0.00    -0.269 OA
HETATM   13  H6  UNL     1      27.691   4.227  51.227  1.00  0.00     0.165 HD
BRANCH  11  14
HETATM   14  C4  UNL     1      27.393   1.760  52.426  1.00  0.00     0.074 C 
HETATM   15  C3  UNL     1      27.403   0.541  52.942  1.00  0.00     0.005 C 
BRANCH  15  16
HETATM   16  C2  UNL     1      28.086   0.096  54.165  1.00  0.00    -0.010 C 
HETATM   17  C1  UNL     1      29.310  -0.374  54.006  1.00  0.00     0.011 C 
ENDBRANCH  15  16
ENDBRANCH  11  14
ENDBRANCH   1  10
BRANCH   8  18
HETATM   18  N5  UNL     1      23.660   3.907  51.214  1.00  0.00    -0.336 N 
HETATM   19  C11 UNL     1      22.919   3.146  50.265  1.00  0.00     0.112 A 
HETATM   20  C12 UNL     1      22.272   2.025  50.565  1.00  0.00     0.026 A 
HETATM   21 BR1  UNL     1      21.277   0.984  49.337  1.00  0.00    -0.050 Br
HETATM   22  C13 UNL     1      22.301   1.508  51.949  1.00  0.00     0.018 A 
HETATM   23  C14 UNL     1      23.001   2.230  52.836  1.00  0.00    -0.005 A 
HETATM   24  C15 UNL     1      23.744   3.473  52.599  1.00  0.00     0.157 A 
ENDBRANCH   8  18
TORSDOF 4
ENDMDL
MODEL 4
REMARK VINA RESULT:      -6.9      2.661      6.334
REMARK  4 active torsions:
REMARK  status: ('A' for Active; 'I' for Inactive)
REMARK    1  A    between atoms: C2_2  and  C3_3 
REMARK    2  A    between atoms: C4_4  and  C5_5 
REMARK       I    between atoms: C5_5  and  N1_7 
REMARK    3  A    between atoms: N1_7  and  C6_8 
REMARK    4  A    between atoms: C10_15  and  N5_16 
ROOT
HETATM    1  C6  UNL     1      26.477   1.998  53.681  1.00  0.00     0.248 A 
HETATM    2  N2  UNL     1      27.830   2.562  53.639  1.00  0.00    -0.269 NA
HETATM    3  C7  UNL     1      28.689   1.618  53.453  1.00  0.00     0.145 A 
HETATM    4  C8  UNL     1      28.069   0.303  53.343  1.00  0.00     0.089 A 
HETATM    5  N3  UNL     1      28.522  -0.944  53.152  1.00  0.00    -0.240 NA
HETATM    6  C9  UNL     1      27.641  -1.981  53.096  1.00  0.00     0.236 A 
HETATM    7  N4  UNL     1      26.327  -1.733  53.234  1.00  0.00    -0.224 NA
HETATM    8  C10 UNL     1      25.841  -0.479  53.429  1.00  0.00     0.143 A 
HETATM    9  C16 UNL     1      26.721   0.571  53.486  1.00  0.00     0.062 A 
ENDROOT
BRANCH   1  10
HETATM   10  N1  UNL     1      25.791   2.535  52.505  1.00  0.00    -0.331 N 
HETATM   11  C5  UNL     1      24.653   3.339  52.709  1.00  0.00     0.243 C 
HETATM   12  O1  UNL     1      24.261   3.572  53.861  1.00  0.00    -0.269 OA
HETATM   13  H6  UNL     1      26.181   2.294  51.575  1.00  0.00     0.165 HD
BRANCH  11  14
HETATM   14  C4  UNL     1      23.934   3.895  51.557  1.00  0.00     0.074 C 
HETATM   15  C3  UNL     1      24.173   3.780  50.260  1.00  0.00     0.005 C 
BRANCH  15  16
HETATM   16  C2  UNL     1      23.403   4.371  49.156  1.00  0.00    -0.010 C 
HETATM   17  C1  UNL     1      22.843   3.517  48.318  1.00  0.00     0.011 C 
ENDBRANCH  15  16
ENDBRANCH  11  14
ENDBRANCH   1  10
BRANCH   8  18
HETATM   18  N5  UNL     1      24.443  -0.422  53.551  1.00  0.00    -0.336 N 
HETATM   19  C11 UNL     1      23.822   0.076  52.370  1.00  0.00     0.112 A 
HETATM   20  C12 UNL     1      22.509   0.227  52.237  1.00  0.00     0.026 A 
HETATM   21 BR1  UNL     1      21.643   0.884  50.688  1.00  0.00    -0.050 Br
HETATM   22  C13 UNL     1      21.612  -0.132  53.355  1.00  0.00     0.018 A 
HETATM   23  C14 UNL     1      22.204  -0.601  54.463  1.00  0.00    -0.005 A 
HETATM   24  C15 UNL     1      23.638  -0.802  54.700  1.00  0.00     0.157 A 
ENDBRANCH   8  18
TORSDOF 4
ENDMDL
MODEL 5
REMARK VINA RESULT:      -6.8      3.806      5.311
REMARK  4 active torsions:
REMARK  status: ('A' for Active; 'I' for Inactive)
REMARK    1  A    between atoms: C2_2  and  C3_3 
REMARK    2  A    between atoms: C4_4  and  C5_5 
REMARK       I    between atoms: C5_5  and  N1_7 
REMARK    3  A    between atoms: N1_7  and  C6_8 
REMARK    4  A    between atoms: C10_15  and  N5_16 
ROOT
HETATM    1  C6  UNL     1      19.444   3.071  50.316  1.00  0.00     0.248 A 
HETATM    2  N2  UNL     1      18.236   2.864  49.513  1.00  0.00    -0.269 NA
HETATM    3  C7  UNL     1      18.532   2.911  48.259  1.00  0.00     0.145 A 
HETATM    4  C8  UNL     1      19.951   3.153  48.023  1.00  0.00     0.089 A 
HETATM    5  N3  UNL     1      20.721   3.280  46.933  1.00  0.00    -0.240 NA
HETATM    6  C9  UNL     1      22.056   3.507  47.073  1.00  0.00     0.236 A 
HETATM    7  N4  UNL     1      22.580   3.599  48.308  1.00  0.00    -0.224 NA
HETATM    8  C10 UNL     1      21.822   3.474  49.429  1.00  0.00     0.143 A 
HETATM    9  C16 UNL     1      20.477   3.245  49.297  1.00  0.00     0.062 A 
ENDROOT
BRANCH   1  10
HETATM   10  N1  UNL     1      19.670   1.809  51.021  1.00  0.00    -0.331 N 
HETATM   11  C5  UNL     1      20.008   1.862  52.387  1.00  0.00     0.243 C 
HETATM   12  O1  UNL     1      20.106   2.959  52.956  1.00  0.00    -0.269 OA
HETATM   13  H6  UNL     1      19.569   0.933  50.474  1.00  0.00     0.165 HD
BRANCH  11  14
HETATM   14  C4  UNL     1      20.246   0.619  53.131  1.00  0.00     0.074 C 
HETATM   15  C3  UNL     1      21.262   0.261  53.900  1.00  0.00     0.005 C 
BRANCH  15  16
HETATM   16  C2  UNL     1      21.431  -1.011  54.617  1.00  0.00    -0.010 C 
HETATM   17  C1  UNL     1      22.636  -1.246  55.104  1.00  0.00     0.011 C 
ENDBRANCH  15  16
ENDBRANCH  11  14
ENDBRANCH   1  10
BRANCH   8  18
HETATM   18  N5  UNL     1      22.548   3.602  50.624  1.00  0.00    -0.336 N 
HETATM   19  C11 UNL     1      23.214   2.393  50.978  1.00  0.00     0.112 A 
HETATM   20  C12 UNL     1      23.964   2.257  52.067  1.00  0.00     0.026 A 
HETATM   21 BR1  UNL     1      24.864   0.672  52.574  1.00  0.00    -0.050 Br
HETATM   22  C13 UNL     1      24.139   3.401  52.985  1.00  0.00     0.018 A 
HETATM   23  C14 UNL     1      23.510   4.536  52.645  1.00  0.00    -0.005 A 
HETATM   24  C15 UNL     1      22.667   4.779  51.469  1.00  0.00     0.157 A 
ENDBRANCH   8  18
TORSDOF 4
ENDMDL
MODEL 6
REMARK VINA RESULT:      -6.8      3.451      5.692
REMARK  4 active torsions:
REMARK  status: ('A' for Active; 'I' for Inactive)
REMARK    1  A    between atoms: C2_2  and  C3_3 
REMARK    2  A    between atoms: C4_4  and  C5_5 
REMARK       I    between atoms: C5_5  and  N1_7 
REMARK    3  A    between atoms: N1_7  and  C6_8 
REMARK    4  A    between atoms: C10_15  and  N5_16 
ROOT
HETATM    1  C6  UNL     1      26.538   5.156  48.928  1.00  0.00     0.248 A 
HETATM    2  N2  UNL     1      27.854   5.336  48.309  1.00  0.00    -0.269 NA
HETATM    3  C7  UNL     1      28.199   6.578  48.372  1.00  0.00     0.145 A 
HETATM    4  C8  UNL     1      27.196   7.410  49.026  1.00  0.00     0.089 A 
HETATM    5  N3  UNL     1      27.096   8.713  49.323  1.00  0.00    -0.240 NA
HETATM    6  C9  UNL     1      25.986   9.176  49.962  1.00  0.00     0.236 A 
HETATM    7  N4  UNL     1      25.007   8.312  50.285  1.00  0.00    -0.224 NA
HETATM    8  C10 UNL     1      25.083   6.987  49.995  1.00  0.00     0.143 A 
HETATM    9  C16 UNL     1      26.198   6.512  49.352  1.00  0.00     0.062 A 
ENDROOT
BRANCH   1  10
HETATM   10  N1  UNL     1      26.769   4.325  50.110  1.00  0.00    -0.331 N 
HETATM   11  C5  UNL     1      25.888   3.254  50.353  1.00  0.00     0.243 C 
HETATM   12  O1  UNL     1      24.950   3.039  49.572  1.00  0.00    -0.269 OA
HETATM   13  H6  UNL     1      27.577   4.570  50.714  1.00  0.00     0.165 HD
BRANCH  11  14
HETATM   14  C4  UNL     1      26.083   2.397  51.528  1.00  0.00     0.074 C 
HETATM   15  C3  UNL     1      26.675   1.218  51.641  1.00  0.00     0.005 C 
BRANCH  15  16
HETATM   16  C2  UNL     1      26.832   0.414  52.862  1.00  0.00    -0.010 C 
HETATM   17  C1  UNL     1      26.364  -0.819  52.808  1.00  0.00     0.011 C 
ENDBRANCH  15  16
ENDBRANCH  11  14
ENDBRANCH   1  10
BRANCH   8  18
HETATM   18  N5  UNL     1      23.964   6.248  50.411  1.00  0.00    -0.336 N 
HETATM   19  C11 UNL     1      23.028   6.054  49.354  1.00  0.00     0.112 A 
HETATM   20  C12 UNL     1      21.886   5.389  49.496  1.00  0.00     0.026 A 
HETATM   21 BR1  UNL     1      20.616   5.109  48.122  1.00  0.00    -0.050 Br
HETATM   22  C13 UNL     1      21.535   4.804  50.806  1.00  0.00     0.018 A 
HETATM   23  C14 UNL     1      22.421   4.990  51.795  1.00  0.00    -0.005 A 
HETATM   24  C15 UNL     1      23.701   5.705  51.734  1.00  0.00     0.157 A 
ENDBRANCH   8  18
TORSDOF 4
ENDMDL
MODEL 7
REMARK VINA RESULT:      -6.7      2.176      2.694
REMARK  4 active torsions:
REMARK  status: ('A' for Active; 'I' for Inactive)
REMARK    1  A    between atoms: C2_2  and  C3_3 
REMARK    2  A    between atoms: C4_4  and  C5_5 
REMARK       I    between atoms: C5_5  and  N1_7 
REMARK    3  A    between atoms: N1_7  and  C6_8 
REMARK    4  A    between atoms: C10_15  and  N5_16 
ROOT
HETATM    1  C6  UNL     1      21.594   3.453  52.093  1.00  0.00     0.248 A 
HETATM    2  N2  UNL     1      20.289   3.192  52.708  1.00  0.00    -0.269 NA
HETATM    3  C7  UNL     1      19.365   3.253  51.811  1.00  0.00     0.145 A 
HETATM    4  C8  UNL     1      19.886   3.556  50.483  1.00  0.00     0.089 A 
HETATM    5  N3  UNL     1      19.343   3.717  49.269  1.00  0.00    -0.240 NA
HETATM    6  C9  UNL     1      20.143   4.003  48.204  1.00  0.00     0.236 A 
HETATM    7  N4  UNL     1      21.470   4.118  48.394  1.00  0.00    -0.224 NA
HETATM    8  C10 UNL     1      22.045   3.960  49.614  1.00  0.00     0.143 A 
HETATM    9  C16 UNL     1      21.246   3.672  50.691  1.00  0.00     0.062 A 
ENDROOT
BRANCH   1  10
HETATM   10  N1  UNL     1      22.344   2.202  52.214  1.00  0.00    -0.331 N 
HETATM   11  C5  UNL     1      23.658   2.260  52.716  1.00  0.00     0.243 C 
HETATM   12  O1  UNL     1      24.146   3.352  53.041  1.00  0.00    -0.269 OA
HETATM   13  H6  UNL     1      21.864   1.329  51.922  1.00  0.00     0.165 HD
BRANCH  11  14
HETATM   14  C4  UNL     1      24.445   1.029  52.851  1.00  0.00     0.074 C 
HETATM   15  C3  UNL     1      25.589   0.676  52.286  1.00  0.00     0.005 C 
BRANCH  15  16
HETATM   16  C2  UNL     1      26.322  -0.585  52.471  1.00  0.00    -0.010 C 
HETATM   17  C1  UNL     1      27.569  -0.473  52.891  1.00  0.00     0.011 C 
ENDBRANCH  15  16
ENDBRANCH  11  14
ENDBRANCH   1  10
BRANCH   8  18
HETATM   18  N5  UNL     1      23.440   4.119  49.611  1.00  0.00    -0.336 N 
HETATM   19  C11 UNL     1      23.826   5.472  49.835  1.00  0.00     0.112 A 
HETATM   20  C12 UNL     1      25.090   5.881  49.874  1.00  0.00     0.026 A 
HETATM   21 BR1  UNL     1      25.645   7.665  50.168  1.00  0.00    -0.050 Br
HETATM   22  C13 UNL     1      26.182   4.905  49.680  1.00  0.00     0.018 A 
HETATM   23  C14 UNL     1      25.812   3.634  49.470  1.00  0.00    -0.005 A 
HETATM   24  C15 UNL     1      24.449   3.092  49.411  1.00  0.00     0.157 A 
ENDBRANCH   8  18
TORSDOF 4
ENDMDL
MODEL 8
REMARK VINA RESULT:      -6.7      7.439     10.250
REMARK  4 active torsions:
REMARK  status: ('A' for Active; 'I' for Inactive)
REMARK    1  A    between atoms: C2_2  and  C3_3 
REMARK    2  A    between atoms: C4_4  and  C5_5 
REMARK       I    between atoms: C5_5  and  N1_7 
REMARK    3  A    between atoms: N1_7  and  C6_8 
REMARK    4  A    between atoms: C10_15  and  N5_16 
ROOT
HETATM    1  C6  UNL     1      31.931   5.224  46.887  1.00  0.00     0.248 A 
HETATM    2  N2  UNL     1      32.260   3.883  46.393  1.00  0.00    -0.269 NA
HETATM    3  C7  UNL     1      33.420   3.529  46.832  1.00  0.00     0.145 A 
HETATM    4  C8  UNL     1      34.042   4.548  47.670  1.00  0.00     0.089 A 
HETATM    5  N3  UNL     1      35.200   4.647  48.335  1.00  0.00    -0.240 NA
HETATM    6  C9  UNL     1      35.477   5.775  49.046  1.00  0.00     0.236 A 
HETATM    7  N4  UNL     1      34.576   6.774  49.066  1.00  0.00    -0.224 NA
HETATM    8  C10 UNL     1      33.395   6.699  48.400  1.00  0.00     0.143 A 
HETATM    9  C16 UNL     1      33.109   5.566  47.683  1.00  0.00     0.062 A 
ENDROOT
BRANCH   1  10
HETATM   10  N1  UNL     1      30.784   5.045  47.778  1.00  0.00    -0.331 N 
HETATM   11  C5  UNL     1      29.706   5.943  47.661  1.00  0.00     0.243 C 
HETATM   12  O1  UNL     1      29.749   6.853  46.820  1.00  0.00    -0.269 OA
HETATM   13  H6  UNL     1      30.824   4.260  48.454  1.00  0.00     0.165 HD
BRANCH  11  14
HETATM   14  C4  UNL     1      28.537   5.801  48.536  1.00  0.00     0.074 C 
HETATM   15  C3  UNL     1      27.605   4.861  48.577  1.00  0.00     0.005 C 
BRANCH  15  16
HETATM   16  C2  UNL     1      26.455   4.785  49.488  1.00  0.00    -0.010 C 
HETATM   17  C1  UNL     1      25.749   5.893  49.623  1.00  0.00     0.011 C 
ENDBRANCH  15  16
ENDBRANCH  11  14
ENDBRANCH   1  10
BRANCH   8  18
HETATM   18  N5  UNL     1      32.589   7.841  48.541  1.00  0.00    -0.336 N 
HETATM   19  C11 UNL     1      32.818   8.789  47.503  1.00  0.00     0.112 A 
HETATM   20  C12 UNL     1      32.181   9.952  47.415  1.00  0.00     0.026 A 
HETATM   21 BR1  UNL     1      32.453  11.240  46.056  1.00  0.00    -0.050 Br
HETATM   22  C13 UNL     1      31.172  10.315  48.432  1.00  0.00     0.018 A 
HETATM   23  C14 UNL     1      30.962   9.417  49.405  1.00  0.00    -0.005 A 
HETATM   24  C15 UNL     1      31.613   8.114  49.583  1.00  0.00     0.157 A 
ENDBRANCH   8  18
TORSDOF 4
ENDMDL
MODEL 9
REMARK VINA RESULT:      -6.6      3.387      5.474
REMARK  4 active torsions:
REMARK  status: ('A' for Active; 'I' for Inactive)
REMARK    1  A    between atoms: C2_2  and  C3_3 
REMARK    2  A    between atoms: C4_4  and  C5_5 
REMARK       I    between atoms: C5_5  and  N1_7 
REMARK    3  A    between atoms: N1_7  and  C6_8 
REMARK    4  A    between atoms: C10_15  and  N5_16 
ROOT
HETATM    1  C6  UNL     1      24.705   3.325  49.834  1.00  0.00     0.248 A 
HETATM    2  N2  UNL     1      26.106   3.348  49.405  1.00  0.00    -0.269 NA
HETATM    3  C7  UNL     1      26.562   4.553  49.469  1.00  0.00     0.145 A 
HETATM    4  C8  UNL     1      25.566   5.509  49.941  1.00  0.00     0.089 A 
HETATM    5  N3  UNL     1      25.557   6.829  50.171  1.00  0.00    -0.240 NA
HETATM    6  C9  UNL     1      24.422   7.427  50.626  1.00  0.00     0.236 A 
HETATM    7  N4  UNL     1      23.325   6.677  50.837  1.00  0.00    -0.224 NA
HETATM    8  C10 UNL     1      23.308   5.337  50.612  1.00  0.00     0.143 A 
HETATM    9  C16 UNL     1      24.447   4.727  50.154  1.00  0.00     0.062 A 
ENDROOT
BRANCH   1  10
HETATM   10  N1  UNL     1      24.684   2.538  51.068  1.00  0.00    -0.331 N 
HETATM   11  C5  UNL     1      23.652   1.596  51.239  1.00  0.00     0.243 C 
HETATM   12  O1  UNL     1      22.796   1.453  50.354  1.00  0.00    -0.269 OA
HETATM   13  H6  UNL     1      25.437   2.716  51.759  1.00  0.00     0.165 HD
BRANCH  11  14
HETATM   14  C4  UNL     1      23.594   0.787  52.462  1.00  0.00     0.074 C 
HETATM   15  C3  UNL     1      22.575   0.157  53.025  1.00  0.00     0.005 C 
BRANCH  15  16
HETATM   16  C2  UNL     1      22.593  -0.638  54.261  1.00  0.00    -0.010 C 
HETATM   17  C1  UNL     1      21.452  -1.211  54.599  1.00  0.00     0.011 C 
ENDBRANCH  15  16
ENDBRANCH  11  14
ENDBRANCH   1  10
BRANCH   8  18
HETATM   18  N5  UNL     1      22.073   4.730  50.889  1.00  0.00    -0.336 N 
HETATM   19  C11 UNL     1      21.253   4.628  49.728  1.00  0.00     0.112 A 
HETATM   20  C12 UNL     1      20.036   4.093  49.731  1.00  0.00     0.026 A 
HETATM   21 BR1  UNL     1      18.915   3.938  48.215  1.00  0.00    -0.050 Br
HETATM   22  C13 UNL     1      19.470   3.564  50.989  1.00  0.00     0.018 A 
HETATM   23  C14 UNL     1      20.248   3.663  52.077  1.00  0.00    -0.005 A 
HETATM   24  C15 UNL     1      21.596   4.234  52.170  1.00  0.00     0.157 A 
ENDBRANCH   8  18
TORSDOF 4
ENDMDL
