MODEL 1
REMARK VINA RESULT:      -9.2      0.000      0.000
REMARK  4 active torsions:
REMARK  status: ('A' for Active; 'I' for Inactive)
REMARK    1  A    between atoms: C8_10  and  N3_11 
REMARK       I    between atoms: N3_11  and  C9_12 
REMARK    2  A    between atoms: C9_12  and  C10_14 
REMARK    3  A    between atoms: C11_15  and  C12_16 
REMARK    4  A    between atoms: C12_16  and  N4_17 
ROOT
HETATM    1  C1  UNL     1      19.003   0.413  50.361  1.00  0.00     0.045 C 
HETATM    2  C2  UNL     1      20.052   1.111  51.200  1.00  0.00    -0.064 C 
HETATM    3  C3  UNL     1      21.299   1.688  51.143  1.00  0.00     0.097 C 
HETATM    4  N1  UNL     1      22.037   2.309  52.296  1.00  0.00    -0.320 N 
HETATM    5  C4  UNL     1      22.715   3.295  51.580  1.00  0.00     0.130 C 
HETATM    6  C5  UNL     1      22.052   4.516  51.181  1.00  0.00     0.119 C 
HETATM    7  N2  UNL     1      21.542   5.492  50.860  1.00  0.00    -0.190 NA
HETATM    8  C6  UNL     1      23.985   3.180  51.266  1.00  0.00     0.033 A 
HETATM    9  C7  UNL     1      24.586   4.175  50.559  1.00  0.00     0.048 A 
HETATM   10  C8  UNL     1      25.887   4.261  50.139  1.00  0.00     0.053 A 
HETATM   11  C15 UNL     1      26.732   3.228  50.450  1.00  0.00     0.147 A 
HETATM   12  N5  UNL     1      26.162   2.201  51.165  1.00  0.00    -0.258 NA
HETATM   13  C16 UNL     1      24.880   2.182  51.545  1.00  0.00     0.069 A 
HETATM   14  C17 UNL     1      25.087   1.006  52.191  1.00  0.00     0.034 C 
HETATM   15  C18 UNL     1      25.937  -0.104  52.553  1.00  0.00     0.022 C 
HETATM   16  C19 UNL     1      25.352  -1.038  53.342  1.00  0.00     0.116 C 
HETATM   17  N6  UNL     1      23.993  -0.605  53.583  1.00  0.00    -0.277 NA
HETATM   18  C20 UNL     1      23.497  -1.031  54.725  1.00  0.00     0.091 C 
HETATM   19  C21 UNL     1      22.085  -0.657  55.106  1.00  0.00     0.073 C 
HETATM   20  C22 UNL     1      21.293  -0.847  53.840  1.00  0.00     0.175 C 
HETATM   21  O2  UNL     1      21.707   0.011  52.859  1.00  0.00    -0.366 OA
HETATM   22  C23 UNL     1      21.359   1.297  53.135  1.00  0.00     0.232 C 
HETATM   23  C24 UNL     1      19.908   1.475  52.671  1.00  0.00     0.089 C 
ENDROOT
BRANCH  10  24
HETATM   24  N3  UNL     1      26.318   5.371  49.393  1.00  0.00    -0.322 N 
HETATM   25  C9  UNL     1      27.433   5.643  48.570  1.00  0.00     0.245 C 
HETATM   26  O1  UNL     1      28.170   4.628  48.547  1.00  0.00    -0.268 OA
HETATM   27  H6  UNL     1      25.584   6.092  49.555  1.00  0.00     0.169 HD
BRANCH  25  28
HETATM   28  C10 UNL     1      27.707   6.870  47.857  1.00  0.00     0.072 C 
HETATM   29  C11 UNL     1      28.783   7.537  47.457  1.00  0.00     0.008 C 
BRANCH  29  30
HETATM   30  C12 UNL     1      30.267   7.487  47.469  1.00  0.00     0.299 C 
BRANCH  30  31
HETATM   31  N4  UNL     1      30.750   7.199  48.821  1.00  0.00     0.083 N 
HETATM   32  C13 UNL     1      31.705   8.247  49.224  1.00  0.00     0.309 C 
HETATM   33  C14 UNL     1      31.453   5.954  48.895  1.00  0.00     0.309 C 
ENDBRANCH  30  31
ENDBRANCH  29  30
ENDBRANCH  25  28
ENDBRANCH  10  24
TORSDOF 4
ENDMDL
MODEL 2
REMARK VINA RESULT:      -8.8      4.310      9.904
REMARK  4 active torsions:
REMARK  status: ('A' for Active; 'I' for Inactive)
REMARK    1  A    between atoms: C8_10  and  N3_11 
REMARK       I    between atoms: N3_11  and  C9_12 
REMARK    2  A    between atoms: C9_12  and  C10_14 
REMARK    3  A    between atoms: C11_15  and  C12_16 
REMARK    4  A    between atoms: C12_16  and  N4_17 
ROOT
HETATM    1  C1  UNL     1      23.651   5.131  52.046  1.00  0.00     0.045 C 
HETATM    2  C2  UNL     1      23.319   3.705  51.665  1.00  0.00    -0.064 C 
HETATM    3  C3  UNL     1      22.326   2.755  51.720  1.00  0.00     0.097 C 
HETATM    4  N1  UNL     1      22.415   1.353  51.185  1.00  0.00    -0.320 N 
HETATM    5  C4  UNL     1      21.077   1.201  50.825  1.00  0.00     0.130 C 
HETATM    6  C5  UNL     1      20.565   1.772  49.600  1.00  0.00     0.119 C 
HETATM    7  N2  UNL     1      20.142   2.215  48.630  1.00  0.00    -0.190 NA
HETATM    8  C6  UNL     1      20.232   0.509  51.556  1.00  0.00     0.033 A 
HETATM    9  C7  UNL     1      18.938   0.405  51.153  1.00  0.00     0.048 A 
HETATM   10  C8  UNL     1      17.906  -0.267  51.752  1.00  0.00     0.053 A 
HETATM   11  C15 UNL     1      18.168  -0.938  52.919  1.00  0.00     0.147 A 
HETATM   12  N5  UNL     1      19.467  -0.857  53.360  1.00  0.00    -0.258 NA
HETATM   13  C16 UNL     1      20.429  -0.181  52.722  1.00  0.00     0.069 A 
HETATM   14  C17 UNL     1      21.335  -0.595  53.644  1.00  0.00     0.034 C 
HETATM   15  C18 UNL     1      21.667  -1.292  54.865  1.00  0.00     0.022 C 
HETATM   16  C19 UNL     1      22.980  -1.264  55.200  1.00  0.00     0.116 C 
HETATM   17  N6  UNL     1      23.667  -0.506  54.178  1.00  0.00    -0.277 NA
HETATM   18  C20 UNL     1      24.925  -0.853  54.017  1.00  0.00     0.091 C 
HETATM   19  C21 UNL     1      25.766  -0.142  52.984  1.00  0.00     0.073 C 
HETATM   20  C22 UNL     1      25.417   1.312  53.156  1.00  0.00     0.175 C 
HETATM   21  O2  UNL     1      24.103   1.548  52.865  1.00  0.00    -0.366 OA
HETATM   22  C23 UNL     1      23.851   1.427  51.534  1.00  0.00     0.232 C 
HETATM   23  C24 UNL     1      24.228   2.764  50.885  1.00  0.00     0.089 C 
ENDROOT
BRANCH  10  24
HETATM   24  N3  UNL     1      16.619  -0.239  51.187  1.00  0.00    -0.322 N 
HETATM   25  C9  UNL     1      15.497   0.612  51.312  1.00  0.00     0.245 C 
HETATM   26  O1  UNL     1      15.774   1.520  52.132  1.00  0.00    -0.268 OA
HETATM   27  H6  UNL     1      16.595  -1.067  50.559  1.00  0.00     0.169 HD
BRANCH  25  28
HETATM   28  C10 UNL     1      14.233   0.486  50.624  1.00  0.00     0.072 C 
HETATM   29  C11 UNL     1      13.136   1.220  50.473  1.00  0.00     0.008 C 
BRANCH  29  30
HETATM   30  C12 UNL     1      12.529   2.517  50.864  1.00  0.00     0.299 C 
BRANCH  30  31
HETATM   31  N4  UNL     1      12.581   2.680  52.318  1.00  0.00     0.083 N 
HETATM   32  C13 UNL     1      11.406   2.024  52.918  1.00  0.00     0.309 C 
HETATM   33  C14 UNL     1      12.530   4.055  52.715  1.00  0.00     0.309 C 
ENDBRANCH  30  31
ENDBRANCH  29  30
ENDBRANCH  25  28
ENDBRANCH  10  24
TORSDOF 4
ENDMDL
MODEL 3
REMARK VINA RESULT:      -8.5      4.223     10.095
REMARK  4 active torsions:
REMARK  status: ('A' for Active; 'I' for Inactive)
REMARK    1  A    between atoms: C8_10  and  N3_11 
REMARK       I    between atoms: N3_11  and  C9_12 
REMARK    2  A    between atoms: C9_12  and  C10_14 
REMARK    3  A    between atoms: C11_15  and  C12_16 
REMARK    4  A    between atoms: C12_16  and  N4_17 
ROOT
HETATM    1  C1  UNL     1      23.437   5.396  51.724  1.00  0.00     0.045 C 
HETATM    2  C2  UNL     1      23.183   3.944  51.382  1.00  0.00    -0.064 C 
HETATM    3  C3  UNL     1      22.277   2.921  51.538  1.00  0.00     0.097 C 
HETATM    4  N1  UNL     1      22.423   1.524  51.002  1.00  0.00    -0.320 N 
HETATM    5  C4  UNL     1      21.072   1.264  50.775  1.00  0.00     0.130 C 
HETATM    6  C5  UNL     1      20.399   1.780  49.605  1.00  0.00     0.119 C 
HETATM    7  N2  UNL     1      19.851   2.179  48.680  1.00  0.00    -0.190 NA
HETATM    8  C6  UNL     1      20.360   0.518  51.588  1.00  0.00     0.033 A 
HETATM    9  C7  UNL     1      19.044   0.309  51.315  1.00  0.00     0.048 A 
HETATM   10  C8  UNL     1      18.132  -0.435  52.016  1.00  0.00     0.053 A 
HETATM   11  C15 UNL     1      18.558  -1.070  53.153  1.00  0.00     0.147 A 
HETATM   12  N5  UNL     1      19.884  -0.884  53.464  1.00  0.00    -0.258 NA
HETATM   13  C16 UNL     1      20.723  -0.142  52.732  1.00  0.00     0.069 A 
HETATM   14  C17 UNL     1      21.745  -0.474  53.562  1.00  0.00     0.034 C 
HETATM   15  C18 UNL     1      22.248  -1.130  54.746  1.00  0.00     0.022 C 
HETATM   16  C19 UNL     1      23.581  -0.996  54.951  1.00  0.00     0.116 C 
HETATM   17  N6  UNL     1      24.103  -0.198  53.863  1.00  0.00    -0.277 NA
HETATM   18  C20 UNL     1      25.363  -0.449  53.581  1.00  0.00     0.091 C 
HETATM   19  C21 UNL     1      26.040   0.315  52.467  1.00  0.00     0.073 C 
HETATM   20  C22 UNL     1      25.597   1.739  52.668  1.00  0.00     0.175 C 
HETATM   21  O2  UNL     1      24.246   1.869  52.507  1.00  0.00    -0.366 OA
HETATM   22  C23 UNL     1      23.876   1.713  51.207  1.00  0.00     0.232 C 
HETATM   23  C24 UNL     1      24.081   3.069  50.520  1.00  0.00     0.089 C 
ENDROOT
BRANCH  10  24
HETATM   24  N3  UNL     1      16.798  -0.513  51.580  1.00  0.00    -0.322 N 
HETATM   25  C9  UNL     1      15.684   0.356  51.629  1.00  0.00     0.245 C 
HETATM   26  O1  UNL     1      16.026   1.413  52.212  1.00  0.00    -0.268 OA
HETATM   27  H6  UNL     1      16.723  -1.454  51.143  1.00  0.00     0.169 HD
BRANCH  25  28
HETATM   28  C10 UNL     1      14.362   0.101  51.104  1.00  0.00     0.072 C 
HETATM   29  C11 UNL     1      13.594  -0.961  50.889  1.00  0.00     0.008 C 
BRANCH  29  30
HETATM   30  C12 UNL     1      13.571  -2.439  51.023  1.00  0.00     0.299 C 
BRANCH  30  31
HETATM   31  N4  UNL     1      13.909  -2.826  52.394  1.00  0.00     0.083 N 
HETATM   32  C13 UNL     1      15.167  -3.592  52.382  1.00  0.00     0.309 C 
HETATM   33  C14 UNL     1      12.917  -3.676  52.981  1.00  0.00     0.309 C 
ENDBRANCH  30  31
ENDBRANCH  29  30
ENDBRANCH  25  28
ENDBRANCH  10  24
TORSDOF 4
ENDMDL
MODEL 4
REMARK VINA RESULT:      -8.4      4.910      7.181
REMARK  4 active torsions:
REMARK  status: ('A' for Active; 'I' for Inactive)
REMARK    1  A    between atoms: C8_10  and  N3_11 
REMARK       I    between atoms: N3_11  and  C9_12 
REMARK    2  A    between atoms: C9_12  and  C10_14 
REMARK    3  A    between atoms: C11_15  and  C12_16 
REMARK    4  A    between atoms: C12_16  and  N4_17 
ROOT
HETATM    1  C1  UNL     1      18.814   3.218  47.599  1.00  0.00     0.045 C 
HETATM    2  C2  UNL     1      18.699   3.061  49.099  1.00  0.00    -0.064 C 
HETATM    3  C3  UNL     1      19.182   2.345  50.169  1.00  0.00     0.097 C 
HETATM    4  N1  UNL     1      18.767   2.516  51.605  1.00  0.00    -0.320 N 
HETATM    5  C4  UNL     1      19.988   2.192  52.196  1.00  0.00     0.130 C 
HETATM    6  C5  UNL     1      21.064   3.155  52.260  1.00  0.00     0.119 C 
HETATM    7  N2  UNL     1      21.927   3.907  52.322  1.00  0.00    -0.190 NA
HETATM    8  C6  UNL     1      20.206   1.021  52.749  1.00  0.00     0.033 A 
HETATM    9  C7  UNL     1      21.421   0.765  53.302  1.00  0.00     0.048 A 
HETATM   10  C8  UNL     1      21.853  -0.373  53.931  1.00  0.00     0.053 A 
HETATM   11  C15 UNL     1      20.976  -1.420  54.039  1.00  0.00     0.147 A 
HETATM   12  N5  UNL     1      19.734  -1.201  53.491  1.00  0.00    -0.258 NA
HETATM   13  C16 UNL     1      19.377  -0.060  52.890  1.00  0.00     0.069 A 
HETATM   14  C17 UNL     1      18.124  -0.549  52.702  1.00  0.00     0.034 C 
HETATM   15  C18 UNL     1      17.158  -1.618  52.796  1.00  0.00     0.022 C 
HETATM   16  C19 UNL     1      15.922  -1.313  52.331  1.00  0.00     0.116 C 
HETATM   17  N6  UNL     1      15.965   0.055  51.865  1.00  0.00    -0.277 NA
HETATM   18  C20 UNL     1      14.807   0.674  51.934  1.00  0.00     0.091 C 
HETATM   19  C21 UNL     1      14.704   2.110  51.476  1.00  0.00     0.073 C 
HETATM   20  C22 UNL     1      15.486   2.149  50.191  1.00  0.00     0.175 C 
HETATM   21  O2  UNL     1      16.807   1.867  50.402  1.00  0.00    -0.366 OA
HETATM   22  C23 UNL     1      17.438   2.874  51.064  1.00  0.00     0.232 C 
HETATM   23  C24 UNL     1      17.835   3.918  50.013  1.00  0.00     0.089 C 
ENDROOT
BRANCH  10  24
HETATM   24  N3  UNL     1      23.167  -0.454  54.424  1.00  0.00    -0.322 N 
HETATM   25  C9  UNL     1      24.448  -0.198  53.885  1.00  0.00     0.245 C 
HETATM   26  O1  UNL     1      24.314   0.175  52.694  1.00  0.00    -0.268 OA
HETATM   27  H6  UNL     1      23.056  -0.785  55.404  1.00  0.00     0.169 HD
BRANCH  25  28
HETATM   28  C10 UNL     1      25.717  -0.329  54.564  1.00  0.00     0.072 C 
HETATM   29  C11 UNL     1      26.995  -0.424  54.217  1.00  0.00     0.008 C 
BRANCH  29  30
HETATM   30  C12 UNL     1      27.890  -0.458  53.033  1.00  0.00     0.299 C 
BRANCH  30  31
HETATM   31  N4  UNL     1      29.181   0.151  53.359  1.00  0.00     0.083 N 
HETATM   32  C13 UNL     1      30.124  -0.906  53.763  1.00  0.00     0.309 C 
HETATM   33  C14 UNL     1      29.091   1.063  54.459  1.00  0.00     0.309 C 
ENDBRANCH  30  31
ENDBRANCH  29  30
ENDBRANCH  25  28
ENDBRANCH  10  24
TORSDOF 4
ENDMDL
MODEL 5
REMARK VINA RESULT:      -8.3      2.466      5.052
REMARK  4 active torsions:
REMARK  status: ('A' for Active; 'I' for Inactive)
REMARK    1  A    between atoms: C8_10  and  N3_11 
REMARK       I    between atoms: N3_11  and  C9_12 
REMARK    2  A    between atoms: C9_12  and  C10_14 
REMARK    3  A    between atoms: C11_15  and  C12_16 
REMARK    4  A    between atoms: C12_16  and  N4_17 
ROOT
HETATM    1  C1  UNL     1      22.701   1.133  53.080  1.00  0.00     0.045 C 
HETATM    2  C2  UNL     1      22.903   1.935  51.813  1.00  0.00    -0.064 C 
HETATM    3  C3  UNL     1      23.365   3.139  51.337  1.00  0.00     0.097 C 
HETATM    4  N1  UNL     1      23.384   3.570  49.896  1.00  0.00    -0.320 N 
HETATM    5  C4  UNL     1      24.534   4.357  49.947  1.00  0.00     0.130 C 
HETATM    6  C5  UNL     1      25.849   3.758  49.918  1.00  0.00     0.119 C 
HETATM    7  N2  UNL     1      26.900   3.299  49.893  1.00  0.00    -0.190 NA
HETATM    8  C6  UNL     1      24.481   5.668  49.989  1.00  0.00     0.033 A 
HETATM    9  C7  UNL     1      25.639   6.378  50.045  1.00  0.00     0.048 A 
HETATM   10  C8  UNL     1      25.810   7.736  50.086  1.00  0.00     0.053 A 
HETATM   11  C15 UNL     1      24.690   8.526  50.071  1.00  0.00     0.147 A 
HETATM   12  N5  UNL     1      23.496   7.846  50.014  1.00  0.00    -0.258 NA
HETATM   13  C16 UNL     1      23.402   6.511  49.975  1.00  0.00     0.069 A 
HETATM   14  C17 UNL     1      22.051   6.608  49.870  1.00  0.00     0.034 C 
HETATM   15  C18 UNL     1      20.840   7.393  49.843  1.00  0.00     0.022 C 
HETATM   16  C19 UNL     1      19.699   6.678  49.685  1.00  0.00     0.116 C 
HETATM   17  N6  UNL     1      20.077   5.286  49.589  1.00  0.00    -0.277 NA
HETATM   18  C20 UNL     1      19.238   4.557  48.885  1.00  0.00     0.091 C 
HETATM   19  C21 UNL     1      19.506   3.082  48.704  1.00  0.00     0.073 C 
HETATM   20  C22 UNL     1      19.928   2.609  50.070  1.00  0.00     0.175 C 
HETATM   21  O2  UNL     1      21.093   3.205  50.466  1.00  0.00    -0.366 OA
HETATM   22  C23 UNL     1      22.158   2.756  49.749  1.00  0.00     0.232 C 
HETATM   23  C24 UNL     1      22.613   1.444  50.401  1.00  0.00     0.089 C 
ENDROOT
BRANCH  10  24
HETATM   24  N3  UNL     1      27.102   8.285  50.165  1.00  0.00    -0.322 N 
HETATM   25  C9  UNL     1      28.036   8.767  49.220  1.00  0.00     0.245 C 
HETATM   26  O1  UNL     1      27.545   8.642  48.072  1.00  0.00    -0.268 OA
HETATM   27  H6  UNL     1      27.319   8.290  51.182  1.00  0.00     0.169 HD
BRANCH  25  28
HETATM   28  C10 UNL     1      29.342   9.320  49.497  1.00  0.00     0.072 C 
HETATM   29  C11 UNL     1      30.599   9.045  49.168  1.00  0.00     0.008 C 
BRANCH  29  30
HETATM   30  C12 UNL     1      31.425   8.092  48.386  1.00  0.00     0.299 C 
BRANCH  30  31
HETATM   31  N4  UNL     1      31.425   6.777  49.030  1.00  0.00     0.083 N 
HETATM   32  C13 UNL     1      32.700   6.099  48.741  1.00  0.00     0.309 C 
HETATM   33  C14 UNL     1      30.386   5.926  48.534  1.00  0.00     0.309 C 
ENDBRANCH  30  31
ENDBRANCH  29  30
ENDBRANCH  25  28
ENDBRANCH  10  24
TORSDOF 4
ENDMDL
MODEL 6
REMARK VINA RESULT:      -8.3      4.283      9.689
REMARK  4 active torsions:
REMARK  status: ('A' for Active; 'I' for Inactive)
REMARK    1  A    between atoms: C8_10  and  N3_11 
REMARK       I    between atoms: N3_11  and  C9_12 
REMARK    2  A    between atoms: C9_12  and  C10_14 
REMARK    3  A    between atoms: C11_15  and  C12_16 
REMARK    4  A    between atoms: C12_16  and  N4_17 
ROOT
HETATM    1  C1  UNL     1      23.580   5.151  51.760  1.00  0.00     0.045 C 
HETATM    2  C2  UNL     1      23.265   3.708  51.434  1.00  0.00    -0.064 C 
HETATM    3  C3  UNL     1      22.290   2.744  51.544  1.00  0.00     0.097 C 
HETATM    4  N1  UNL     1      22.391   1.326  51.053  1.00  0.00    -0.320 N 
HETATM    5  C4  UNL     1      21.048   1.140  50.730  1.00  0.00     0.130 C 
HETATM    6  C5  UNL     1      20.497   1.662  49.500  1.00  0.00     0.119 C 
HETATM    7  N2  UNL     1      20.044   2.066  48.527  1.00  0.00    -0.190 NA
HETATM    8  C6  UNL     1      20.233   0.459  51.503  1.00  0.00     0.033 A 
HETATM    9  C7  UNL     1      18.931   0.319  51.135  1.00  0.00     0.048 A 
HETATM   10  C8  UNL     1      17.926  -0.350  51.781  1.00  0.00     0.053 A 
HETATM   11  C15 UNL     1      18.227  -0.978  52.962  1.00  0.00     0.147 A 
HETATM   12  N5  UNL     1      19.534  -0.860  53.369  1.00  0.00    -0.258 NA
HETATM   13  C16 UNL     1      20.469  -0.190  52.686  1.00  0.00     0.069 A 
HETATM   14  C17 UNL     1      21.404  -0.558  53.599  1.00  0.00     0.034 C 
HETATM   15  C18 UNL     1      21.777  -1.209  54.833  1.00  0.00     0.022 C 
HETATM   16  C19 UNL     1      23.096  -1.147  55.136  1.00  0.00     0.116 C 
HETATM   17  N6  UNL     1      23.745  -0.411  54.073  1.00  0.00    -0.277 NA
HETATM   18  C20 UNL     1      25.006  -0.743  53.894  1.00  0.00     0.091 C 
HETATM   19  C21 UNL     1      25.809  -0.051  52.818  1.00  0.00     0.073 C 
HETATM   20  C22 UNL     1      25.439   1.401  52.951  1.00  0.00     0.175 C 
HETATM   21  O2  UNL     1      24.114   1.606  52.684  1.00  0.00    -0.366 OA
HETATM   22  C23 UNL     1      23.833   1.436  51.364  1.00  0.00     0.232 C 
HETATM   23  C24 UNL     1      24.171   2.758  50.664  1.00  0.00     0.089 C 
ENDROOT
BRANCH  10  24
HETATM   24  N3  UNL     1      16.626  -0.362  51.246  1.00  0.00    -0.322 N 
HETATM   25  C9  UNL     1      15.498   0.483  51.356  1.00  0.00     0.245 C 
HETATM   26  O1  UNL     1      15.784   1.434  52.123  1.00  0.00    -0.268 OA
HETATM   27  H6  UNL     1      16.595  -1.221  50.660  1.00  0.00     0.169 HD
BRANCH  25  28
HETATM   28  C10 UNL     1      14.220   0.311  50.706  1.00  0.00     0.072 C 
HETATM   29  C11 UNL     1      13.745   0.390  49.468  1.00  0.00     0.008 C 
BRANCH  29  30
HETATM   30  C12 UNL     1      14.155   0.677  48.070  1.00  0.00     0.299 C 
BRANCH  30  31
HETATM   31  N4  UNL     1      14.027  -0.529  47.250  1.00  0.00     0.083 N 
HETATM   32  C13 UNL     1      12.778  -1.224  47.608  1.00  0.00     0.309 C 
HETATM   33  C14 UNL     1      15.092  -1.459  47.477  1.00  0.00     0.309 C 
ENDBRANCH  30  31
ENDBRANCH  29  30
ENDBRANCH  25  28
ENDBRANCH  10  24
TORSDOF 4
ENDMDL
MODEL 7
REMARK VINA RESULT:      -8.1      3.562      9.998
REMARK  4 active torsions:
REMARK  status: ('A' for Active; 'I' for Inactive)
REMARK    1  A    between atoms: C8_10  and  N3_11 
REMARK       I    between atoms: N3_11  and  C9_12 
REMARK    2  A    between atoms: C9_12  and  C10_14 
REMARK    3  A    between atoms: C11_15  and  C12_16 
REMARK    4  A    between atoms: C12_16  and  N4_17 
ROOT
HETATM    1  C1  UNL     1      21.770   7.143  50.819  1.00  0.00     0.045 C 
HETATM    2  C2  UNL     1      22.006   5.681  50.509  1.00  0.00    -0.064 C 
HETATM    3  C3  UNL     1      21.812   4.409  50.995  1.00  0.00     0.097 C 
HETATM    4  N1  UNL     1      22.238   3.133  50.322  1.00  0.00    -0.320 N 
HETATM    5  C4  UNL     1      21.198   2.322  50.777  1.00  0.00     0.130 C 
HETATM    6  C5  UNL     1      19.893   2.364  50.156  1.00  0.00     0.119 C 
HETATM    7  N2  UNL     1      18.853   2.382  49.674  1.00  0.00    -0.190 NA
HETATM    8  C6  UNL     1      21.361   1.465  51.759  1.00  0.00     0.033 A 
HETATM    9  C7  UNL     1      20.305   0.708  52.160  1.00  0.00     0.048 A 
HETATM   10  C8  UNL     1      20.258  -0.242  53.145  1.00  0.00     0.053 A 
HETATM   11  C15 UNL     1      21.407  -0.497  53.848  1.00  0.00     0.147 A 
HETATM   12  N5  UNL     1      22.499   0.249  53.473  1.00  0.00    -0.258 NA
HETATM   13  C16 UNL     1      22.475   1.164  52.496  1.00  0.00     0.069 A 
HETATM   14  C17 UNL     1      23.804   1.385  52.668  1.00  0.00     0.034 C 
HETATM   15  C18 UNL     1      25.043   1.150  53.371  1.00  0.00     0.022 C 
HETATM   16  C19 UNL     1      26.110   1.837  52.894  1.00  0.00     0.116 C 
HETATM   17  N6  UNL     1      25.644   2.628  51.776  1.00  0.00    -0.277 NA
HETATM   18  C20 UNL     1      26.575   2.873  50.879  1.00  0.00     0.091 C 
HETATM   19  C21 UNL     1      26.230   3.692  49.657  1.00  0.00     0.073 C 
HETATM   20  C22 UNL     1      25.401   4.829  50.191  1.00  0.00     0.175 C 
HETATM   21  O2  UNL     1      24.232   4.379  50.741  1.00  0.00    -0.366 OA
HETATM   22  C23 UNL     1      23.373   3.918  49.792  1.00  0.00     0.232 C 
HETATM   23  C24 UNL     1      22.633   5.139  49.232  1.00  0.00     0.089 C 
ENDROOT
BRANCH  10  24
HETATM   24  N3  UNL     1      19.054  -0.909  53.429  1.00  0.00    -0.322 N 
HETATM   25  C9  UNL     1      17.892  -1.222  52.687  1.00  0.00     0.245 C 
HETATM   26  O1  UNL     1      18.026  -0.769  51.525  1.00  0.00    -0.268 OA
HETATM   27  H6  UNL     1      19.142  -1.189  54.427  1.00  0.00     0.169 HD
BRANCH  25  28
HETATM   28  C10 UNL     1      16.732  -1.944  53.156  1.00  0.00     0.072 C 
HETATM   29  C11 UNL     1      16.425  -3.205  53.436  1.00  0.00     0.008 C 
BRANCH  29  30
HETATM   30  C12 UNL     1      16.995  -4.576  53.454  1.00  0.00     0.299 C 
BRANCH  30  31
HETATM   31  N4  UNL     1      15.929  -5.563  53.635  1.00  0.00     0.083 N 
HETATM   32  C13 UNL     1      14.741  -5.133  52.878  1.00  0.00     0.309 C 
HETATM   33  C14 UNL     1      15.523  -5.682  55.003  1.00  0.00     0.309 C 
ENDBRANCH  30  31
ENDBRANCH  29  30
ENDBRANCH  25  28
ENDBRANCH  10  24
TORSDOF 4
ENDMDL
MODEL 8
REMARK VINA RESULT:      -8.0      5.466      8.800
REMARK  4 active torsions:
REMARK  status: ('A' for Active; 'I' for Inactive)
REMARK    1  A    between atoms: C8_10  and  N3_11 
REMARK       I    between atoms: N3_11  and  C9_12 
REMARK    2  A    between atoms: C9_12  and  C10_14 
REMARK    3  A    between atoms: C11_15  and  C12_16 
REMARK    4  A    between atoms: C12_16  and  N4_17 
ROOT
HETATM    1  C1  UNL     1      23.813   6.370  51.418  1.00  0.00     0.045 C 
HETATM    2  C2  UNL     1      24.602   6.760  50.187  1.00  0.00    -0.064 C 
HETATM    3  C3  UNL     1      25.818   7.247  49.770  1.00  0.00     0.097 C 
HETATM    4  N1  UNL     1      26.222   7.512  48.346  1.00  0.00    -0.320 N 
HETATM    5  C4  UNL     1      27.578   7.217  48.474  1.00  0.00     0.130 C 
HETATM    6  C5  UNL     1      28.047   5.850  48.486  1.00  0.00     0.119 C 
HETATM    7  N2  UNL     1      28.436   4.771  48.494  1.00  0.00    -0.190 NA
HETATM    8  C6  UNL     1      28.492   8.158  48.555  1.00  0.00     0.033 A 
HETATM    9  C7  UNL     1      29.798   7.804  48.685  1.00  0.00     0.048 A 
HETATM   10  C8  UNL     1      30.899   8.613  48.776  1.00  0.00     0.053 A 
HETATM   11  C15 UNL     1      30.706   9.969  48.735  1.00  0.00     0.147 A 
HETATM   12  N5  UNL     1      29.397  10.369  48.603  1.00  0.00    -0.258 NA
HETATM   13  C16 UNL     1      28.365   9.521  48.518  1.00  0.00     0.069 A 
HETATM   14  C17 UNL     1      27.515  10.567  48.355  1.00  0.00     0.034 C 
HETATM   15  C18 UNL     1      27.256  11.987  48.298  1.00  0.00     0.022 C 
HETATM   16  C19 UNL     1      25.964  12.323  48.066  1.00  0.00     0.116 C 
HETATM   17  N6  UNL     1      25.217  11.090  47.944  1.00  0.00    -0.277 NA
HETATM   18  C20 UNL     1      24.151  11.191  47.180  1.00  0.00     0.091 C 
HETATM   19  C21 UNL     1      23.273   9.981  46.966  1.00  0.00     0.073 C 
HETATM   20  C22 UNL     1      23.146   9.366  48.333  1.00  0.00     0.175 C 
HETATM   21  O2  UNL     1      24.355   8.932  48.801  1.00  0.00    -0.366 OA
HETATM   22  C23 UNL     1      24.798   7.842  48.119  1.00  0.00     0.232 C 
HETATM   23  C24 UNL     1      24.123   6.618  48.749  1.00  0.00     0.089 C 
ENDROOT
BRANCH  10  24
HETATM   24  N3  UNL     1      32.179   8.052  48.930  1.00  0.00    -0.322 N 
HETATM   25  C9  UNL     1      33.171   7.579  48.042  1.00  0.00     0.245 C 
HETATM   26  O1  UNL     1      32.750   7.709  46.867  1.00  0.00    -0.268 OA
HETATM   27  H6  UNL     1      32.327   8.025  49.960  1.00  0.00     0.169 HD
BRANCH  25  28
HETATM   28  C10 UNL     1      34.463   7.036  48.393  1.00  0.00     0.072 C 
HETATM   29  C11 UNL     1      35.064   5.853  48.334  1.00  0.00     0.008 C 
BRANCH  29  30
HETATM   30  C12 UNL     1      34.844   4.445  47.917  1.00  0.00     0.299 C 
BRANCH  30  31
HETATM   31  N4  UNL     1      34.265   4.401  46.574  1.00  0.00     0.083 N 
HETATM   32  C13 UNL     1      33.012   3.629  46.615  1.00  0.00     0.309 C 
HETATM   33  C14 UNL     1      35.121   3.743  45.632  1.00  0.00     0.309 C 
ENDBRANCH  30  31
ENDBRANCH  29  30
ENDBRANCH  25  28
ENDBRANCH  10  24
TORSDOF 4
ENDMDL
MODEL 9
REMARK VINA RESULT:      -8.0      2.762     10.662
REMARK  4 active torsions:
REMARK  status: ('A' for Active; 'I' for Inactive)
REMARK    1  A    between atoms: C8_10  and  N3_11 
REMARK       I    between atoms: N3_11  and  C9_12 
REMARK    2  A    between atoms: C9_12  and  C10_14 
REMARK    3  A    between atoms: C11_15  and  C12_16 
REMARK    4  A    between atoms: C12_16  and  N4_17 
ROOT
HETATM    1  C1  UNL     1      30.669  12.215  49.331  1.00  0.00     0.045 C 
HETATM    2  C2  UNL     1      30.167  11.133  48.400  1.00  0.00    -0.064 C 
HETATM    3  C3  UNL     1      29.512   9.925  48.372  1.00  0.00     0.097 C 
HETATM    4  N1  UNL     1      29.194   9.121  47.141  1.00  0.00    -0.320 N 
HETATM    5  C4  UNL     1      28.000   8.555  47.585  1.00  0.00     0.130 C 
HETATM    6  C5  UNL     1      26.766   9.308  47.567  1.00  0.00     0.119 C 
HETATM    7  N2  UNL     1      25.778   9.890  47.557  1.00  0.00    -0.190 NA
HETATM    8  C6  UNL     1      27.931   7.313  48.005  1.00  0.00     0.033 A 
HETATM    9  C7  UNL     1      26.736   6.823  48.433  1.00  0.00     0.048 A 
HETATM   10  C8  UNL     1      26.442   5.568  48.897  1.00  0.00     0.053 A 
HETATM   11  C15 UNL     1      27.459   4.651  48.958  1.00  0.00     0.147 A 
HETATM   12  N5  UNL     1      28.684   5.107  48.534  1.00  0.00    -0.258 NA
HETATM   13  C16 UNL     1      28.901   6.351  48.089  1.00  0.00     0.069 A 
HETATM   14  C17 UNL     1      30.195   6.033  47.826  1.00  0.00     0.034 C 
HETATM   15  C18 UNL     1      31.300   5.103  47.861  1.00  0.00     0.022 C 
HETATM   16  C19 UNL     1      32.459   5.573  47.338  1.00  0.00     0.116 C 
HETATM   17  N6  UNL     1      32.209   6.925  46.890  1.00  0.00    -0.277 NA
HETATM   18  C20 UNL     1      32.976   7.300  45.890  1.00  0.00     0.091 C 
HETATM   19  C21 UNL     1      32.827   8.692  45.321  1.00  0.00     0.073 C 
HETATM   20  C22 UNL     1      32.704   9.578  46.530  1.00  0.00     0.175 C 
HETATM   21  O2  UNL     1      31.575   9.292  47.246  1.00  0.00    -0.366 OA
HETATM   22  C23 UNL     1      30.449   9.676  46.587  1.00  0.00     0.232 C 
HETATM   23  C24 UNL     1      30.248  11.168  46.880  1.00  0.00     0.089 C 
ENDROOT
BRANCH  10  24
HETATM   24  N3  UNL     1      25.138   5.257  49.317  1.00  0.00    -0.322 N 
HETATM   25  C9  UNL     1      24.286   5.722  50.345  1.00  0.00     0.245 C 
HETATM   26  O1  UNL     1      24.893   6.605  50.998  1.00  0.00    -0.268 OA
HETATM   27  H6  UNL     1      24.827   4.510  48.663  1.00  0.00     0.169 HD
BRANCH  25  28
HETATM   28  C10 UNL     1      22.939   5.280  50.621  1.00  0.00     0.072 C 
HETATM   29  C11 UNL     1      22.360   4.352  51.375  1.00  0.00     0.008 C 
BRANCH  29  30
HETATM   30  C12 UNL     1      22.666   3.260  52.333  1.00  0.00     0.299 C 
BRANCH  30  31
HETATM   31  N4  UNL     1      21.768   2.126  52.108  1.00  0.00     0.083 N 
HETATM   32  C13 UNL     1      20.418   2.481  52.576  1.00  0.00     0.309 C 
HETATM   33  C14 UNL     1      22.164   0.962  52.843  1.00  0.00     0.309 C 
ENDBRANCH  30  31
ENDBRANCH  29  30
ENDBRANCH  25  28
ENDBRANCH  10  24
TORSDOF 4
ENDMDL
