MODEL 1
REMARK VINA RESULT:      -7.6      0.000      0.000
REMARK  6 active torsions:
REMARK  status: ('A' for Active; 'I' for Inactive)
REMARK    1  A    between atoms: C2_2  and  C3_3 
REMARK    2  A    between atoms: C3_3  and  N1_4 
REMARK    3  A    between atoms: C5_6  and  C6_8 
REMARK    4  A    between atoms: C9_11  and  O2_12 
REMARK    5  A    between atoms: O2_12  and  C10_13 
REMARK    6  A    between atoms: C10_13  and  C11_14 
ROOT
HETATM    1  C6  UNL     1      24.886   0.187  53.398  1.00  0.00    -0.017 A 
HETATM    2  C7  UNL     1      24.262   1.358  53.059  1.00  0.00     0.013 A 
HETATM    3  C8  UNL     1      24.885   2.237  52.190  1.00  0.00     0.037 A 
HETATM    4  C9  UNL     1      26.127   1.946  51.663  1.00  0.00     0.069 A 
HETATM    5  C17 UNL     1      26.753   0.767  52.007  1.00  0.00     0.037 A 
HETATM    6  C18 UNL     1      26.118  -0.102  52.876  1.00  0.00     0.013 A 
ENDROOT
BRANCH   1   7
HETATM    7  C5  UNL     1      24.083  -0.599  54.308  1.00  0.00     0.135 A 
HETATM    8  C2  UNL     1      22.680  -0.906  54.273  1.00  0.00    -0.008 A 
HETATM    9  C1  UNL     1      23.316  -1.433  55.315  1.00  0.00     0.223 A 
HETATM   10  O1  UNL     1      24.497  -1.179  55.334  1.00  0.00    -0.363 OA
BRANCH   8  11
HETATM   11  C3  UNL     1      21.244  -1.135  54.110  1.00  0.00     0.304 C 
BRANCH  11  12
HETATM   12  N1  UNL     1      20.524   0.075  54.436  1.00  0.00     0.082 N 
HETATM   13  C4  UNL     1      20.539   1.051  53.390  1.00  0.00     0.307 C 
HETATM   14  H5  UNL     1      21.034   0.478  55.276  1.00  0.00     0.315 HD
ENDBRANCH  11  12
ENDBRANCH   8  11
ENDBRANCH   1   7
BRANCH   4  15
HETATM   15  O2  UNL     1      26.853   2.739  50.788  1.00  0.00    -0.347 OA
BRANCH  15  16
HETATM   16  C10 UNL     1      26.263   3.121  49.579  1.00  0.00     0.214 C 
BRANCH  16  17
HETATM   17  C11 UNL     1      26.646   4.497  49.172  1.00  0.00    -0.034 A 
HETATM   18  C12 UNL     1      27.896   4.767  48.626  1.00  0.00     0.009 A 
HETATM   19  C13 UNL     1      28.238   6.052  48.253  1.00  0.00     0.001 A 
HETATM   20  C14 UNL     1      27.345   7.097  48.412  1.00  0.00     0.000 A 
HETATM   21  C15 UNL     1      26.088   6.871  48.952  1.00  0.00     0.001 A 
HETATM   22  C16 UNL     1      25.794   5.573  49.309  1.00  0.00     0.009 A 
ENDBRANCH  16  17
ENDBRANCH  15  16
ENDBRANCH   4  15
TORSDOF 6
ENDMDL
MODEL 2
REMARK VINA RESULT:      -7.6      3.774      6.645
REMARK  6 active torsions:
REMARK  status: ('A' for Active; 'I' for Inactive)
REMARK    1  A    between atoms: C2_2  and  C3_3 
REMARK    2  A    between atoms: C3_3  and  N1_4 
REMARK    3  A    between atoms: C5_6  and  C6_8 
REMARK    4  A    between atoms: C9_11  and  O2_12 
REMARK    5  A    between atoms: O2_12  and  C10_13 
REMARK    6  A    between atoms: C10_13  and  C11_14 
ROOT
HETATM    1  C6  UNL     1      26.845   1.658  52.925  1.00  0.00    -0.017 A 
HETATM    2  C7  UNL     1      25.963   2.146  53.852  1.00  0.00     0.013 A 
HETATM    3  C8  UNL     1      24.693   2.522  53.454  1.00  0.00     0.037 A 
HETATM    4  C9  UNL     1      24.305   2.411  52.134  1.00  0.00     0.069 A 
HETATM    5  C17 UNL     1      25.195   1.920  51.203  1.00  0.00     0.037 A 
HETATM    6  C18 UNL     1      26.462   1.547  51.615  1.00  0.00     0.013 A 
ENDROOT
BRANCH   1   7
HETATM    7  C5  UNL     1      28.115   1.315  53.526  1.00  0.00     0.135 A 
HETATM    8  C2  UNL     1      28.861   0.089  53.472  1.00  0.00    -0.008 A 
HETATM    9  C1  UNL     1      29.445   1.038  54.198  1.00  0.00     0.223 A 
HETATM   10  O1  UNL     1      28.817   2.069  54.232  1.00  0.00    -0.363 OA
BRANCH   8  11
HETATM   11  C3  UNL     1      29.510  -1.215  53.331  1.00  0.00     0.304 C 
BRANCH  11  12
HETATM   12  N1  UNL     1      28.519  -2.260  53.457  1.00  0.00     0.082 N 
HETATM   13  C4  UNL     1      27.353  -2.046  52.656  1.00  0.00     0.307 C 
HETATM   14  H5  UNL     1      28.230  -2.241  54.479  1.00  0.00     0.315 HD
ENDBRANCH  11  12
ENDBRANCH   8  11
ENDBRANCH   1   7
BRANCH   4  15
HETATM   15  O2  UNL     1      23.068   2.753  51.611  1.00  0.00    -0.347 OA
BRANCH  15  16
HETATM   16  C10 UNL     1      22.186   1.731  51.247  1.00  0.00     0.214 C 
BRANCH  16  17
HETATM   17  C11 UNL     1      21.879   0.818  52.378  1.00  0.00    -0.034 A 
HETATM   18  C12 UNL     1      22.496  -0.424  52.491  1.00  0.00     0.009 A 
HETATM   19  C13 UNL     1      22.200  -1.261  53.548  1.00  0.00     0.001 A 
HETATM   20  C14 UNL     1      21.287  -0.885  54.517  1.00  0.00     0.000 A 
HETATM   21  C15 UNL     1      20.650   0.345  54.442  1.00  0.00     0.001 A 
HETATM   22  C16 UNL     1      20.977   1.145  53.369  1.00  0.00     0.009 A 
ENDBRANCH  16  17
ENDBRANCH  15  16
ENDBRANCH   4  15
TORSDOF 6
ENDMDL
MODEL 3
REMARK VINA RESULT:      -7.5      4.014      5.855
REMARK  6 active torsions:
REMARK  status: ('A' for Active; 'I' for Inactive)
REMARK    1  A    between atoms: C2_2  and  C3_3 
REMARK    2  A    between atoms: C3_3  and  N1_4 
REMARK    3  A    between atoms: C5_6  and  C6_8 
REMARK    4  A    between atoms: C9_11  and  O2_12 
REMARK    5  A    between atoms: O2_12  and  C10_13 
REMARK    6  A    between atoms: C10_13  and  C11_14 
ROOT
HETATM    1  C6  UNL     1      21.048   0.289  52.077  1.00  0.00    -0.017 A 
HETATM    2  C7  UNL     1      21.387  -0.592  53.070  1.00  0.00     0.013 A 
HETATM    3  C8  UNL     1      22.693  -0.638  53.525  1.00  0.00     0.037 A 
HETATM    4  C9  UNL     1      23.657   0.193  52.991  1.00  0.00     0.069 A 
HETATM    5  C17 UNL     1      23.312   1.079  51.992  1.00  0.00     0.037 A 
HETATM    6  C18 UNL     1      22.003   1.115  51.547  1.00  0.00     0.013 A 
ENDROOT
BRANCH   1   7
HETATM    7  C5  UNL     1      19.646   0.196  51.739  1.00  0.00     0.135 A 
HETATM    8  C2  UNL     1      18.566  -0.443  52.439  1.00  0.00    -0.008 A 
HETATM    9  C1  UNL     1      18.195   0.141  51.304  1.00  0.00     0.223 A 
HETATM   10  O1  UNL     1      19.105   0.683  50.724  1.00  0.00    -0.363 OA
BRANCH   8  11
HETATM   11  C3  UNL     1      17.570  -1.134  53.257  1.00  0.00     0.304 C 
BRANCH  11  12
HETATM   12  N1  UNL     1      18.161  -2.321  53.834  1.00  0.00     0.082 N 
HETATM   13  C4  UNL     1      17.378  -3.503  53.643  1.00  0.00     0.307 C 
HETATM   14  H5  UNL     1      18.215  -2.121  54.875  1.00  0.00     0.315 HD
ENDBRANCH  11  12
ENDBRANCH   8  11
ENDBRANCH   1   7
BRANCH   4  15
HETATM   15  O2  UNL     1      24.992   0.243  53.358  1.00  0.00    -0.347 OA
BRANCH  15  16
HETATM   16  C10 UNL     1      25.962   0.343  52.356  1.00  0.00     0.214 C 
BRANCH  16  17
HETATM   17  C11 UNL     1      27.299  -0.112  52.815  1.00  0.00    -0.034 A 
HETATM   18  C12 UNL     1      27.653  -1.457  52.786  1.00  0.00     0.009 A 
HETATM   19  C13 UNL     1      28.900  -1.865  53.217  1.00  0.00     0.001 A 
HETATM   20  C14 UNL     1      29.824  -0.947  53.683  1.00  0.00     0.000 A 
HETATM   21  C15 UNL     1      29.512   0.404  53.728  1.00  0.00     0.001 A 
HETATM   22  C16 UNL     1      28.256   0.762  53.289  1.00  0.00     0.009 A 
ENDBRANCH  16  17
ENDBRANCH  15  16
ENDBRANCH   4  15
TORSDOF 6
ENDMDL
MODEL 4
REMARK VINA RESULT:      -7.5      3.912      5.506
REMARK  6 active torsions:
REMARK  status: ('A' for Active; 'I' for Inactive)
REMARK    1  A    between atoms: C2_2  and  C3_3 
REMARK    2  A    between atoms: C3_3  and  N1_4 
REMARK    3  A    between atoms: C5_6  and  C6_8 
REMARK    4  A    between atoms: C9_11  and  O2_12 
REMARK    5  A    between atoms: O2_12  and  C10_13 
REMARK    6  A    between atoms: C10_13  and  C11_14 
ROOT
HETATM    1  C6  UNL     1      26.055  -0.134  52.644  1.00  0.00    -0.017 A 
HETATM    2  C7  UNL     1      24.874  -0.469  53.251  1.00  0.00     0.013 A 
HETATM    3  C8  UNL     1      23.832   0.442  53.265  1.00  0.00     0.037 A 
HETATM    4  C9  UNL     1      23.970   1.682  52.676  1.00  0.00     0.069 A 
HETATM    5  C17 UNL     1      25.160   2.016  52.066  1.00  0.00     0.037 A 
HETATM    6  C18 UNL     1      26.193   1.096  52.059  1.00  0.00     0.013 A 
ENDROOT
BRANCH   1   7
HETATM    7  C5  UNL     1      27.019  -1.208  52.725  1.00  0.00     0.135 A 
HETATM    8  C2  UNL     1      28.389  -1.190  53.156  1.00  0.00    -0.008 A 
HETATM    9  C1  UNL     1      27.966  -2.390  52.772  1.00  0.00     0.223 A 
HETATM   10  O1  UNL     1      26.812  -2.401  52.419  1.00  0.00    -0.363 OA
BRANCH   8  11
HETATM   11  C3  UNL     1      29.767  -1.023  53.620  1.00  0.00     0.304 C 
BRANCH  11  12
HETATM   12  N1  UNL     1      30.137   0.372  53.532  1.00  0.00     0.082 N 
HETATM   13  C4  UNL     1      29.272   1.243  54.269  1.00  0.00     0.307 C 
HETATM   14  H5  UNL     1      30.053   0.613  52.502  1.00  0.00     0.315 HD
ENDBRANCH  11  12
ENDBRANCH   8  11
ENDBRANCH   1   7
BRANCH   4  15
HETATM   15  O2  UNL     1      23.007   2.678  52.624  1.00  0.00    -0.347 OA
BRANCH  15  16
HETATM   16  C10 UNL     1      21.809   2.421  51.949  1.00  0.00     0.214 C 
BRANCH  16  17
HETATM   17  C11 UNL     1      21.995   2.337  50.478  1.00  0.00    -0.034 A 
HETATM   18  C12 UNL     1      21.584   1.219  49.761  1.00  0.00     0.009 A 
HETATM   19  C13 UNL     1      21.763   1.156  48.393  1.00  0.00     0.001 A 
HETATM   20  C14 UNL     1      22.353   2.202  47.706  1.00  0.00     0.000 A 
HETATM   21  C15 UNL     1      22.777   3.336  48.384  1.00  0.00     0.001 A 
HETATM   22  C16 UNL     1      22.577   3.352  49.747  1.00  0.00     0.009 A 
ENDBRANCH  16  17
ENDBRANCH  15  16
ENDBRANCH   4  15
TORSDOF 6
ENDMDL
MODEL 5
REMARK VINA RESULT:      -7.5      4.224      7.459
REMARK  6 active torsions:
REMARK  status: ('A' for Active; 'I' for Inactive)
REMARK    1  A    between atoms: C2_2  and  C3_3 
REMARK    2  A    between atoms: C3_3  and  N1_4 
REMARK    3  A    between atoms: C5_6  and  C6_8 
REMARK    4  A    between atoms: C9_11  and  O2_12 
REMARK    5  A    between atoms: O2_12  and  C10_13 
REMARK    6  A    between atoms: C10_13  and  C11_14 
ROOT
HETATM    1  C6  UNL     1      26.178   0.502  53.557  1.00  0.00    -0.017 A 
HETATM    2  C7  UNL     1      25.359  -0.348  54.252  1.00  0.00     0.013 A 
HETATM    3  C8  UNL     1      24.021  -0.439  53.908  1.00  0.00     0.037 A 
HETATM    4  C9  UNL     1      23.505   0.315  52.875  1.00  0.00     0.069 A 
HETATM    5  C17 UNL     1      24.332   1.170  52.178  1.00  0.00     0.037 A 
HETATM    6  C18 UNL     1      25.667   1.252  52.532  1.00  0.00     0.013 A 
ENDROOT
BRANCH   1   7
HETATM    7  C5  UNL     1      27.535   0.459  54.053  1.00  0.00     0.135 A 
HETATM    8  C2  UNL     1      28.578  -0.500  53.810  1.00  0.00    -0.008 A 
HETATM    9  C1  UNL     1      28.938   0.486  54.626  1.00  0.00     0.223 A 
HETATM   10  O1  UNL     1      28.061   1.293  54.819  1.00  0.00    -0.363 OA
BRANCH   8  11
HETATM   11  C3  UNL     1      29.540  -1.549  53.474  1.00  0.00     0.304 C 
BRANCH  11  12
HETATM   12  N1  UNL     1      28.844  -2.806  53.314  1.00  0.00     0.082 N 
HETATM   13  C4  UNL     1      27.643  -2.703  52.543  1.00  0.00     0.307 C 
HETATM   14  H5  UNL     1      28.582  -3.101  54.300  1.00  0.00     0.315 HD
ENDBRANCH  11  12
ENDBRANCH   8  11
ENDBRANCH   1   7
BRANCH   4  15
HETATM   15  O2  UNL     1      22.190   0.315  52.437  1.00  0.00    -0.347 OA
BRANCH  15  16
HETATM   16  C10 UNL     1      21.174   0.040  53.357  1.00  0.00     0.214 C 
BRANCH  16  17
HETATM   17  C11 UNL     1      19.847  -0.114  52.707  1.00  0.00    -0.034 A 
HETATM   18  C12 UNL     1      19.562   0.505  51.494  1.00  0.00     0.009 A 
HETATM   19  C13 UNL     1      18.324   0.354  50.902  1.00  0.00     0.001 A 
HETATM   20  C14 UNL     1      17.342  -0.416  51.499  1.00  0.00     0.000 A 
HETATM   21  C15 UNL     1      17.585  -1.051  52.708  1.00  0.00     0.001 A 
HETATM   22  C16 UNL     1      18.835  -0.870  53.260  1.00  0.00     0.009 A 
ENDBRANCH  16  17
ENDBRANCH  15  16
ENDBRANCH   4  15
TORSDOF 6
ENDMDL
MODEL 6
REMARK VINA RESULT:      -7.3      4.573      6.214
REMARK  6 active torsions:
REMARK  status: ('A' for Active; 'I' for Inactive)
REMARK    1  A    between atoms: C2_2  and  C3_3 
REMARK    2  A    between atoms: C3_3  and  N1_4 
REMARK    3  A    between atoms: C5_6  and  C6_8 
REMARK    4  A    between atoms: C9_11  and  O2_12 
REMARK    5  A    between atoms: O2_12  and  C10_13 
REMARK    6  A    between atoms: C10_13  and  C11_14 
ROOT
HETATM    1  C6  UNL     1      20.571  -0.509  53.148  1.00  0.00    -0.017 A 
HETATM    2  C7  UNL     1      20.964  -1.224  54.248  1.00  0.00     0.013 A 
HETATM    3  C8  UNL     1      22.296  -1.220  54.624  1.00  0.00     0.037 A 
HETATM    4  C9  UNL     1      23.231  -0.506  53.903  1.00  0.00     0.069 A 
HETATM    5  C17 UNL     1      22.832   0.213  52.796  1.00  0.00     0.037 A 
HETATM    6  C18 UNL     1      21.497   0.200  52.432  1.00  0.00     0.013 A 
ENDROOT
BRANCH   1   7
HETATM    7  C5  UNL     1      19.149  -0.629  52.916  1.00  0.00     0.135 A 
HETATM    8  C2  UNL     1      18.308   0.042  51.963  1.00  0.00    -0.008 A 
HETATM    9  C1  UNL     1      17.654  -0.812  52.745  1.00  0.00     0.223 A 
HETATM   10  O1  UNL     1      18.367  -1.379  53.538  1.00  0.00    -0.363 OA
BRANCH   8  11
HETATM   11  C3  UNL     1      17.577   0.797  50.945  1.00  0.00     0.304 C 
BRANCH  11  12
HETATM   12  N1  UNL     1      17.495   0.015  49.733  1.00  0.00     0.082 N 
HETATM   13  C4  UNL     1      16.154  -0.271  49.323  1.00  0.00     0.307 C 
HETATM   14  H5  UNL     1      17.975  -0.903  49.967  1.00  0.00     0.315 HD
ENDBRANCH  11  12
ENDBRANCH   8  11
ENDBRANCH   1   7
BRANCH   4  15
HETATM   15  O2  UNL     1      24.588  -0.422  54.174  1.00  0.00    -0.347 OA
BRANCH  15  16
HETATM   16  C10 UNL     1      25.426   0.180  53.231  1.00  0.00     0.214 C 
BRANCH  16  17
HETATM   17  C11 UNL     1      26.860  -0.127  53.470  1.00  0.00    -0.034 A 
HETATM   18  C12 UNL     1      27.654   0.702  54.255  1.00  0.00     0.009 A 
HETATM   19  C13 UNL     1      28.985   0.404  54.468  1.00  0.00     0.001 A 
HETATM   20  C14 UNL     1      29.558  -0.724  53.908  1.00  0.00     0.000 A 
HETATM   21  C15 UNL     1      28.801  -1.578  53.119  1.00  0.00     0.001 A 
HETATM   22  C16 UNL     1      27.478  -1.238  52.935  1.00  0.00     0.009 A 
ENDBRANCH  16  17
ENDBRANCH  15  16
ENDBRANCH   4  15
TORSDOF 6
ENDMDL
MODEL 7
REMARK VINA RESULT:      -7.2      3.682      8.372
REMARK  6 active torsions:
REMARK  status: ('A' for Active; 'I' for Inactive)
REMARK    1  A    between atoms: C2_2  and  C3_3 
REMARK    2  A    between atoms: C3_3  and  N1_4 
REMARK    3  A    between atoms: C5_6  and  C6_8 
REMARK    4  A    between atoms: C9_11  and  O2_12 
REMARK    5  A    between atoms: O2_12  and  C10_13 
REMARK    6  A    between atoms: C10_13  and  C11_14 
ROOT
HETATM    1  C6  UNL     1      26.131   5.125  49.343  1.00  0.00    -0.017 A 
HETATM    2  C7  UNL     1      26.870   3.972  49.352  1.00  0.00     0.013 A 
HETATM    3  C8  UNL     1      26.405   2.869  50.048  1.00  0.00     0.037 A 
HETATM    4  C9  UNL     1      25.208   2.919  50.731  1.00  0.00     0.069 A 
HETATM    5  C17 UNL     1      24.466   4.082  50.720  1.00  0.00     0.037 A 
HETATM    6  C18 UNL     1      24.943   5.176  50.020  1.00  0.00     0.013 A 
ENDROOT
BRANCH   1   7
HETATM    7  C5  UNL     1      26.771   6.161  48.563  1.00  0.00     0.135 A 
HETATM    8  C2  UNL     1      28.159   6.358  48.251  1.00  0.00    -0.008 A 
HETATM    9  C1  UNL     1      27.360   7.288  47.738  1.00  0.00     0.223 A 
HETATM   10  O1  UNL     1      26.193   7.112  47.997  1.00  0.00    -0.363 OA
BRANCH   8  11
HETATM   11  C3  UNL     1      29.601   6.433  48.014  1.00  0.00     0.304 C 
BRANCH  11  12
HETATM   12  N1  UNL     1      30.305   6.163  49.248  1.00  0.00     0.082 N 
HETATM   13  C4  UNL     1      31.730   6.206  49.117  1.00  0.00     0.307 C 
HETATM   14  H5  UNL     1      30.025   5.174  49.512  1.00  0.00     0.315 HD
ENDBRANCH  11  12
ENDBRANCH   8  11
ENDBRANCH   1   7
BRANCH   4  15
HETATM   15  O2  UNL     1      24.637   1.890  51.463  1.00  0.00    -0.347 OA
BRANCH  15  16
HETATM   16  C10 UNL     1      25.006   1.730  52.802  1.00  0.00     0.214 C 
BRANCH  16  17
HETATM   17  C11 UNL     1      26.193   0.853  52.961  1.00  0.00    -0.034 A 
HETATM   18  C12 UNL     1      26.127  -0.509  52.684  1.00  0.00     0.009 A 
HETATM   19  C13 UNL     1      27.239  -1.312  52.837  1.00  0.00     0.001 A 
HETATM   20  C14 UNL     1      28.443  -0.783  53.268  1.00  0.00     0.000 A 
HETATM   21  C15 UNL     1      28.552   0.570  53.556  1.00  0.00     0.001 A 
HETATM   22  C16 UNL     1      27.415   1.330  53.388  1.00  0.00     0.009 A 
ENDBRANCH  16  17
ENDBRANCH  15  16
ENDBRANCH   4  15
TORSDOF 6
ENDMDL
MODEL 8
REMARK VINA RESULT:      -7.2      4.182      5.961
REMARK  6 active torsions:
REMARK  status: ('A' for Active; 'I' for Inactive)
REMARK    1  A    between atoms: C2_2  and  C3_3 
REMARK    2  A    between atoms: C3_3  and  N1_4 
REMARK    3  A    between atoms: C5_6  and  C6_8 
REMARK    4  A    between atoms: C9_11  and  O2_12 
REMARK    5  A    between atoms: O2_12  and  C10_13 
REMARK    6  A    between atoms: C10_13  and  C11_14 
ROOT
HETATM    1  C6  UNL     1      21.948   1.514  52.572  1.00  0.00    -0.017 A 
HETATM    2  C7  UNL     1      21.702   0.229  52.977  1.00  0.00     0.013 A 
HETATM    3  C8  UNL     1      22.754  -0.569  53.391  1.00  0.00     0.037 A 
HETATM    4  C9  UNL     1      24.046  -0.086  53.399  1.00  0.00     0.069 A 
HETATM    5  C17 UNL     1      24.291   1.207  52.990  1.00  0.00     0.037 A 
HETATM    6  C18 UNL     1      23.230   1.995  52.579  1.00  0.00     0.013 A 
ENDROOT
BRANCH   1   7
HETATM    7  C5  UNL     1      20.732   2.192  52.182  1.00  0.00     0.135 A 
HETATM    8  C2  UNL     1      20.009   2.153  50.942  1.00  0.00    -0.008 A 
HETATM    9  C1  UNL     1      19.458   2.946  51.855  1.00  0.00     0.223 A 
HETATM   10  O1  UNL     1      20.066   2.968  52.899  1.00  0.00    -0.363 OA
BRANCH   8  11
HETATM   11  C3  UNL     1      19.379   2.017  49.628  1.00  0.00     0.304 C 
BRANCH  11  12
HETATM   12  N1  UNL     1      20.279   1.326  48.733  1.00  0.00     0.082 N 
HETATM   13  C4  UNL     1      21.548   1.972  48.584  1.00  0.00     0.307 C 
HETATM   14  H5  UNL     1      19.789   1.334  47.791  1.00  0.00     0.315 HD
ENDBRANCH  11  12
ENDBRANCH   8  11
ENDBRANCH   1   7
BRANCH   4  15
HETATM   15  O2  UNL     1      25.180  -0.782  53.788  1.00  0.00    -0.347 OA
BRANCH  15  16
HETATM   16  C10 UNL     1      26.065  -1.230  52.802  1.00  0.00     0.214 C 
BRANCH  16  17
HETATM   17  C11 UNL     1      27.473  -0.859  53.095  1.00  0.00    -0.034 A 
HETATM   18  C12 UNL     1      28.479  -1.820  53.137  1.00  0.00     0.009 A 
HETATM   19  C13 UNL     1      29.783  -1.459  53.410  1.00  0.00     0.001 A 
HETATM   20  C14 UNL     1      30.119  -0.138  53.648  1.00  0.00     0.000 A 
HETATM   21  C15 UNL     1      29.147   0.851  53.615  1.00  0.00     0.001 A 
HETATM   22  C16 UNL     1      27.860   0.442  53.338  1.00  0.00     0.009 A 
ENDBRANCH  16  17
ENDBRANCH  15  16
ENDBRANCH   4  15
TORSDOF 6
ENDMDL
MODEL 9
REMARK VINA RESULT:      -7.1      3.635      8.699
REMARK  6 active torsions:
REMARK  status: ('A' for Active; 'I' for Inactive)
REMARK    1  A    between atoms: C2_2  and  C3_3 
REMARK    2  A    between atoms: C3_3  and  N1_4 
REMARK    3  A    between atoms: C5_6  and  C6_8 
REMARK    4  A    between atoms: C9_11  and  O2_12 
REMARK    5  A    between atoms: O2_12  and  C10_13 
REMARK    6  A    between atoms: C10_13  and  C11_14 
ROOT
HETATM    1  C6  UNL     1      26.675   5.025  48.922  1.00  0.00    -0.017 A 
HETATM    2  C7  UNL     1      26.772   3.750  49.414  1.00  0.00     0.013 A 
HETATM    3  C8  UNL     1      25.630   3.095  49.842  1.00  0.00     0.037 A 
HETATM    4  C9  UNL     1      24.397   3.711  49.779  1.00  0.00     0.069 A 
HETATM    5  C17 UNL     1      24.303   4.995  49.283  1.00  0.00     0.037 A 
HETATM    6  C18 UNL     1      25.452   5.637  48.858  1.00  0.00     0.013 A 
ENDROOT
BRANCH   1   7
HETATM    7  C5  UNL     1      27.965   5.541  48.522  1.00  0.00     0.135 A 
HETATM    8  C2  UNL     1      28.414   6.898  48.380  1.00  0.00    -0.008 A 
HETATM    9  C1  UNL     1      29.344   5.995  48.088  1.00  0.00     0.223 A 
HETATM   10  O1  UNL     1      28.964   4.856  48.218  1.00  0.00    -0.363 OA
BRANCH   8  11
HETATM   11  C3  UNL     1      28.731   8.323  48.277  1.00  0.00     0.304 C 
BRANCH  11  12
HETATM   12  N1  UNL     1      29.316   8.775  49.519  1.00  0.00     0.082 N 
HETATM   13  C4  UNL     1      30.629   9.324  49.369  1.00  0.00     0.307 C 
HETATM   14  H5  UNL     1      29.386   7.904  50.122  1.00  0.00     0.315 HD
ENDBRANCH  11  12
ENDBRANCH   8  11
ENDBRANCH   1   7
BRANCH   4  15
HETATM   15  O2  UNL     1      23.186   3.166  50.174  1.00  0.00    -0.347 OA
BRANCH  15  16
HETATM   16  C10 UNL     1      22.860   3.167  51.534  1.00  0.00     0.214 C 
BRANCH  16  17
HETATM   17  C11 UNL     1      22.942   1.813  52.137  1.00  0.00    -0.034 A 
HETATM   18  C12 UNL     1      24.088   1.387  52.801  1.00  0.00     0.009 A 
HETATM   19  C13 UNL     1      24.150   0.125  53.357  1.00  0.00     0.001 A 
HETATM   20  C14 UNL     1      23.076  -0.743  53.268  1.00  0.00     0.000 A 
HETATM   21  C15 UNL     1      21.914  -0.358  52.615  1.00  0.00     0.001 A 
HETATM   22  C16 UNL     1      21.901   0.910  52.076  1.00  0.00     0.009 A 
ENDBRANCH  16  17
ENDBRANCH  15  16
ENDBRANCH   4  15
TORSDOF 6
ENDMDL
