MODEL 1
REMARK VINA RESULT:      -8.9      0.000      0.000
REMARK  3 active torsions:
REMARK  status: ('A' for Active; 'I' for Inactive)
REMARK    1  A    between atoms: C5_6  and  N1_7 
REMARK    2  A    between atoms: N1_7  and  C6_8 
REMARK    3  A    between atoms: C6_8  and  C7_9 
ROOT
HETATM    1 CL1  UNL     1      26.005   5.139  49.047  1.00  0.00    -0.084 Cl
HETATM    2  C1  UNL     1      24.584   4.391  49.732  1.00  0.00     0.036 C 
HETATM    3  C2  UNL     1      24.595   3.562  50.756  1.00  0.00     0.037 C 
HETATM    4  C3  UNL     1      23.542   2.852  51.455  1.00  0.00    -0.004 A 
HETATM    5  C4  UNL     1      23.887   1.605  51.924  1.00  0.00     0.043 A 
HETATM    6  C5  UNL     1      23.041   0.761  52.610  1.00  0.00     0.029 A 
HETATM    7  C13 UNL     1      21.770   1.244  52.816  1.00  0.00     0.031 A 
HETATM    8  C14 UNL     1      21.394   2.487  52.360  1.00  0.00     0.035 A 
HETATM    9  C15 UNL     1      22.264   3.309  51.676  1.00  0.00     0.068 A 
HETATM   10  N2  UNL     1      21.670   4.531  51.305  1.00  0.00    -0.242 NA
HETATM   11  C16 UNL     1      22.276   5.665  51.330  1.00  0.00     0.226 C 
HETATM   12  N3  UNL     1      23.593   6.047  51.694  1.00  0.00    -0.265 N 
HETATM   13  N4  UNL     1      24.585   6.708  51.016  1.00  0.00    -0.134 NA
HETATM   14  S1  UNL     1      24.213   7.281  49.530  1.00  0.00     0.033 SA
HETATM   15  C17 UNL     1      23.248   6.236  48.720  1.00  0.00     0.045 C 
HETATM   16  C18 UNL     1      23.554   4.954  48.868  1.00  0.00     0.045 C 
HETATM   17  H13 UNL     1      23.564   5.659  52.659  1.00  0.00     0.190 HD
ENDROOT
BRANCH   6  18
HETATM   18  N1  UNL     1      23.441  -0.526  53.078  1.00  0.00    -0.386 N 
HETATM   19  H3  UNL     1      23.166  -1.348  52.500  1.00  0.00     0.160 HD
BRANCH  18  20
HETATM   20  C6  UNL     1      24.191  -0.619  54.304  1.00  0.00     0.158 C 
BRANCH  20  21
HETATM   21  C7  UNL     1      25.660  -0.554  54.074  1.00  0.00    -0.041 A 
HETATM   22  C8  UNL     1      26.418   0.182  54.990  1.00  0.00     0.010 A 
HETATM   23  C9  UNL     1      27.772   0.207  54.727  1.00  0.00     0.024 A 
HETATM   24  C10 UNL     1      28.436  -0.396  53.693  1.00  0.00     0.034 A 
HETATM   25 CL2  UNL     1      30.166  -0.262  53.508  1.00  0.00    -0.084 Cl
HETATM   26  C11 UNL     1      27.647  -1.109  52.818  1.00  0.00     0.024 A 
HETATM   27  C12 UNL     1      26.276  -1.190  53.003  1.00  0.00     0.010 A 
ENDBRANCH  20  21
ENDBRANCH  18  20
ENDBRANCH   6  18
TORSDOF 3
ENDMDL
MODEL 2
REMARK VINA RESULT:      -8.6      1.331      1.715
REMARK  3 active torsions:
REMARK  status: ('A' for Active; 'I' for Inactive)
REMARK    1  A    between atoms: C5_6  and  N1_7 
REMARK    2  A    between atoms: N1_7  and  C6_8 
REMARK    3  A    between atoms: C6_8  and  C7_9 
ROOT
HETATM    1 CL1  UNL     1      27.140   6.221  48.251  1.00  0.00    -0.084 Cl
HETATM    2  C1  UNL     1      25.642   5.718  48.994  1.00  0.00     0.036 C 
HETATM    3  C2  UNL     1      25.546   4.815  49.948  1.00  0.00     0.037 C 
HETATM    4  C3  UNL     1      24.416   4.273  50.676  1.00  0.00    -0.004 A 
HETATM    5  C4  UNL     1      24.521   2.944  51.019  1.00  0.00     0.043 A 
HETATM    6  C5  UNL     1      23.563   2.231  51.707  1.00  0.00     0.029 A 
HETATM    7  C13 UNL     1      22.439   2.943  52.054  1.00  0.00     0.031 A 
HETATM    8  C14 UNL     1      22.303   4.272  51.726  1.00  0.00     0.035 A 
HETATM    9  C15 UNL     1      23.279   4.959  51.037  1.00  0.00     0.068 A 
HETATM   10  N2  UNL     1      22.932   6.305  50.811  1.00  0.00    -0.242 NA
HETATM   11  C16 UNL     1      23.764   7.285  50.870  1.00  0.00     0.226 C 
HETATM   12  N3  UNL     1      25.152   7.355  51.151  1.00  0.00    -0.265 N 
HETATM   13  N4  UNL     1      26.214   7.859  50.446  1.00  0.00    -0.134 NA
HETATM   14  S1  UNL     1      25.874   8.629  49.043  1.00  0.00     0.033 SA
HETATM   15  C17 UNL     1      24.660   7.881  48.240  1.00  0.00     0.045 C 
HETATM   16  C18 UNL     1      24.699   6.556  48.264  1.00  0.00     0.045 C 
HETATM   17  H13 UNL     1      25.106   6.895  52.084  1.00  0.00     0.190 HD
ENDROOT
BRANCH   6  18
HETATM   18  N1  UNL     1      23.714   0.853  52.042  1.00  0.00    -0.386 N 
HETATM   19  H3  UNL     1      23.493   0.157  51.298  1.00  0.00     0.160 HD
BRANCH  18  20
HETATM   20  C6  UNL     1      24.156   0.502  53.367  1.00  0.00     0.158 C 
BRANCH  20  21
HETATM   21  C7  UNL     1      25.608   0.177  53.411  1.00  0.00    -0.041 A 
HETATM   22  C8  UNL     1      26.449   1.097  54.043  1.00  0.00     0.010 A 
HETATM   23  C9  UNL     1      27.782   0.745  54.054  1.00  0.00     0.024 A 
HETATM   24  C10 UNL     1      28.356  -0.380  53.525  1.00  0.00     0.034 A 
HETATM   25 CL2  UNL     1      30.074  -0.673  53.627  1.00  0.00    -0.084 Cl
HETATM   26  C11 UNL     1      27.487  -1.256  52.913  1.00  0.00     0.024 A 
HETATM   27  C12 UNL     1      26.129  -0.985  52.854  1.00  0.00     0.010 A 
ENDBRANCH  20  21
ENDBRANCH  18  20
ENDBRANCH   6  18
TORSDOF 3
ENDMDL
MODEL 3
REMARK VINA RESULT:      -8.5      3.864      6.954
REMARK  3 active torsions:
REMARK  status: ('A' for Active; 'I' for Inactive)
REMARK    1  A    between atoms: C5_6  and  N1_7 
REMARK    2  A    between atoms: N1_7  and  C6_8 
REMARK    3  A    between atoms: C6_8  and  C7_9 
ROOT
HETATM    1 CL1  UNL     1      25.227  -0.952  54.328  1.00  0.00    -0.084 Cl
HETATM    2  C1  UNL     1      25.458   0.081  52.940  1.00  0.00     0.036 C 
HETATM    3  C2  UNL     1      24.606   1.003  52.543  1.00  0.00     0.037 C 
HETATM    4  C3  UNL     1      24.619   1.941  51.438  1.00  0.00    -0.004 A 
HETATM    5  C4  UNL     1      23.389   2.209  50.881  1.00  0.00     0.043 A 
HETATM    6  C5  UNL     1      23.175   3.064  49.821  1.00  0.00     0.029 A 
HETATM    7  C13 UNL     1      24.302   3.671  49.319  1.00  0.00     0.031 A 
HETATM    8  C14 UNL     1      25.546   3.424  49.854  1.00  0.00     0.035 A 
HETATM    9  C15 UNL     1      25.729   2.562  50.913  1.00  0.00     0.068 A 
HETATM   10  N2  UNL     1      27.080   2.460  51.298  1.00  0.00    -0.242 NA
HETATM   11  C16 UNL     1      27.479   2.370  52.517  1.00  0.00     0.226 C 
HETATM   12  N3  UNL     1      26.791   2.345  53.758  1.00  0.00    -0.265 N 
HETATM   13  N4  UNL     1      26.777   1.443  54.790  1.00  0.00    -0.134 NA
HETATM   14  S1  UNL     1      27.803   0.174  54.678  1.00  0.00     0.033 SA
HETATM   15  C17 UNL     1      27.902  -0.371  53.138  1.00  0.00     0.045 C 
HETATM   16  C18 UNL     1      26.754  -0.399  52.475  1.00  0.00     0.045 C 
HETATM   17  H13 UNL     1      26.292   3.250  53.632  1.00  0.00     0.190 HD
ENDROOT
BRANCH   6  18
HETATM   18  N1  UNL     1      21.880   3.314  49.276  1.00  0.00    -0.386 N 
HETATM   19  H3  UNL     1      21.776   3.220  48.242  1.00  0.00     0.160 HD
BRANCH  18  20
HETATM   20  C6  UNL     1      20.807   3.675  50.165  1.00  0.00     0.158 C 
BRANCH  20  21
HETATM   21  C7  UNL     1      20.112   2.484  50.725  1.00  0.00    -0.041 A 
HETATM   22  C8  UNL     1      20.186   2.294  52.108  1.00  0.00     0.010 A 
HETATM   23  C9  UNL     1      19.525   1.176  52.571  1.00  0.00     0.024 A 
HETATM   24  C10 UNL     1      18.823   0.255  51.841  1.00  0.00     0.034 A 
HETATM   25 CL2  UNL     1      18.041  -1.113  52.592  1.00  0.00    -0.084 Cl
HETATM   26  C11 UNL     1      18.779   0.485  50.484  1.00  0.00     0.024 A 
HETATM   27  C12 UNL     1      19.414   1.584  49.929  1.00  0.00     0.010 A 
ENDBRANCH  20  21
ENDBRANCH  18  20
ENDBRANCH   6  18
TORSDOF 3
ENDMDL
MODEL 4
REMARK VINA RESULT:      -8.5      3.899      5.066
REMARK  3 active torsions:
REMARK  status: ('A' for Active; 'I' for Inactive)
REMARK    1  A    between atoms: C5_6  and  N1_7 
REMARK    2  A    between atoms: N1_7  and  C6_8 
REMARK    3  A    between atoms: C6_8  and  C7_9 
ROOT
HETATM    1 CL1  UNL     1      30.558   7.130  46.642  1.00  0.00    -0.084 Cl
HETATM    2  C1  UNL     1      28.950   7.040  47.316  1.00  0.00     0.036 C 
HETATM    3  C2  UNL     1      28.557   6.144  48.198  1.00  0.00     0.037 C 
HETATM    4  C3  UNL     1      27.290   5.911  48.861  1.00  0.00    -0.004 A 
HETATM    5  C4  UNL     1      26.990   4.590  49.105  1.00  0.00     0.043 A 
HETATM    6  C5  UNL     1      25.838   4.145  49.719  1.00  0.00     0.029 A 
HETATM    7  C13 UNL     1      24.957   5.130  50.098  1.00  0.00     0.031 A 
HETATM    8  C14 UNL     1      25.227   6.460  49.868  1.00  0.00     0.035 A 
HETATM    9  C15 UNL     1      26.388   6.874  49.251  1.00  0.00     0.068 A 
HETATM   10  N2  UNL     1      26.458   8.275  49.119  1.00  0.00    -0.242 NA
HETATM   11  C16 UNL     1      27.535   8.961  49.269  1.00  0.00     0.226 C 
HETATM   12  N3  UNL     1      28.872   8.602  49.580  1.00  0.00    -0.265 N 
HETATM   13  N4  UNL     1      30.062   8.818  48.935  1.00  0.00    -0.134 NA
HETATM   14  S1  UNL     1      30.017   9.745  47.588  1.00  0.00     0.033 SA
HETATM   15  C17 UNL     1      28.671   9.442  46.708  1.00  0.00     0.045 C 
HETATM   16  C18 UNL     1      28.321   8.165  46.633  1.00  0.00     0.045 C 
HETATM   17  H13 UNL     1      28.656   8.115  50.475  1.00  0.00     0.190 HD
ENDROOT
BRANCH   6  18
HETATM   18  N1  UNL     1      25.568   2.764  49.952  1.00  0.00    -0.386 N 
HETATM   19  H3  UNL     1      25.659   2.119  49.138  1.00  0.00     0.160 HD
BRANCH  18  20
HETATM   20  C6  UNL     1      25.191   2.341  51.277  1.00  0.00     0.158 C 
BRANCH  20  21
HETATM   21  C7  UNL     1      26.266   1.563  51.949  1.00  0.00    -0.041 A 
HETATM   22  C8  UNL     1      27.298   2.290  52.551  1.00  0.00     0.010 A 
HETATM   23  C9  UNL     1      28.266   1.517  53.159  1.00  0.00     0.024 A 
HETATM   24  C10 UNL     1      28.324   0.152  53.234  1.00  0.00     0.034 A 
HETATM   25 CL2  UNL     1      29.630  -0.671  54.048  1.00  0.00    -0.084 Cl
HETATM   26  C11 UNL     1      27.285  -0.519  52.627  1.00  0.00     0.024 A 
HETATM   27  C12 UNL     1      26.267   0.174  51.991  1.00  0.00     0.010 A 
ENDBRANCH  20  21
ENDBRANCH  18  20
ENDBRANCH   6  18
TORSDOF 3
ENDMDL
MODEL 5
REMARK VINA RESULT:      -8.4      4.123      5.508
REMARK  3 active torsions:
REMARK  status: ('A' for Active; 'I' for Inactive)
REMARK    1  A    between atoms: C5_6  and  N1_7 
REMARK    2  A    between atoms: N1_7  and  C6_8 
REMARK    3  A    between atoms: C6_8  and  C7_9 
ROOT
HETATM    1 CL1  UNL     1      30.316   7.602  46.435  1.00  0.00    -0.084 Cl
HETATM    2  C1  UNL     1      28.782   7.347  47.228  1.00  0.00     0.036 C 
HETATM    3  C2  UNL     1      28.535   6.377  48.085  1.00  0.00     0.037 C 
HETATM    4  C3  UNL     1      27.349   6.008  48.832  1.00  0.00    -0.004 A 
HETATM    5  C4  UNL     1      27.173   4.656  49.022  1.00  0.00     0.043 A 
HETATM    6  C5  UNL     1      26.115   4.088  49.699  1.00  0.00     0.029 A 
HETATM    7  C13 UNL     1      25.195   4.977  50.202  1.00  0.00     0.031 A 
HETATM    8  C14 UNL     1      25.342   6.334  50.029  1.00  0.00     0.035 A 
HETATM    9  C15 UNL     1      26.412   6.873  49.347  1.00  0.00     0.068 A 
HETATM   10  N2  UNL     1      26.361   8.280  49.292  1.00  0.00    -0.242 NA
HETATM   11  C16 UNL     1      27.392   9.043  49.394  1.00  0.00     0.226 C 
HETATM   12  N3  UNL     1      28.773   8.779  49.578  1.00  0.00    -0.265 N 
HETATM   13  N4  UNL     1      29.885   9.124  48.853  1.00  0.00    -0.134 NA
HETATM   14  S1  UNL     1      29.656  10.113  47.570  1.00  0.00     0.033 SA
HETATM   15  C17 UNL     1      28.269   9.745  46.783  1.00  0.00     0.045 C 
HETATM   16  C18 UNL     1      28.014   8.450  46.663  1.00  0.00     0.045 C 
HETATM   17  H13 UNL     1      28.671   8.231  50.457  1.00  0.00     0.190 HD
ENDROOT
BRANCH   6  18
HETATM   18  N1  UNL     1      25.973   2.679  49.873  1.00  0.00    -0.386 N 
HETATM   19  H3  UNL     1      25.435   2.163  49.143  1.00  0.00     0.160 HD
BRANCH  18  20
HETATM   20  C6  UNL     1      26.568   2.055  51.026  1.00  0.00     0.158 C 
BRANCH  20  21
HETATM   21  C7  UNL     1      25.569   1.320  51.850  1.00  0.00    -0.041 A 
HETATM   22  C8  UNL     1      26.010   0.170  52.511  1.00  0.00     0.010 A 
HETATM   23  C9  UNL     1      25.043  -0.469  53.258  1.00  0.00     0.024 A 
HETATM   24  C10 UNL     1      23.732  -0.108  53.417  1.00  0.00     0.034 A 
HETATM   25 CL2  UNL     1      22.635  -1.037  54.407  1.00  0.00    -0.084 Cl
HETATM   26  C11 UNL     1      23.346   1.032  52.747  1.00  0.00     0.024 A 
HETATM   27  C12 UNL     1      24.250   1.740  51.972  1.00  0.00     0.010 A 
ENDBRANCH  20  21
ENDBRANCH  18  20
ENDBRANCH   6  18
TORSDOF 3
ENDMDL
MODEL 6
REMARK VINA RESULT:      -8.0      1.564      2.138
REMARK  3 active torsions:
REMARK  status: ('A' for Active; 'I' for Inactive)
REMARK    1  A    between atoms: C5_6  and  N1_7 
REMARK    2  A    between atoms: N1_7  and  C6_8 
REMARK    3  A    between atoms: C6_8  and  C7_9 
ROOT
HETATM    1 CL1  UNL     1      22.343   4.855  46.748  1.00  0.00    -0.084 Cl
HETATM    2  C1  UNL     1      22.490   4.718  48.482  1.00  0.00     0.036 C 
HETATM    3  C2  UNL     1      23.173   3.778  49.103  1.00  0.00     0.037 C 
HETATM    4  C3  UNL     1      23.409   3.501  50.505  1.00  0.00    -0.004 A 
HETATM    5  C4  UNL     1      23.497   2.167  50.833  1.00  0.00     0.043 A 
HETATM    6  C5  UNL     1      23.712   1.682  52.106  1.00  0.00     0.029 A 
HETATM    7  C13 UNL     1      23.843   2.639  53.084  1.00  0.00     0.031 A 
HETATM    8  C14 UNL     1      23.760   3.981  52.789  1.00  0.00     0.035 A 
HETATM    9  C15 UNL     1      23.544   4.436  51.506  1.00  0.00     0.068 A 
HETATM   10  N2  UNL     1      23.496   5.842  51.434  1.00  0.00    -0.242 NA
HETATM   11  C16 UNL     1      23.994   6.532  50.470  1.00  0.00     0.226 C 
HETATM   12  N3  UNL     1      24.684   6.174  49.283  1.00  0.00    -0.265 N 
HETATM   13  N4  UNL     1      24.441   6.432  47.958  1.00  0.00    -0.134 NA
HETATM   14  S1  UNL     1      23.183   7.419  47.614  1.00  0.00     0.033 SA
HETATM   15  C17 UNL     1      21.923   7.141  48.621  1.00  0.00     0.045 C 
HETATM   16  C18 UNL     1      21.694   5.865  48.900  1.00  0.00     0.045 C 
HETATM   17  H13 UNL     1      25.449   5.644  49.749  1.00  0.00     0.190 HD
ENDROOT
BRANCH   6  18
HETATM   18  N1  UNL     1      23.796   0.289  52.400  1.00  0.00    -0.386 N 
HETATM   19  H3  UNL     1      23.509  -0.373  51.647  1.00  0.00     0.160 HD
BRANCH  18  20
HETATM   20  C6  UNL     1      24.264  -0.122  53.699  1.00  0.00     0.158 C 
BRANCH  20  21
HETATM   21  C7  UNL     1      25.744  -0.280  53.742  1.00  0.00    -0.041 A 
HETATM   22  C8  UNL     1      26.326  -1.100  52.772  1.00  0.00     0.010 A 
HETATM   23  C9  UNL     1      27.698  -1.209  52.860  1.00  0.00     0.024 A 
HETATM   24  C10 UNL     1      28.529  -0.617  53.773  1.00  0.00     0.034 A 
HETATM   25 CL2  UNL     1      30.257  -0.864  53.741  1.00  0.00    -0.084 Cl
HETATM   26  C11 UNL     1      27.908   0.181  54.708  1.00  0.00     0.024 A 
HETATM   27  C12 UNL     1      26.533   0.350  54.697  1.00  0.00     0.010 A 
ENDBRANCH  20  21
ENDBRANCH  18  20
ENDBRANCH   6  18
TORSDOF 3
ENDMDL
MODEL 7
REMARK VINA RESULT:      -7.9      3.919      6.466
REMARK  3 active torsions:
REMARK  status: ('A' for Active; 'I' for Inactive)
REMARK    1  A    between atoms: C5_6  and  N1_7 
REMARK    2  A    between atoms: N1_7  and  C6_8 
REMARK    3  A    between atoms: C6_8  and  C7_9 
ROOT
HETATM    1 CL1  UNL     1      19.358   2.985  49.076  1.00  0.00    -0.084 Cl
HETATM    2  C1  UNL     1      20.653   2.313  50.036  1.00  0.00     0.036 C 
HETATM    3  C2  UNL     1      21.748   2.962  50.374  1.00  0.00     0.037 C 
HETATM    4  C3  UNL     1      22.913   2.584  51.148  1.00  0.00    -0.004 A 
HETATM    5  C4  UNL     1      24.102   3.134  50.726  1.00  0.00     0.043 A 
HETATM    6  C5  UNL     1      25.328   2.906  51.314  1.00  0.00     0.029 A 
HETATM    7  C13 UNL     1      25.309   2.060  52.398  1.00  0.00     0.031 A 
HETATM    8  C14 UNL     1      24.138   1.493  52.845  1.00  0.00     0.035 A 
HETATM    9  C15 UNL     1      22.927   1.741  52.235  1.00  0.00     0.068 A 
HETATM   10  N2  UNL     1      21.862   1.060  52.857  1.00  0.00    -0.242 NA
HETATM   11  C16 UNL     1      20.687   1.557  53.024  1.00  0.00     0.226 C 
HETATM   12  N3  UNL     1      20.113   2.810  52.689  1.00  0.00    -0.265 N 
HETATM   13  N4  UNL     1      19.016   3.154  51.942  1.00  0.00    -0.134 NA
HETATM   14  S1  UNL     1      18.088   1.930  51.380  1.00  0.00     0.033 SA
HETATM   15  C17 UNL     1      19.008   0.659  50.914  1.00  0.00     0.045 C 
HETATM   16  C18 UNL     1      20.127   0.975  50.277  1.00  0.00     0.045 C 
HETATM   17  H13 UNL     1      20.804   3.396  53.202  1.00  0.00     0.190 HD
ENDROOT
BRANCH   6  18
HETATM   18  N1  UNL     1      26.537   3.499  50.843  1.00  0.00    -0.386 N 
HETATM   19  H3  UNL     1      27.164   3.926  51.557  1.00  0.00     0.160 HD
BRANCH  18  20
HETATM   20  C6  UNL     1      26.820   3.476  49.431  1.00  0.00     0.158 C 
BRANCH  20  21
HETATM   21  C7  UNL     1      27.090   4.834  48.887  1.00  0.00    -0.041 A 
HETATM   22  C8  UNL     1      26.027   5.741  48.879  1.00  0.00     0.010 A 
HETATM   23  C9  UNL     1      26.335   6.983  48.365  1.00  0.00     0.024 A 
HETATM   24  C10 UNL     1      27.538   7.413  47.873  1.00  0.00     0.034 A 
HETATM   25 CL2  UNL     1      27.757   9.030  47.255  1.00  0.00    -0.084 Cl
HETATM   26  C11 UNL     1      28.554   6.483  47.903  1.00  0.00     0.024 A 
HETATM   27  C12 UNL     1      28.338   5.209  48.402  1.00  0.00     0.010 A 
ENDBRANCH  20  21
ENDBRANCH  18  20
ENDBRANCH   6  18
TORSDOF 3
ENDMDL
MODEL 8
REMARK VINA RESULT:      -7.8      2.310      2.720
REMARK  3 active torsions:
REMARK  status: ('A' for Active; 'I' for Inactive)
REMARK    1  A    between atoms: C5_6  and  N1_7 
REMARK    2  A    between atoms: N1_7  and  C6_8 
REMARK    3  A    between atoms: C6_8  and  C7_9 
ROOT
HETATM    1 CL1  UNL     1      23.141   5.486  47.872  1.00  0.00    -0.084 Cl
HETATM    2  C1  UNL     1      22.667   3.922  48.487  1.00  0.00     0.036 C 
HETATM    3  C2  UNL     1      22.636   3.598  49.763  1.00  0.00     0.037 C 
HETATM    4  C3  UNL     1      22.279   2.376  50.457  1.00  0.00    -0.004 A 
HETATM    5  C4  UNL     1      23.005   2.115  51.597  1.00  0.00     0.043 A 
HETATM    6  C5  UNL     1      22.834   1.010  52.403  1.00  0.00     0.029 A 
HETATM    7  C13 UNL     1      21.854   0.135  51.997  1.00  0.00     0.031 A 
HETATM    8  C14 UNL     1      21.111   0.367  50.862  1.00  0.00     0.035 A 
HETATM    9  C15 UNL     1      21.306   1.481  50.076  1.00  0.00     0.068 A 
HETATM   10  N2  UNL     1      20.437   1.517  48.968  1.00  0.00    -0.242 NA
HETATM   11  C16 UNL     1      19.888   2.589  48.516  1.00  0.00     0.226 C 
HETATM   12  N3  UNL     1      19.949   3.948  48.918  1.00  0.00    -0.265 N 
HETATM   13  N4  UNL     1      20.303   5.094  48.254  1.00  0.00    -0.134 NA
HETATM   14  S1  UNL     1      20.636   4.954  46.659  1.00  0.00     0.033 SA
HETATM   15  C17 UNL     1      21.442   3.564  46.345  1.00  0.00     0.045 C 
HETATM   16  C18 UNL     1      22.367   3.234  47.237  1.00  0.00     0.045 C 
HETATM   17  H13 UNL     1      19.632   3.794  49.898  1.00  0.00     0.190 HD
ENDROOT
BRANCH   6  18
HETATM   18  N1  UNL     1      23.609   0.779  53.577  1.00  0.00    -0.386 N 
HETATM   19  H3  UNL     1      23.748   1.589  54.220  1.00  0.00     0.160 HD
BRANCH  18  20
HETATM   20  C6  UNL     1      24.150  -0.535  53.809  1.00  0.00     0.158 C 
BRANCH  20  21
HETATM   21  C7  UNL     1      25.637  -0.555  53.737  1.00  0.00    -0.041 A 
HETATM   22  C8  UNL     1      26.331   0.206  54.682  1.00  0.00     0.010 A 
HETATM   23  C9  UNL     1      27.704   0.150  54.568  1.00  0.00     0.024 A 
HETATM   24  C10 UNL     1      28.442  -0.552  53.653  1.00  0.00     0.034 A 
HETATM   25 CL2  UNL     1      30.186  -0.512  53.650  1.00  0.00    -0.084 Cl
HETATM   26  C11 UNL     1      27.712  -1.286  52.744  1.00  0.00     0.024 A 
HETATM   27  C12 UNL     1      26.327  -1.291  52.782  1.00  0.00     0.010 A 
ENDBRANCH  20  21
ENDBRANCH  18  20
ENDBRANCH   6  18
TORSDOF 3
ENDMDL
MODEL 9
REMARK VINA RESULT:      -7.7      3.432      8.160
REMARK  3 active torsions:
REMARK  status: ('A' for Active; 'I' for Inactive)
REMARK    1  A    between atoms: C5_6  and  N1_7 
REMARK    2  A    between atoms: N1_7  and  C6_8 
REMARK    3  A    between atoms: C6_8  and  C7_9 
ROOT
HETATM    1 CL1  UNL     1      24.593  -0.507  54.101  1.00  0.00    -0.084 Cl
HETATM    2  C1  UNL     1      25.135   0.505  52.786  1.00  0.00     0.036 C 
HETATM    3  C2  UNL     1      24.515   1.592  52.373  1.00  0.00     0.037 C 
HETATM    4  C3  UNL     1      24.802   2.544  51.319  1.00  0.00    -0.004 A 
HETATM    5  C4  UNL     1      23.698   3.071  50.688  1.00  0.00     0.043 A 
HETATM    6  C5  UNL     1      23.743   3.987  49.659  1.00  0.00     0.029 A 
HETATM    7  C13 UNL     1      25.004   4.372  49.270  1.00  0.00     0.031 A 
HETATM    8  C14 UNL     1      26.128   3.864  49.881  1.00  0.00     0.035 A 
HETATM    9  C15 UNL     1      26.051   2.948  50.908  1.00  0.00     0.068 A 
HETATM   10  N2  UNL     1      27.321   2.566  51.384  1.00  0.00    -0.242 NA
HETATM   11  C16 UNL     1      27.594   2.357  52.624  1.00  0.00     0.226 C 
HETATM   12  N3  UNL     1      26.816   2.429  53.808  1.00  0.00    -0.265 N 
HETATM   13  N4  UNL     1      26.541   1.514  54.791  1.00  0.00    -0.134 NA
HETATM   14  S1  UNL     1      27.303   0.069  54.693  1.00  0.00     0.033 SA
HETATM   15  C17 UNL     1      27.417  -0.433  53.139  1.00  0.00     0.045 C 
HETATM   16  C18 UNL     1      26.344  -0.208  52.393  1.00  0.00     0.045 C 
HETATM   17  H13 UNL     1      26.516   3.419  53.691  1.00  0.00     0.190 HD
ENDROOT
BRANCH   6  18
HETATM   18  N1  UNL     1      22.571   4.507  49.033  1.00  0.00    -0.386 N 
HETATM   19  H3  UNL     1      21.688   4.486  49.587  1.00  0.00     0.160 HD
BRANCH  18  20
HETATM   20  C6  UNL     1      22.668   5.025  47.692  1.00  0.00     0.158 C 
BRANCH  20  21
HETATM   21  C7  UNL     1      22.775   6.510  47.667  1.00  0.00    -0.041 A 
HETATM   22  C8  UNL     1      22.119   7.214  48.681  1.00  0.00     0.010 A 
HETATM   23  C9  UNL     1      22.253   8.585  48.607  1.00  0.00     0.024 A 
HETATM   24  C10 UNL     1      22.940   9.311  47.672  1.00  0.00     0.034 A 
HETATM   25 CL2  UNL     1      23.007  11.054  47.727  1.00  0.00    -0.084 Cl
HETATM   26  C11 UNL     1      23.569   8.572  46.694  1.00  0.00     0.024 A 
HETATM   27  C12 UNL     1      23.490   7.189  46.687  1.00  0.00     0.010 A 
ENDBRANCH  20  21
ENDBRANCH  18  20
ENDBRANCH   6  18
TORSDOF 3
ENDMDL
