MODEL 1
REMARK VINA RESULT:      -8.2      0.000      0.000
REMARK  8 active torsions:
REMARK  status: ('A' for Active; 'I' for Inactive)
REMARK    1  A    between atoms: O1_2  and  C2_3 
REMARK    2  A    between atoms: C6_9  and  N3_10 
REMARK    3  A    between atoms: N3_10  and  C7_11 
REMARK    4  A    between atoms: C15_21  and  O2_22 
REMARK    5  A    between atoms: O2_22  and  C16_23 
REMARK    6  A    between atoms: C16_23  and  C17_24 
REMARK    7  A    between atoms: C17_24  and  N4_25 
REMARK    8  A    between atoms: N4_25  and  C18_26 
ROOT
HETATM    1  C2  UNL     1      22.526  -0.066  52.733  1.00  0.00     0.103 A 
HETATM    2  C3  UNL     1      21.465   0.363  51.924  1.00  0.00     0.072 A 
HETATM    3  C4  UNL     1      21.576   1.612  51.387  1.00  0.00     0.075 A 
HETATM    4  N1  UNL     1      20.563   2.026  50.608  1.00  0.00    -0.241 NA
HETATM    5  C5  UNL     1      20.625   3.244  50.055  1.00  0.00     0.236 A 
HETATM    6  N2  UNL     1      21.639   4.078  50.231  1.00  0.00    -0.224 NA
HETATM    7  C6  UNL     1      22.675   3.716  50.998  1.00  0.00     0.142 A 
HETATM    8  C13 UNL     1      22.650   2.472  51.584  1.00  0.00     0.042 A 
HETATM    9  C14 UNL     1      23.618   1.957  52.382  1.00  0.00     0.057 A 
HETATM   10  C15 UNL     1      23.657   0.729  52.995  1.00  0.00     0.103 A 
ENDROOT
BRANCH   7  11
HETATM   11  N3  UNL     1      23.778   4.566  51.215  1.00  0.00    -0.340 N 
HETATM   12  H6  UNL     1      23.843   5.207  52.032  1.00  0.00     0.167 HD
BRANCH  11  13
HETATM   13  C7  UNL     1      24.935   4.695  50.411  1.00  0.00     0.035 A 
HETATM   14  C8  UNL     1      25.776   3.648  50.102  1.00  0.00     0.032 A 
HETATM   15  C9  UNL     1      26.899   3.752  49.310  1.00  0.00     0.046 A 
HETATM   16  C10 UNL     1      27.237   4.973  48.770  1.00  0.00     0.138 A 
HETATM   17  F1  UNL     1      28.316   5.181  47.979  1.00  0.00    -0.204 F 
HETATM   18  C11 UNL     1      26.441   6.064  49.037  1.00  0.00     0.074 A 
HETATM   19 CL1  UNL     1      26.802   7.658  48.384  1.00  0.00    -0.081 Cl
HETATM   20  C12 UNL     1      25.336   5.884  49.836  1.00  0.00     0.056 A 
ENDBRANCH  11  13
ENDBRANCH   7  11
BRANCH  10  21
HETATM   21  O2  UNL     1      24.482   0.105  53.761  1.00  0.00    -0.347 OA
BRANCH  21  22
HETATM   22  C16 UNL     1      25.503  -0.629  54.148  1.00  0.00     0.195 C 
BRANCH  22  23
HETATM   23  C17 UNL     1      26.402  -1.258  53.077  1.00  0.00     0.147 C 
BRANCH  23  24
HETATM   24  N4  UNL     1      26.985  -0.197  52.302  1.00  0.00    -0.375 N 
HETATM   25  H15 UNL     1      26.936   0.000  51.293  1.00  0.00     0.160 HD
BRANCH  24  26
HETATM   26  C18 UNL     1      27.769   0.782  53.025  1.00  0.00     0.121 C 
HETATM   27  N5  UNL     1      28.762   0.494  53.790  1.00  0.00    -0.249 NA
HETATM   28  C19 UNL     1      29.284   1.731  54.331  1.00  0.00     0.319 C 
HETATM   29  O3  UNL     1      28.205   2.600  54.224  1.00  0.00    -0.363 OA
HETATM   30  C20 UNL     1      27.568   2.258  53.015  1.00  0.00     0.247 C 
ENDBRANCH  24  26
ENDBRANCH  23  24
ENDBRANCH  22  23
ENDBRANCH  21  22
ENDBRANCH  10  21
BRANCH   1  31
HETATM   31  O1  UNL     1      22.342  -1.361  53.250  1.00  0.00    -0.353 OA
HETATM   32  C1  UNL     1      21.452  -1.631  54.292  1.00  0.00     0.210 C 
ENDBRANCH   1  31
TORSDOF 8
ENDMDL
MODEL 2
REMARK VINA RESULT:      -8.2      3.263      5.967
REMARK  8 active torsions:
REMARK  status: ('A' for Active; 'I' for Inactive)
REMARK    1  A    between atoms: O1_2  and  C2_3 
REMARK    2  A    between atoms: C6_9  and  N3_10 
REMARK    3  A    between atoms: N3_10  and  C7_11 
REMARK    4  A    between atoms: C15_21  and  O2_22 
REMARK    5  A    between atoms: O2_22  and  C16_23 
REMARK    6  A    between atoms: C16_23  and  C17_24 
REMARK    7  A    between atoms: C17_24  and  N4_25 
REMARK    8  A    between atoms: N4_25  and  C18_26 
ROOT
HETATM    1  C2  UNL     1      20.002  -0.203  52.534  1.00  0.00     0.103 A 
HETATM    2  C3  UNL     1      20.309  -0.810  53.759  1.00  0.00     0.072 A 
HETATM    3  C4  UNL     1      21.630  -0.873  54.093  1.00  0.00     0.075 A 
HETATM    4  N1  UNL     1      21.928  -1.452  55.268  1.00  0.00    -0.241 NA
HETATM    5  C5  UNL     1      23.211  -1.535  55.643  1.00  0.00     0.236 A 
HETATM    6  N2  UNL     1      24.219  -1.076  54.915  1.00  0.00    -0.224 NA
HETATM    7  C6  UNL     1      23.978  -0.491  53.737  1.00  0.00     0.142 A 
HETATM    8  C13 UNL     1      22.673  -0.384  53.315  1.00  0.00     0.042 A 
HETATM    9  C14 UNL     1      22.264   0.183  52.153  1.00  0.00     0.057 A 
HETATM   10  C15 UNL     1      20.984   0.323  51.674  1.00  0.00     0.103 A 
ENDROOT
BRANCH   7  11
HETATM   11  N3  UNL     1      25.014   0.015  52.927  1.00  0.00    -0.340 N 
HETATM   12  H6  UNL     1      24.836   0.571  52.064  1.00  0.00     0.167 HD
BRANCH  11  13
HETATM   13  C7  UNL     1      26.408  -0.129  53.124  1.00  0.00     0.035 A 
HETATM   14  C8  UNL     1      27.107  -1.284  52.848  1.00  0.00     0.032 A 
HETATM   15  C9  UNL     1      28.465  -1.439  53.020  1.00  0.00     0.046 A 
HETATM   16  C10 UNL     1      29.211  -0.386  53.502  1.00  0.00     0.138 A 
HETATM   17  F1  UNL     1      30.549  -0.434  53.706  1.00  0.00    -0.204 F 
HETATM   18  C11 UNL     1      28.578   0.799  53.800  1.00  0.00     0.074 A 
HETATM   19 CL1  UNL     1      29.460   2.191  54.418  1.00  0.00    -0.081 Cl
HETATM   20  C12 UNL     1      27.219   0.880  53.602  1.00  0.00     0.056 A 
ENDBRANCH  11  13
ENDBRANCH   7  11
BRANCH  10  21
HETATM   21  O2  UNL     1      20.443   0.825  50.621  1.00  0.00    -0.347 OA
BRANCH  21  22
HETATM   22  C16 UNL     1      20.317   1.411  49.449  1.00  0.00     0.195 C 
BRANCH  22  23
HETATM   23  C17 UNL     1      20.394   2.941  49.382  1.00  0.00     0.147 C 
BRANCH  23  24
HETATM   24  N4  UNL     1      21.755   3.310  49.105  1.00  0.00    -0.375 N 
HETATM   25  H15 UNL     1      22.224   3.520  48.213  1.00  0.00     0.160 HD
BRANCH  24  26
HETATM   26  C18 UNL     1      22.643   3.427  50.243  1.00  0.00     0.121 C 
HETATM   27  N5  UNL     1      23.825   2.923  50.295  1.00  0.00    -0.249 NA
HETATM   28  C19 UNL     1      24.394   3.250  51.585  1.00  0.00     0.319 C 
HETATM   29  O3  UNL     1      23.274   3.487  52.371  1.00  0.00    -0.363 OA
HETATM   30  C20 UNL     1      22.351   4.130  51.523  1.00  0.00     0.247 C 
ENDBRANCH  24  26
ENDBRANCH  23  24
ENDBRANCH  22  23
ENDBRANCH  21  22
ENDBRANCH  10  21
BRANCH   1  31
HETATM   31  O1  UNL     1      18.623  -0.173  52.258  1.00  0.00    -0.353 OA
HETATM   32  C1  UNL     1      17.709  -0.994  52.924  1.00  0.00     0.210 C 
ENDBRANCH   1  31
TORSDOF 8
ENDMDL
MODEL 3
REMARK VINA RESULT:      -7.8      4.413      7.587
REMARK  8 active torsions:
REMARK  status: ('A' for Active; 'I' for Inactive)
REMARK    1  A    between atoms: O1_2  and  C2_3 
REMARK    2  A    between atoms: C6_9  and  N3_10 
REMARK    3  A    between atoms: N3_10  and  C7_11 
REMARK    4  A    between atoms: C15_21  and  O2_22 
REMARK    5  A    between atoms: O2_22  and  C16_23 
REMARK    6  A    between atoms: C16_23  and  C17_24 
REMARK    7  A    between atoms: C17_24  and  N4_25 
REMARK    8  A    between atoms: N4_25  and  C18_26 
ROOT
HETATM    1  C2  UNL     1      20.130  -0.101  52.636  1.00  0.00     0.103 A 
HETATM    2  C3  UNL     1      20.438  -0.777  53.823  1.00  0.00     0.072 A 
HETATM    3  C4  UNL     1      21.760  -0.853  54.155  1.00  0.00     0.075 A 
HETATM    4  N1  UNL     1      22.059  -1.499  55.294  1.00  0.00    -0.241 NA
HETATM    5  C5  UNL     1      23.342  -1.599  55.665  1.00  0.00     0.236 A 
HETATM    6  N2  UNL     1      24.348  -1.093  54.967  1.00  0.00    -0.224 NA
HETATM    7  C6  UNL     1      24.106  -0.440  53.824  1.00  0.00     0.142 A 
HETATM    8  C13 UNL     1      22.801  -0.315  53.408  1.00  0.00     0.042 A 
HETATM    9  C14 UNL     1      22.390   0.317  52.281  1.00  0.00     0.057 A 
HETATM   10  C15 UNL     1      21.110   0.479  51.809  1.00  0.00     0.103 A 
ENDROOT
BRANCH   7  11
HETATM   11  N3  UNL     1      25.140   0.117  53.046  1.00  0.00    -0.340 N 
HETATM   12  H6  UNL     1      24.961   0.741  52.233  1.00  0.00     0.167 HD
BRANCH  11  13
HETATM   13  C7  UNL     1      26.534  -0.059  53.217  1.00  0.00     0.035 A 
HETATM   14  C8  UNL     1      27.207  -1.216  52.890  1.00  0.00     0.032 A 
HETATM   15  C9  UNL     1      28.565  -1.401  53.036  1.00  0.00     0.046 A 
HETATM   16  C10 UNL     1      29.338  -0.379  53.542  1.00  0.00     0.138 A 
HETATM   17  F1  UNL     1      30.677  -0.458  53.723  1.00  0.00    -0.204 F 
HETATM   18  C11 UNL     1      28.731   0.806  53.891  1.00  0.00     0.074 A 
HETATM   19 CL1  UNL     1      29.647   2.160  54.542  1.00  0.00    -0.081 Cl
HETATM   20  C12 UNL     1      27.371   0.917  53.717  1.00  0.00     0.056 A 
ENDBRANCH  11  13
ENDBRANCH   7  11
BRANCH  10  21
HETATM   21  O2  UNL     1      20.568   1.040  50.786  1.00  0.00    -0.347 OA
BRANCH  21  22
HETATM   22  C16 UNL     1      20.205   1.265  49.541  1.00  0.00     0.195 C 
BRANCH  22  23
HETATM   23  C17 UNL     1      18.955   2.114  49.285  1.00  0.00     0.147 C 
BRANCH  23  24
HETATM   24  N4  UNL     1      17.851   1.510  49.980  1.00  0.00    -0.375 N 
HETATM   25  H15 UNL     1      17.583   0.521  50.079  1.00  0.00     0.160 HD
BRANCH  24  26
HETATM   26  C18 UNL     1      16.953   2.405  50.678  1.00  0.00     0.121 C 
HETATM   27  N5  UNL     1      16.987   3.687  50.582  1.00  0.00    -0.249 NA
HETATM   28  C19 UNL     1      15.940   4.227  51.423  1.00  0.00     0.319 C 
HETATM   29  O3  UNL     1      15.716   3.207  52.339  1.00  0.00    -0.363 OA
HETATM   30  C20 UNL     1      15.859   2.011  51.609  1.00  0.00     0.247 C 
ENDBRANCH  24  26
ENDBRANCH  23  24
ENDBRANCH  22  23
ENDBRANCH  21  22
ENDBRANCH  10  21
BRANCH   1  31
HETATM   31  O1  UNL     1      18.751  -0.062  52.360  1.00  0.00    -0.353 OA
HETATM   32  C1  UNL     1      17.861  -1.015  52.860  1.00  0.00     0.210 C 
ENDBRANCH   1  31
TORSDOF 8
ENDMDL
MODEL 4
REMARK VINA RESULT:      -7.6      4.543      7.952
REMARK  8 active torsions:
REMARK  status: ('A' for Active; 'I' for Inactive)
REMARK    1  A    between atoms: O1_2  and  C2_3 
REMARK    2  A    between atoms: C6_9  and  N3_10 
REMARK    3  A    between atoms: N3_10  and  C7_11 
REMARK    4  A    between atoms: C15_21  and  O2_22 
REMARK    5  A    between atoms: O2_22  and  C16_23 
REMARK    6  A    between atoms: C16_23  and  C17_24 
REMARK    7  A    between atoms: C17_24  and  N4_25 
REMARK    8  A    between atoms: N4_25  and  C18_26 
ROOT
HETATM    1  C2  UNL     1      25.814   4.113  50.039  1.00  0.00     0.103 A 
HETATM    2  C3  UNL     1      26.586   2.975  50.310  1.00  0.00     0.072 A 
HETATM    3  C4  UNL     1      26.068   2.088  51.209  1.00  0.00     0.075 A 
HETATM    4  N1  UNL     1      26.803   0.995  51.468  1.00  0.00    -0.241 NA
HETATM    5  C5  UNL     1      26.337   0.093  52.342  1.00  0.00     0.236 A 
HETATM    6  N2  UNL     1      25.179   0.215  52.975  1.00  0.00    -0.224 NA
HETATM    7  C6  UNL     1      24.407   1.285  52.753  1.00  0.00     0.142 A 
HETATM    8  C13 UNL     1      24.850   2.235  51.861  1.00  0.00     0.042 A 
HETATM    9  C14 UNL     1      24.187   3.370  51.526  1.00  0.00     0.057 A 
HETATM   10  C15 UNL     1      24.569   4.354  50.647  1.00  0.00     0.103 A 
ENDROOT
BRANCH   7  11
HETATM   11  N3  UNL     1      23.168   1.461  53.398  1.00  0.00    -0.340 N 
HETATM   12  H6  UNL     1      22.904   2.343  53.883  1.00  0.00     0.167 HD
BRANCH  11  13
HETATM   13  C7  UNL     1      22.112   0.525  53.501  1.00  0.00     0.035 A 
HETATM   14  C8  UNL     1      22.097  -0.520  54.400  1.00  0.00     0.032 A 
HETATM   15  C9  UNL     1      21.073  -1.433  54.524  1.00  0.00     0.046 A 
HETATM   16  C10 UNL     1      19.967  -1.327  53.709  1.00  0.00     0.138 A 
HETATM   17  F1  UNL     1      18.909  -2.169  53.752  1.00  0.00    -0.204 F 
HETATM   18  C11 UNL     1      19.915  -0.307  52.787  1.00  0.00     0.074 A 
HETATM   19 CL1  UNL     1      18.538  -0.100  51.710  1.00  0.00    -0.081 Cl
HETATM   20  C12 UNL     1      20.975   0.567  52.720  1.00  0.00     0.056 A 
ENDBRANCH  11  13
ENDBRANCH   7  11
BRANCH  10  21
HETATM   21  O2  UNL     1      24.066   5.462  50.228  1.00  0.00    -0.347 OA
BRANCH  21  22
HETATM   22  C16 UNL     1      23.865   6.754  50.073  1.00  0.00     0.195 C 
BRANCH  22  23
HETATM   23  C17 UNL     1      24.647   7.729  50.960  1.00  0.00     0.147 C 
BRANCH  23  24
HETATM   24  N4  UNL     1      26.051   7.516  50.731  1.00  0.00    -0.375 N 
HETATM   25  H15 UNL     1      26.673   6.760  51.044  1.00  0.00     0.160 HD
BRANCH  24  26
HETATM   26  C18 UNL     1      26.734   8.501  49.919  1.00  0.00     0.121 C 
HETATM   27  N5  UNL     1      27.239   9.593  50.375  1.00  0.00    -0.249 NA
HETATM   28  C19 UNL     1      27.831  10.310  49.267  1.00  0.00     0.319 C 
HETATM   29  O3  UNL     1      27.159   9.796  48.165  1.00  0.00    -0.363 OA
HETATM   30  C20 UNL     1      26.965   8.430  48.449  1.00  0.00     0.247 C 
ENDBRANCH  24  26
ENDBRANCH  23  24
ENDBRANCH  22  23
ENDBRANCH  21  22
ENDBRANCH  10  21
BRANCH   1  31
HETATM   31  O1  UNL     1      26.410   4.979  49.105  1.00  0.00    -0.353 OA
HETATM   32  C1  UNL     1      27.709   4.787  48.630  1.00  0.00     0.210 C 
ENDBRANCH   1  31
TORSDOF 8
ENDMDL
MODEL 5
REMARK VINA RESULT:      -7.6      3.645      6.397
REMARK  8 active torsions:
REMARK  status: ('A' for Active; 'I' for Inactive)
REMARK    1  A    between atoms: O1_2  and  C2_3 
REMARK    2  A    between atoms: C6_9  and  N3_10 
REMARK    3  A    between atoms: N3_10  and  C7_11 
REMARK    4  A    between atoms: C15_21  and  O2_22 
REMARK    5  A    between atoms: O2_22  and  C16_23 
REMARK    6  A    between atoms: C16_23  and  C17_24 
REMARK    7  A    between atoms: C17_24  and  N4_25 
REMARK    8  A    between atoms: N4_25  and  C18_26 
ROOT
HETATM    1  C2  UNL     1      22.255   4.210  49.617  1.00  0.00     0.103 A 
HETATM    2  C3  UNL     1      23.459   4.636  49.043  1.00  0.00     0.072 A 
HETATM    3  C4  UNL     1      24.604   4.115  49.574  1.00  0.00     0.075 A 
HETATM    4  N1  UNL     1      25.761   4.519  49.024  1.00  0.00    -0.241 NA
HETATM    5  C5  UNL     1      26.912   4.036  49.508  1.00  0.00     0.236 A 
HETATM    6  N2  UNL     1      26.981   3.171  50.510  1.00  0.00    -0.224 NA
HETATM    7  C6  UNL     1      25.858   2.736  51.094  1.00  0.00     0.142 A 
HETATM    8  C13 UNL     1      24.654   3.208  50.626  1.00  0.00     0.042 A 
HETATM    9  C14 UNL     1      23.433   2.865  51.105  1.00  0.00     0.057 A 
HETATM   10  C15 UNL     1      22.198   3.295  50.685  1.00  0.00     0.103 A 
ENDROOT
BRANCH   7  11
HETATM   11  N3  UNL     1      25.877   1.816  52.161  1.00  0.00    -0.340 N 
HETATM   12  H6  UNL     1      25.028   1.570  52.709  1.00  0.00     0.167 HD
BRANCH  11  13
HETATM   13  C7  UNL     1      26.991   1.097  52.656  1.00  0.00     0.035 A 
HETATM   14  C8  UNL     1      28.070   1.687  53.277  1.00  0.00     0.032 A 
HETATM   15  C9  UNL     1      29.157   1.003  53.778  1.00  0.00     0.046 A 
HETATM   16  C10 UNL     1      29.203  -0.370  53.668  1.00  0.00     0.138 A 
HETATM   17  F1  UNL     1      30.222  -1.134  54.127  1.00  0.00    -0.204 F 
HETATM   18  C11 UNL     1      28.158  -1.025  53.057  1.00  0.00     0.074 A 
HETATM   19 CL1  UNL     1      28.140  -2.776  52.878  1.00  0.00    -0.081 Cl
HETATM   20  C12 UNL     1      27.107  -0.275  52.582  1.00  0.00     0.056 A 
ENDBRANCH  11  13
ENDBRANCH   7  11
BRANCH  10  21
HETATM   21  O2  UNL     1      20.977   3.069  51.024  1.00  0.00    -0.347 OA
BRANCH  21  22
HETATM   22  C16 UNL     1      19.851   2.427  51.252  1.00  0.00     0.195 C 
BRANCH  22  23
HETATM   23  C17 UNL     1      19.914   1.059  51.941  1.00  0.00     0.147 C 
BRANCH  23  24
HETATM   24  N4  UNL     1      20.473   1.243  53.253  1.00  0.00    -0.375 N 
HETATM   25  H15 UNL     1      20.295   1.968  53.960  1.00  0.00     0.160 HD
BRANCH  24  26
HETATM   26  C18 UNL     1      21.440   0.259  53.692  1.00  0.00     0.121 C 
HETATM   27  N5  UNL     1      21.454  -0.272  54.864  1.00  0.00    -0.249 NA
HETATM   28  C19 UNL     1      22.562  -1.201  54.921  1.00  0.00     0.319 C 
HETATM   29  O3  UNL     1      23.410  -0.740  53.922  1.00  0.00    -0.363 OA
HETATM   30  C20 UNL     1      22.563  -0.298  52.887  1.00  0.00     0.247 C 
ENDBRANCH  24  26
ENDBRANCH  23  24
ENDBRANCH  22  23
ENDBRANCH  21  22
ENDBRANCH  10  21
BRANCH   1  31
HETATM   31  O1  UNL     1      21.119   4.786  49.019  1.00  0.00    -0.353 OA
HETATM   32  C1  UNL     1      21.187   5.501  47.821  1.00  0.00     0.210 C 
ENDBRANCH   1  31
TORSDOF 8
ENDMDL
MODEL 6
REMARK VINA RESULT:      -7.6      3.640      6.452
REMARK  8 active torsions:
REMARK  status: ('A' for Active; 'I' for Inactive)
REMARK    1  A    between atoms: O1_2  and  C2_3 
REMARK    2  A    between atoms: C6_9  and  N3_10 
REMARK    3  A    between atoms: N3_10  and  C7_11 
REMARK    4  A    between atoms: C15_21  and  O2_22 
REMARK    5  A    between atoms: O2_22  and  C16_23 
REMARK    6  A    between atoms: C16_23  and  C17_24 
REMARK    7  A    between atoms: C17_24  and  N4_25 
REMARK    8  A    between atoms: N4_25  and  C18_26 
ROOT
HETATM    1  C2  UNL     1      23.163   2.762  49.403  1.00  0.00     0.103 A 
HETATM    2  C3  UNL     1      22.089   1.926  49.734  1.00  0.00     0.072 A 
HETATM    3  C4  UNL     1      22.191   1.240  50.910  1.00  0.00     0.075 A 
HETATM    4  N1  UNL     1      21.161   0.441  51.232  1.00  0.00    -0.241 NA
HETATM    5  C5  UNL     1      21.212  -0.252  52.377  1.00  0.00     0.236 A 
HETATM    6  N2  UNL     1      22.230  -0.197  53.223  1.00  0.00    -0.224 NA
HETATM    7  C6  UNL     1      23.282   0.584  52.950  1.00  0.00     0.142 A 
HETATM    8  C13 UNL     1      23.269   1.313  51.784  1.00  0.00     0.042 A 
HETATM    9  C14 UNL     1      24.251   2.149  51.366  1.00  0.00     0.057 A 
HETATM   10  C15 UNL     1      24.301   2.905  50.220  1.00  0.00     0.103 A 
ENDROOT
BRANCH   7  11
HETATM   11  N3  UNL     1      24.389   0.679  53.817  1.00  0.00    -0.340 N 
HETATM   12  H6  UNL     1      24.349   1.173  54.732  1.00  0.00     0.167 HD
BRANCH  11  13
HETATM   13  C7  UNL     1      25.686   0.150  53.616  1.00  0.00     0.035 A 
HETATM   14  C8  UNL     1      25.935  -1.054  52.993  1.00  0.00     0.032 A 
HETATM   15  C9  UNL     1      27.190  -1.579  52.776  1.00  0.00     0.046 A 
HETATM   16  C10 UNL     1      28.300  -0.880  53.198  1.00  0.00     0.138 A 
HETATM   17  F1  UNL     1      29.574  -1.307  53.033  1.00  0.00    -0.204 F 
HETATM   18  C11 UNL     1      28.125   0.330  53.829  1.00  0.00     0.074 A 
HETATM   19 CL1  UNL     1      29.490   1.285  54.398  1.00  0.00    -0.081 Cl
HETATM   20  C12 UNL     1      26.842   0.791  54.011  1.00  0.00     0.056 A 
ENDBRANCH  11  13
ENDBRANCH   7  11
BRANCH  10  21
HETATM   21  O2  UNL     1      25.137   3.728  49.693  1.00  0.00    -0.347 OA
BRANCH  21  22
HETATM   22  C16 UNL     1      26.111   4.606  49.580  1.00  0.00     0.195 C 
BRANCH  22  23
HETATM   23  C17 UNL     1      25.757   6.098  49.586  1.00  0.00     0.147 C 
BRANCH  23  24
HETATM   24  N4  UNL     1      25.023   6.380  50.789  1.00  0.00    -0.375 N 
HETATM   25  H15 UNL     1      25.314   6.341  51.775  1.00  0.00     0.160 HD
BRANCH  24  26
HETATM   26  C18 UNL     1      23.648   6.801  50.628  1.00  0.00     0.121 C 
HETATM   27  N5  UNL     1      23.289   7.915  50.093  1.00  0.00    -0.249 NA
HETATM   28  C19 UNL     1      21.843   7.975  50.113  1.00  0.00     0.319 C 
HETATM   29  O3  UNL     1      21.506   7.097  51.135  1.00  0.00    -0.363 OA
HETATM   30  C20 UNL     1      22.435   6.043  51.044  1.00  0.00     0.247 C 
ENDBRANCH  24  26
ENDBRANCH  23  24
ENDBRANCH  22  23
ENDBRANCH  21  22
ENDBRANCH  10  21
BRANCH   1  31
HETATM   31  O1  UNL     1      22.988   3.436  48.181  1.00  0.00    -0.353 OA
HETATM   32  C1  UNL     1      22.078   3.004  47.213  1.00  0.00     0.210 C 
ENDBRANCH   1  31
TORSDOF 8
ENDMDL
MODEL 7
REMARK VINA RESULT:      -7.6      4.523      6.967
REMARK  8 active torsions:
REMARK  status: ('A' for Active; 'I' for Inactive)
REMARK    1  A    between atoms: O1_2  and  C2_3 
REMARK    2  A    between atoms: C6_9  and  N3_10 
REMARK    3  A    between atoms: N3_10  and  C7_11 
REMARK    4  A    between atoms: C15_21  and  O2_22 
REMARK    5  A    between atoms: O2_22  and  C16_23 
REMARK    6  A    between atoms: C16_23  and  C17_24 
REMARK    7  A    between atoms: C17_24  and  N4_25 
REMARK    8  A    between atoms: N4_25  and  C18_26 
ROOT
HETATM    1  C2  UNL     1      24.297   5.412  48.604  1.00  0.00     0.103 A 
HETATM    2  C3  UNL     1      23.387   4.376  48.854  1.00  0.00     0.072 A 
HETATM    3  C4  UNL     1      23.730   3.488  49.832  1.00  0.00     0.075 A 
HETATM    4  N1  UNL     1      22.859   2.495  50.077  1.00  0.00    -0.241 NA
HETATM    5  C5  UNL     1      23.149   1.599  51.029  1.00  0.00     0.236 A 
HETATM    6  N2  UNL     1      24.257   1.631  51.754  1.00  0.00    -0.224 NA
HETATM    7  C6  UNL     1      25.159   2.599  51.551  1.00  0.00     0.142 A 
HETATM    8  C13 UNL     1      24.899   3.541  50.582  1.00  0.00     0.042 A 
HETATM    9  C14 UNL     1      25.706   4.581  50.258  1.00  0.00     0.057 A 
HETATM   10  C15 UNL     1      25.508   5.553  49.307  1.00  0.00     0.103 A 
ENDROOT
BRANCH   7  11
HETATM   11  N3  UNL     1      26.352   2.679  52.296  1.00  0.00    -0.340 N 
HETATM   12  H6  UNL     1      26.739   3.579  52.647  1.00  0.00     0.167 HD
BRANCH  11  13
HETATM   13  C7  UNL     1      27.196   1.611  52.683  1.00  0.00     0.035 A 
HETATM   14  C8  UNL     1      28.402   1.782  53.328  1.00  0.00     0.032 A 
HETATM   15  C9  UNL     1      29.232   0.756  53.725  1.00  0.00     0.046 A 
HETATM   16  C10 UNL     1      28.862  -0.548  53.477  1.00  0.00     0.138 A 
HETATM   17  F1  UNL     1      29.603  -1.627  53.826  1.00  0.00    -0.204 F 
HETATM   18  C11 UNL     1      27.670  -0.793  52.835  1.00  0.00     0.074 A 
HETATM   19 CL1  UNL     1      27.125  -2.429  52.482  1.00  0.00    -0.081 Cl
HETATM   20  C12 UNL     1      26.894   0.282  52.469  1.00  0.00     0.056 A 
ENDBRANCH  11  13
ENDBRANCH   7  11
BRANCH  10  21
HETATM   21  O2  UNL     1      26.158   6.581  48.890  1.00  0.00    -0.347 OA
BRANCH  21  22
HETATM   22  C16 UNL     1      27.163   7.374  48.582  1.00  0.00     0.195 C 
BRANCH  22  23
HETATM   23  C17 UNL     1      28.386   6.767  47.885  1.00  0.00     0.147 C 
BRANCH  23  24
HETATM   24  N4  UNL     1      29.139   6.030  48.862  1.00  0.00    -0.375 N 
HETATM   25  H15 UNL     1      28.826   5.469  49.666  1.00  0.00     0.160 HD
BRANCH  24  26
HETATM   26  C18 UNL     1      30.580   6.044  48.719  1.00  0.00     0.121 C 
HETATM   27  N5  UNL     1      31.299   4.995  48.521  1.00  0.00    -0.249 NA
HETATM   28  C19 UNL     1      32.683   5.412  48.433  1.00  0.00     0.319 C 
HETATM   29  O3  UNL     1      32.688   6.627  49.105  1.00  0.00    -0.363 OA
HETATM   30  C20 UNL     1      31.463   7.241  48.777  1.00  0.00     0.247 C 
ENDBRANCH  24  26
ENDBRANCH  23  24
ENDBRANCH  22  23
ENDBRANCH  21  22
ENDBRANCH  10  21
BRANCH   1  31
HETATM   31  O1  UNL     1      23.877   6.287  47.586  1.00  0.00    -0.353 OA
HETATM   32  C1  UNL     1      22.672   6.990  47.655  1.00  0.00     0.210 C 
ENDBRANCH   1  31
TORSDOF 8
ENDMDL
MODEL 8
REMARK VINA RESULT:      -7.6      5.013      7.760
REMARK  8 active torsions:
REMARK  status: ('A' for Active; 'I' for Inactive)
REMARK    1  A    between atoms: O1_2  and  C2_3 
REMARK    2  A    between atoms: C6_9  and  N3_10 
REMARK    3  A    between atoms: N3_10  and  C7_11 
REMARK    4  A    between atoms: C15_21  and  O2_22 
REMARK    5  A    between atoms: O2_22  and  C16_23 
REMARK    6  A    between atoms: C16_23  and  C17_24 
REMARK    7  A    between atoms: C17_24  and  N4_25 
REMARK    8  A    between atoms: N4_25  and  C18_26 
ROOT
HETATM    1  C2  UNL     1      27.054   6.549  48.355  1.00  0.00     0.103 A 
HETATM    2  C3  UNL     1      25.725   6.653  48.788  1.00  0.00     0.072 A 
HETATM    3  C4  UNL     1      25.197   5.552  49.399  1.00  0.00     0.075 A 
HETATM    4  N1  UNL     1      23.925   5.649  49.818  1.00  0.00    -0.241 NA
HETATM    5  C5  UNL     1      23.361   4.597  50.426  1.00  0.00     0.236 A 
HETATM    6  N2  UNL     1      23.990   3.450  50.641  1.00  0.00    -0.224 NA
HETATM    7  C6  UNL     1      25.259   3.301  50.243  1.00  0.00     0.142 A 
HETATM    8  C13 UNL     1      25.875   4.359  49.615  1.00  0.00     0.042 A 
HETATM    9  C14 UNL     1      27.151   4.368  49.157  1.00  0.00     0.057 A 
HETATM   10  C15 UNL     1      27.826   5.385  48.526  1.00  0.00     0.103 A 
ENDROOT
BRANCH   7  11
HETATM   11  N3  UNL     1      25.972   2.104  50.450  1.00  0.00    -0.340 N 
HETATM   12  H6  UNL     1      26.267   1.480  49.670  1.00  0.00     0.167 HD
BRANCH  11  13
HETATM   13  C7  UNL     1      26.397   1.559  51.684  1.00  0.00     0.035 A 
HETATM   14  C8  UNL     1      25.783   0.492  52.304  1.00  0.00     0.032 A 
HETATM   15  C9  UNL     1      26.189  -0.061  53.498  1.00  0.00     0.046 A 
HETATM   16  C10 UNL     1      27.285   0.462  54.150  1.00  0.00     0.138 A 
HETATM   17  F1  UNL     1      27.766  -0.008  55.325  1.00  0.00    -0.204 F 
HETATM   18  C11 UNL     1      27.947   1.530  53.588  1.00  0.00     0.074 A 
HETATM   19 CL1  UNL     1      29.355   2.255  54.356  1.00  0.00    -0.081 Cl
HETATM   20  C12 UNL     1      27.483   2.029  52.393  1.00  0.00     0.056 A 
ENDBRANCH  11  13
ENDBRANCH   7  11
BRANCH  10  21
HETATM   21  O2  UNL     1      29.007   5.550  48.045  1.00  0.00    -0.347 OA
BRANCH  21  22
HETATM   22  C16 UNL     1      30.310   5.443  47.889  1.00  0.00     0.195 C 
BRANCH  22  23
HETATM   23  C17 UNL     1      31.224   5.910  49.027  1.00  0.00     0.147 C 
BRANCH  23  24
HETATM   24  N4  UNL     1      32.467   5.195  48.926  1.00  0.00    -0.375 N 
HETATM   25  H15 UNL     1      32.665   4.186  48.969  1.00  0.00     0.160 HD
BRANCH  24  26
HETATM   26  C18 UNL     1      33.659   5.989  48.717  1.00  0.00     0.121 C 
HETATM   27  N5  UNL     1      34.845   5.617  49.049  1.00  0.00    -0.249 NA
HETATM   28  C19 UNL     1      35.765   6.673  48.682  1.00  0.00     0.319 C 
HETATM   29  O3  UNL     1      34.947   7.796  48.627  1.00  0.00    -0.363 OA
HETATM   30  C20 UNL     1      33.724   7.342  48.098  1.00  0.00     0.247 C 
ENDBRANCH  24  26
ENDBRANCH  23  24
ENDBRANCH  22  23
ENDBRANCH  21  22
ENDBRANCH  10  21
BRANCH   1  31
HETATM   31  O1  UNL     1      27.530   7.720  47.737  1.00  0.00    -0.353 OA
HETATM   32  C1  UNL     1      28.049   8.792  48.466  1.00  0.00     0.210 C 
ENDBRANCH   1  31
TORSDOF 8
ENDMDL
MODEL 9
REMARK VINA RESULT:      -7.5      2.040      5.047
REMARK  8 active torsions:
REMARK  status: ('A' for Active; 'I' for Inactive)
REMARK    1  A    between atoms: O1_2  and  C2_3 
REMARK    2  A    between atoms: C6_9  and  N3_10 
REMARK    3  A    between atoms: N3_10  and  C7_11 
REMARK    4  A    between atoms: C15_21  and  O2_22 
REMARK    5  A    between atoms: O2_22  and  C16_23 
REMARK    6  A    between atoms: C16_23  and  C17_24 
REMARK    7  A    between atoms: C17_24  and  N4_25 
REMARK    8  A    between atoms: N4_25  and  C18_26 
ROOT
HETATM    1  C2  UNL     1      23.285  -0.196  53.060  1.00  0.00     0.103 A 
HETATM    2  C3  UNL     1      24.624  -0.136  53.469  1.00  0.00     0.072 A 
HETATM    3  C4  UNL     1      25.414   0.777  52.834  1.00  0.00     0.075 A 
HETATM    4  N1  UNL     1      26.697   0.839  53.225  1.00  0.00    -0.241 NA
HETATM    5  C5  UNL     1      27.513   1.721  52.634  1.00  0.00     0.236 A 
HETATM    6  N2  UNL     1      27.127   2.548  51.673  1.00  0.00    -0.224 NA
HETATM    7  C6  UNL     1      25.859   2.528  51.245  1.00  0.00     0.142 A 
HETATM    8  C13 UNL     1      24.988   1.636  51.827  1.00  0.00     0.042 A 
HETATM    9  C14 UNL     1      23.677   1.494  51.511  1.00  0.00     0.057 A 
HETATM   10  C15 UNL     1      22.756   0.630  52.051  1.00  0.00     0.103 A 
ENDROOT
BRANCH   7  11
HETATM   11  N3  UNL     1      25.399   3.386  50.228  1.00  0.00    -0.340 N 
HETATM   12  H6  UNL     1      24.490   3.247  49.740  1.00  0.00     0.167 HD
BRANCH  11  13
HETATM   13  C7  UNL     1      26.048   4.532  49.711  1.00  0.00     0.035 A 
HETATM   14  C8  UNL     1      27.189   4.485  48.938  1.00  0.00     0.032 A 
HETATM   15  C9  UNL     1      27.827   5.587  48.415  1.00  0.00     0.046 A 
HETATM   16  C10 UNL     1      27.319   6.845  48.659  1.00  0.00     0.138 A 
HETATM   17  F1  UNL     1      27.869   7.990  48.191  1.00  0.00    -0.204 F 
HETATM   18  C11 UNL     1      26.182   6.967  49.424  1.00  0.00     0.074 A 
HETATM   19 CL1  UNL     1      25.469   8.536  49.781  1.00  0.00    -0.081 Cl
HETATM   20  C12 UNL     1      25.599   5.821  49.913  1.00  0.00     0.056 A 
ENDBRANCH  11  13
ENDBRANCH   7  11
BRANCH  10  21
HETATM   21  O2  UNL     1      21.508   0.379  51.867  1.00  0.00    -0.347 OA
BRANCH  21  22
HETATM   22  C16 UNL     1      20.204   0.549  51.803  1.00  0.00     0.195 C 
BRANCH  22  23
HETATM   23  C17 UNL     1      19.577   0.898  50.448  1.00  0.00     0.147 C 
BRANCH  23  24
HETATM   24  N4  UNL     1      19.871   2.276  50.160  1.00  0.00    -0.375 N 
HETATM   25  H15 UNL     1      19.428   3.140  50.498  1.00  0.00     0.160 HD
BRANCH  24  26
HETATM   26  C18 UNL     1      20.974   2.530  49.257  1.00  0.00     0.121 C 
HETATM   27  N5  UNL     1      21.494   3.690  49.056  1.00  0.00    -0.249 NA
HETATM   28  C19 UNL     1      22.565   3.540  48.093  1.00  0.00     0.319 C 
HETATM   29  O3  UNL     1      22.229   2.365  47.432  1.00  0.00    -0.363 OA
HETATM   30  C20 UNL     1      21.683   1.523  48.420  1.00  0.00     0.247 C 
ENDBRANCH  24  26
ENDBRANCH  23  24
ENDBRANCH  22  23
ENDBRANCH  21  22
ENDBRANCH  10  21
BRANCH   1  31
HETATM   31  O1  UNL     1      22.532  -1.158  53.759  1.00  0.00    -0.353 OA
HETATM   32  C1  UNL     1      21.886  -0.871  54.963  1.00  0.00     0.210 C 
ENDBRANCH   1  31
TORSDOF 8
ENDMDL
