MODEL 1
REMARK VINA RESULT:      -8.4      0.000      0.000
REMARK  6 active torsions:
REMARK  status: ('A' for Active; 'I' for Inactive)
REMARK    1  A    between atoms: O1_2  and  C2_3 
REMARK    2  A    between atoms: C2_3  and  C3_4 
REMARK    3  A    between atoms: C4_5  and  C5_6 
REMARK       I    between atoms: C5_6  and  N1_8 
REMARK    4  A    between atoms: N1_8  and  C6_9 
REMARK    5  A    between atoms: C13_19  and  N4_20 
REMARK    6  A    between atoms: N4_20  and  C14_21 
ROOT
HETATM    1  C6  UNL     1      24.853   3.253  50.869  1.00  0.00     0.037 A 
HETATM    2  C7  UNL     1      23.684   2.803  50.234  1.00  0.00     0.051 A 
HETATM    3  C8  UNL     1      22.962   1.701  50.722  1.00  0.00     0.042 A 
HETATM    4 BR1  UNL     1      21.360   1.120  49.830  1.00  0.00    -0.049 Br
HETATM    5  C9  UNL     1      23.450   1.075  51.853  1.00  0.00     0.086 A 
HETATM    6  N2  UNL     1      22.786   0.024  52.348  1.00  0.00    -0.257 NA
HETATM    7  C10 UNL     1      23.250  -0.593  53.451  1.00  0.00     0.142 A 
HETATM    8  C11 UNL     1      24.396  -0.151  54.068  1.00  0.00     0.089 A 
HETATM    9  C12 UNL     1      24.863  -0.832  55.240  1.00  0.00     0.103 C 
HETATM   10  N3  UNL     1      25.236  -1.354  56.178  1.00  0.00    -0.191 NA
HETATM   11  C13 UNL     1      25.130   0.934  53.607  1.00  0.00     0.067 A 
HETATM   12  C19 UNL     1      24.595   1.517  52.472  1.00  0.00     0.025 A 
HETATM   13  C20 UNL     1      25.308   2.601  51.996  1.00  0.00     0.045 A 
ENDROOT
BRANCH  11  14
HETATM   14  N4  UNL     1      26.318   1.398  54.240  1.00  0.00    -0.357 N 
HETATM   15  H9  UNL     1      26.512   2.227  54.840  1.00  0.00     0.166 HD
BRANCH  14  16
HETATM   16  C14 UNL     1      27.362   0.457  53.906  1.00  0.00     0.013 A 
HETATM   17  C15 UNL     1      28.444   0.397  54.689  1.00  0.00     0.025 A 
HETATM   18  C16 UNL     1      29.375  -0.618  54.175  1.00  0.00    -0.002 A 
HETATM   19  C17 UNL     1      28.825  -1.139  53.094  1.00  0.00    -0.021 A 
HETATM   20  C18 UNL     1      27.511  -0.536  52.795  1.00  0.00     0.084 A 
ENDBRANCH  14  16
ENDBRANCH  11  14
BRANCH   1  21
HETATM   21  N1  UNL     1      25.387   4.374  50.176  1.00  0.00    -0.316 N 
HETATM   22  C5  UNL     1      26.544   4.473  49.334  1.00  0.00     0.301 C 
HETATM   23  O2  UNL     1      27.360   3.558  49.017  1.00  0.00    -0.258 OA
HETATM   24  H6  UNL     1      24.812   5.228  50.336  1.00  0.00     0.170 HD
BRANCH  22  25
HETATM   25  C4  UNL     1      26.838   5.761  48.761  1.00  0.00    -0.003 C 
HETATM   26  C3  UNL     1      27.085   6.832  48.262  1.00  0.00    -0.070 C 
BRANCH  26  27
HETATM   27  C2  UNL     1      27.406   8.123  47.671  1.00  0.00     0.261 C 
BRANCH  27  28
HETATM   28  O1  UNL     1      28.456   8.757  48.358  1.00  0.00    -0.384 OA
HETATM   29  C1  UNL     1      27.936   9.216  49.570  1.00  0.00     0.202 C 
ENDBRANCH  27  28
ENDBRANCH  26  27
ENDBRANCH  22  25
ENDBRANCH   1  21
TORSDOF 6
ENDMDL
MODEL 2
REMARK VINA RESULT:      -8.2      2.287      4.498
REMARK  6 active torsions:
REMARK  status: ('A' for Active; 'I' for Inactive)
REMARK    1  A    between atoms: O1_2  and  C2_3 
REMARK    2  A    between atoms: C2_3  and  C3_4 
REMARK    3  A    between atoms: C4_5  and  C5_6 
REMARK       I    between atoms: C5_6  and  N1_8 
REMARK    4  A    between atoms: N1_8  and  C6_9 
REMARK    5  A    between atoms: C13_19  and  N4_20 
REMARK    6  A    between atoms: N4_20  and  C14_21 
ROOT
HETATM    1  C6  UNL     1      26.096   2.618  51.290  1.00  0.00     0.037 A 
HETATM    2  C7  UNL     1      27.024   1.681  51.775  1.00  0.00     0.051 A 
HETATM    3  C8  UNL     1      26.623   0.603  52.581  1.00  0.00     0.042 A 
HETATM    4 BR1  UNL     1      27.922  -0.665  53.220  1.00  0.00    -0.049 Br
HETATM    5  C9  UNL     1      25.278   0.502  52.881  1.00  0.00     0.086 A 
HETATM    6  N2  UNL     1      24.861  -0.515  53.644  1.00  0.00    -0.257 NA
HETATM    7  C10 UNL     1      23.552  -0.627  53.940  1.00  0.00     0.142 A 
HETATM    8  C11 UNL     1      22.648   0.293  53.465  1.00  0.00     0.089 A 
HETATM    9  C12 UNL     1      21.262   0.145  53.801  1.00  0.00     0.103 C 
HETATM   10  N3  UNL     1      20.159   0.031  54.049  1.00  0.00    -0.191 NA
HETATM   11  C13 UNL     1      23.015   1.369  52.668  1.00  0.00     0.067 A 
HETATM   12  C19 UNL     1      24.373   1.419  52.406  1.00  0.00     0.025 A 
HETATM   13  C20 UNL     1      24.762   2.481  51.611  1.00  0.00     0.045 A 
ENDROOT
BRANCH  11  14
HETATM   14  N4  UNL     1      22.086   2.326  52.172  1.00  0.00    -0.357 N 
HETATM   15  H9  UNL     1      21.624   3.148  52.616  1.00  0.00     0.166 HD
BRANCH  14  16
HETATM   16  C14 UNL     1      21.820   1.974  50.796  1.00  0.00     0.013 A 
HETATM   17  C15 UNL     1      21.896   2.930  49.865  1.00  0.00     0.025 A 
HETATM   18  C16 UNL     1      21.593   2.363  48.543  1.00  0.00    -0.002 A 
HETATM   19  C17 UNL     1      21.341   1.079  48.719  1.00  0.00    -0.021 A 
HETATM   20  C18 UNL     1      21.450   0.682  50.136  1.00  0.00     0.084 A 
ENDBRANCH  14  16
ENDBRANCH  11  14
BRANCH   1  21
HETATM   21  N1  UNL     1      26.759   3.603  50.506  1.00  0.00    -0.316 N 
HETATM   22  C5  UNL     1      26.254   4.435  49.453  1.00  0.00     0.301 C 
HETATM   23  O2  UNL     1      25.079   4.474  48.983  1.00  0.00    -0.258 OA
HETATM   24  H6  UNL     1      27.759   3.695  50.779  1.00  0.00     0.170 HD
BRANCH  22  25
HETATM   25  C4  UNL     1      27.176   5.353  48.835  1.00  0.00    -0.003 C 
HETATM   26  C3  UNL     1      27.961   6.105  48.312  1.00  0.00    -0.070 C 
BRANCH  26  27
HETATM   27  C2  UNL     1      28.914   7.023  47.704  1.00  0.00     0.261 C 
BRANCH  27  28
HETATM   28  O1  UNL     1      29.804   7.546  48.657  1.00  0.00    -0.384 OA
HETATM   29  C1  UNL     1      29.337   8.816  49.004  1.00  0.00     0.202 C 
ENDBRANCH  27  28
ENDBRANCH  26  27
ENDBRANCH  22  25
ENDBRANCH   1  21
TORSDOF 6
ENDMDL
MODEL 3
REMARK VINA RESULT:      -7.3      2.971      5.518
REMARK  6 active torsions:
REMARK  status: ('A' for Active; 'I' for Inactive)
REMARK    1  A    between atoms: O1_2  and  C2_3 
REMARK    2  A    between atoms: C2_3  and  C3_4 
REMARK    3  A    between atoms: C4_5  and  C5_6 
REMARK       I    between atoms: C5_6  and  N1_8 
REMARK    4  A    between atoms: N1_8  and  C6_9 
REMARK    5  A    between atoms: C13_19  and  N4_20 
REMARK    6  A    between atoms: N4_20  and  C14_21 
ROOT
HETATM    1  C6  UNL     1      26.060   3.450  50.430  1.00  0.00     0.037 A 
HETATM    2  C7  UNL     1      26.535   2.293  51.066  1.00  0.00     0.051 A 
HETATM    3  C8  UNL     1      25.678   1.455  51.799  1.00  0.00     0.042 A 
HETATM    4 BR1  UNL     1      26.364  -0.128  52.652  1.00  0.00    -0.049 Br
HETATM    5  C9  UNL     1      24.346   1.817  51.870  1.00  0.00     0.086 A 
HETATM    6  N2  UNL     1      23.500   1.040  52.556  1.00  0.00    -0.257 NA
HETATM    7  C10 UNL     1      22.200   1.381  52.630  1.00  0.00     0.142 A 
HETATM    8  C11 UNL     1      21.739   2.516  52.006  1.00  0.00     0.089 A 
HETATM    9  C12 UNL     1      20.349   2.850  52.106  1.00  0.00     0.103 C 
HETATM   10  N3  UNL     1      19.246   3.118  52.166  1.00  0.00    -0.191 NA
HETATM   11  C13 UNL     1      22.563   3.363  51.277  1.00  0.00     0.067 A 
HETATM   12  C19 UNL     1      23.884   2.951  51.246  1.00  0.00     0.025 A 
HETATM   13  C20 UNL     1      24.724   3.778  50.523  1.00  0.00     0.045 A 
ENDROOT
BRANCH  11  14
HETATM   14  N4  UNL     1      22.095   4.540  50.629  1.00  0.00    -0.357 N 
HETATM   15  H9  UNL     1      21.848   5.486  50.989  1.00  0.00     0.166 HD
BRANCH  14  16
HETATM   16  C14 UNL     1      21.986   4.225  49.223  1.00  0.00     0.013 A 
HETATM   17  C15 UNL     1      22.350   5.151  48.330  1.00  0.00     0.025 A 
HETATM   18  C16 UNL     1      22.163   4.630  46.968  1.00  0.00    -0.002 A 
HETATM   19  C17 UNL     1      21.688   3.404  47.083  1.00  0.00    -0.021 A 
HETATM   20  C18 UNL     1      21.520   3.004  48.493  1.00  0.00     0.084 A 
ENDBRANCH  14  16
ENDBRANCH  11  14
BRANCH   1  21
HETATM   21  N1  UNL     1      27.126   4.116  49.763  1.00  0.00    -0.316 N 
HETATM   22  C5  UNL     1      27.097   5.231  48.862  1.00  0.00     0.301 C 
HETATM   23  O2  UNL     1      26.089   5.881  48.456  1.00  0.00    -0.258 OA
HETATM   24  H6  UNL     1      28.047   3.691  50.001  1.00  0.00     0.170 HD
BRANCH  22  25
HETATM   25  C4  UNL     1      28.357   5.693  48.339  1.00  0.00    -0.003 C 
HETATM   26  C3  UNL     1      29.416   6.060  47.891  1.00  0.00    -0.070 C 
BRANCH  26  27
HETATM   27  C2  UNL     1      30.702   6.505  47.375  1.00  0.00     0.261 C 
BRANCH  27  28
HETATM   28  O1  UNL     1      31.679   5.502  47.494  1.00  0.00    -0.384 OA
HETATM   29  C1  UNL     1      32.111   5.503  48.822  1.00  0.00     0.202 C 
ENDBRANCH  27  28
ENDBRANCH  26  27
ENDBRANCH  22  25
ENDBRANCH   1  21
TORSDOF 6
ENDMDL
MODEL 4
REMARK VINA RESULT:      -7.3      2.241      2.857
REMARK  6 active torsions:
REMARK  status: ('A' for Active; 'I' for Inactive)
REMARK    1  A    between atoms: O1_2  and  C2_3 
REMARK    2  A    between atoms: C2_3  and  C3_4 
REMARK    3  A    between atoms: C4_5  and  C5_6 
REMARK       I    between atoms: C5_6  and  N1_8 
REMARK    4  A    between atoms: N1_8  and  C6_9 
REMARK    5  A    between atoms: C13_19  and  N4_20 
REMARK    6  A    between atoms: N4_20  and  C14_21 
ROOT
HETATM    1  C6  UNL     1      26.202   4.579  49.763  1.00  0.00     0.037 A 
HETATM    2  C7  UNL     1      25.037   5.325  50.000  1.00  0.00     0.051 A 
HETATM    3  C8  UNL     1      24.030   4.857  50.861  1.00  0.00     0.042 A 
HETATM    4 BR1  UNL     1      22.450   5.912  51.168  1.00  0.00    -0.049 Br
HETATM    5  C9  UNL     1      24.231   3.631  51.464  1.00  0.00     0.086 A 
HETATM    6  N2  UNL     1      23.294   3.156  52.293  1.00  0.00    -0.257 NA
HETATM    7  C10 UNL     1      23.480   1.963  52.889  1.00  0.00     0.142 A 
HETATM    8  C11 UNL     1      24.622   1.235  52.653  1.00  0.00     0.089 A 
HETATM    9  C12 UNL     1      24.788  -0.032  53.303  1.00  0.00     0.103 C 
HETATM   10  N3  UNL     1      24.937  -1.031  53.823  1.00  0.00    -0.191 NA
HETATM   11  C13 UNL     1      25.632   1.671  51.806  1.00  0.00     0.067 A 
HETATM   12  C19 UNL     1      25.372   2.902  51.229  1.00  0.00     0.025 A 
HETATM   13  C20 UNL     1      26.366   3.359  50.384  1.00  0.00     0.045 A 
ENDROOT
BRANCH  11  14
HETATM   14  N4  UNL     1      26.817   0.924  51.555  1.00  0.00    -0.357 N 
HETATM   15  H9  UNL     1      27.099   0.303  50.767  1.00  0.00     0.166 HD
BRANCH  14  16
HETATM   16  C14 UNL     1      27.701   1.157  52.674  1.00  0.00     0.013 A 
HETATM   17  C15 UNL     1      28.289   0.106  53.255  1.00  0.00     0.025 A 
HETATM   18  C16 UNL     1      29.141   0.561  54.363  1.00  0.00    -0.002 A 
HETATM   19  C17 UNL     1      29.038   1.876  54.417  1.00  0.00    -0.021 A 
HETATM   20  C18 UNL     1      28.133   2.405  53.379  1.00  0.00     0.084 A 
ENDBRANCH  14  16
ENDBRANCH  11  14
BRANCH   1  21
HETATM   21  N1  UNL     1      27.052   5.272  48.857  1.00  0.00    -0.316 N 
HETATM   22  C5  UNL     1      27.346   6.673  48.757  1.00  0.00     0.301 C 
HETATM   23  O2  UNL     1      26.901   7.617  49.474  1.00  0.00    -0.258 OA
HETATM   24  H6  UNL     1      27.506   4.618  48.186  1.00  0.00     0.170 HD
BRANCH  22  25
HETATM   25  C4  UNL     1      28.259   7.085  47.723  1.00  0.00    -0.003 C 
HETATM   26  C3  UNL     1      29.027   7.411  46.850  1.00  0.00    -0.070 C 
BRANCH  26  27
HETATM   27  C2  UNL     1      29.969   7.809  45.815  1.00  0.00     0.261 C 
BRANCH  27  28
HETATM   28  O1  UNL     1      31.275   7.387  46.118  1.00  0.00    -0.384 OA
HETATM   29  C1  UNL     1      31.780   8.267  47.077  1.00  0.00     0.202 C 
ENDBRANCH  27  28
ENDBRANCH  26  27
ENDBRANCH  22  25
ENDBRANCH   1  21
TORSDOF 6
ENDMDL
MODEL 5
REMARK VINA RESULT:      -7.3      4.480      8.478
REMARK  6 active torsions:
REMARK  status: ('A' for Active; 'I' for Inactive)
REMARK    1  A    between atoms: O1_2  and  C2_3 
REMARK    2  A    between atoms: C2_3  and  C3_4 
REMARK    3  A    between atoms: C4_5  and  C5_6 
REMARK       I    between atoms: C5_6  and  N1_8 
REMARK    4  A    between atoms: N1_8  and  C6_9 
REMARK    5  A    between atoms: C13_19  and  N4_20 
REMARK    6  A    between atoms: N4_20  and  C14_21 
ROOT
HETATM    1  C6  UNL     1      22.278   0.822  52.034  1.00  0.00     0.037 A 
HETATM    2  C7  UNL     1      23.072   0.168  52.990  1.00  0.00     0.051 A 
HETATM    3  C8  UNL     1      24.455   0.396  53.074  1.00  0.00     0.042 A 
HETATM    4 BR1  UNL     1      25.509  -0.514  54.402  1.00  0.00    -0.049 Br
HETATM    5  C9  UNL     1      25.005   1.291  52.176  1.00  0.00     0.086 A 
HETATM    6  N2  UNL     1      26.320   1.535  52.230  1.00  0.00    -0.257 NA
HETATM    7  C10 UNL     1      26.867   2.407  51.363  1.00  0.00     0.142 A 
HETATM    8  C11 UNL     1      26.087   3.045  50.428  1.00  0.00     0.089 A 
HETATM    9  C12 UNL     1      26.702   3.967  49.519  1.00  0.00     0.103 C 
HETATM   10  N3  UNL     1      27.176   4.710  48.802  1.00  0.00    -0.191 NA
HETATM   11  C13 UNL     1      24.718   2.837  50.320  1.00  0.00     0.067 A 
HETATM   12  C19 UNL     1      24.227   1.930  51.242  1.00  0.00     0.025 A 
HETATM   13  C20 UNL     1      22.865   1.709  51.156  1.00  0.00     0.045 A 
ENDROOT
BRANCH  11  14
HETATM   14  N4  UNL     1      23.903   3.493  49.355  1.00  0.00    -0.357 N 
HETATM   15  H9  UNL     1      23.500   3.176  48.449  1.00  0.00     0.166 HD
BRANCH  14  16
HETATM   16  C14 UNL     1      23.671   4.832  49.847  1.00  0.00     0.013 A 
HETATM   17  C15 UNL     1      23.611   5.836  48.966  1.00  0.00     0.025 A 
HETATM   18  C16 UNL     1      23.368   7.102  49.670  1.00  0.00    -0.002 A 
HETATM   19  C17 UNL     1      23.292   6.823  50.958  1.00  0.00    -0.021 A 
HETATM   20  C18 UNL     1      23.471   5.383  51.225  1.00  0.00     0.084 A 
ENDBRANCH  14  16
ENDBRANCH  11  14
BRANCH   1  21
HETATM   21  N1  UNL     1      20.921   0.413  52.161  1.00  0.00    -0.316 N 
HETATM   22  C5  UNL     1      19.844   0.486  51.217  1.00  0.00     0.301 C 
HETATM   23  O2  UNL     1      19.871   0.941  50.035  1.00  0.00    -0.258 OA
HETATM   24  H6  UNL     1      20.734   0.005  53.100  1.00  0.00     0.170 HD
BRANCH  22  25
HETATM   25  C4  UNL     1      18.561  -0.015  51.636  1.00  0.00    -0.003 C 
HETATM   26  C3  UNL     1      17.476  -0.424  51.971  1.00  0.00    -0.070 C 
BRANCH  26  27
HETATM   27  C2  UNL     1      16.169  -0.904  52.396  1.00  0.00     0.261 C 
BRANCH  27  28
HETATM   28  O1  UNL     1      15.525   0.028  53.228  1.00  0.00    -0.384 OA
HETATM   29  C1  UNL     1      15.002   1.025  52.402  1.00  0.00     0.202 C 
ENDBRANCH  27  28
ENDBRANCH  26  27
ENDBRANCH  22  25
ENDBRANCH   1  21
TORSDOF 6
ENDMDL
MODEL 6
REMARK VINA RESULT:      -7.1      3.725      8.712
REMARK  6 active torsions:
REMARK  status: ('A' for Active; 'I' for Inactive)
REMARK    1  A    between atoms: O1_2  and  C2_3 
REMARK    2  A    between atoms: C2_3  and  C3_4 
REMARK    3  A    between atoms: C4_5  and  C5_6 
REMARK       I    between atoms: C5_6  and  N1_8 
REMARK    4  A    between atoms: N1_8  and  C6_9 
REMARK    5  A    between atoms: C13_19  and  N4_20 
REMARK    6  A    between atoms: N4_20  and  C14_21 
ROOT
HETATM    1  C6  UNL     1      26.303   4.118  49.562  1.00  0.00     0.037 A 
HETATM    2  C7  UNL     1      27.513   4.674  49.116  1.00  0.00     0.051 A 
HETATM    3  C8  UNL     1      27.547   5.898  48.428  1.00  0.00     0.042 A 
HETATM    4 BR1  UNL     1      29.225   6.632  47.838  1.00  0.00    -0.049 Br
HETATM    5  C9  UNL     1      26.341   6.535  48.208  1.00  0.00     0.086 A 
HETATM    6  N2  UNL     1      26.337   7.705  47.559  1.00  0.00    -0.257 NA
HETATM    7  C10 UNL     1      25.168   8.336  47.340  1.00  0.00     0.142 A 
HETATM    8  C11 UNL     1      23.986   7.788  47.778  1.00  0.00     0.089 A 
HETATM    9  C12 UNL     1      22.759   8.487  47.527  1.00  0.00     0.103 C 
HETATM   10  N3  UNL     1      21.781   9.037  47.347  1.00  0.00    -0.191 NA
HETATM   11  C13 UNL     1      23.921   6.579  48.458  1.00  0.00     0.067 A 
HETATM   12  C19 UNL     1      25.159   5.989  48.645  1.00  0.00     0.025 A 
HETATM   13  C20 UNL     1      25.120   4.784  49.323  1.00  0.00     0.045 A 
ENDROOT
BRANCH  11  14
HETATM   14  N4  UNL     1      22.702   6.005  48.914  1.00  0.00    -0.357 N 
HETATM   15  H9  UNL     1      22.106   6.197  49.746  1.00  0.00     0.166 HD
BRANCH  14  16
HETATM   16  C14 UNL     1      22.339   4.984  47.957  1.00  0.00     0.013 A 
HETATM   17  C15 UNL     1      22.069   3.754  48.406  1.00  0.00     0.025 A 
HETATM   18  C16 UNL     1      21.724   2.877  47.277  1.00  0.00    -0.002 A 
HETATM   19  C17 UNL     1      21.799   3.608  46.180  1.00  0.00    -0.021 A 
HETATM   20  C18 UNL     1      22.190   5.001  46.468  1.00  0.00     0.084 A 
ENDBRANCH  14  16
ENDBRANCH  11  14
BRANCH   1  21
HETATM   21  N1  UNL     1      26.546   2.881  50.222  1.00  0.00    -0.316 N 
HETATM   22  C5  UNL     1      25.994   2.362  51.440  1.00  0.00     0.301 C 
HETATM   23  O2  UNL     1      25.148   2.907  52.208  1.00  0.00    -0.258 OA
HETATM   24  H6  UNL     1      27.236   2.302  49.700  1.00  0.00     0.170 HD
BRANCH  22  25
HETATM   25  C4  UNL     1      26.437   1.059  51.865  1.00  0.00    -0.003 C 
HETATM   26  C3  UNL     1      26.789  -0.036  52.231  1.00  0.00    -0.070 C 
BRANCH  26  27
HETATM   27  C2  UNL     1      27.230  -1.346  52.687  1.00  0.00     0.261 C 
BRANCH  27  28
HETATM   28  O1  UNL     1      28.008  -1.249  53.854  1.00  0.00    -0.384 OA
HETATM   29  C1  UNL     1      29.303  -0.906  53.458  1.00  0.00     0.202 C 
ENDBRANCH  27  28
ENDBRANCH  26  27
ENDBRANCH  22  25
ENDBRANCH   1  21
TORSDOF 6
ENDMDL
MODEL 7
REMARK VINA RESULT:      -7.0      3.894      5.876
REMARK  6 active torsions:
REMARK  status: ('A' for Active; 'I' for Inactive)
REMARK    1  A    between atoms: O1_2  and  C2_3 
REMARK    2  A    between atoms: C2_3  and  C3_4 
REMARK    3  A    between atoms: C4_5  and  C5_6 
REMARK       I    between atoms: C5_6  and  N1_8 
REMARK    4  A    between atoms: N1_8  and  C6_9 
REMARK    5  A    between atoms: C13_19  and  N4_20 
REMARK    6  A    between atoms: N4_20  and  C14_21 
ROOT
HETATM    1  C6  UNL     1      27.607   5.380  48.671  1.00  0.00     0.037 A 
HETATM    2  C7  UNL     1      27.436   6.773  48.643  1.00  0.00     0.051 A 
HETATM    3  C8  UNL     1      26.287   7.381  49.177  1.00  0.00     0.042 A 
HETATM    4 BR1  UNL     1      26.090   9.294  49.127  1.00  0.00    -0.049 Br
HETATM    5  C9  UNL     1      25.330   6.551  49.729  1.00  0.00     0.086 A 
HETATM    6  N2  UNL     1      24.224   7.096  50.250  1.00  0.00    -0.257 NA
HETATM    7  C10 UNL     1      23.286   6.298  50.794  1.00  0.00     0.142 A 
HETATM    8  C11 UNL     1      23.458   4.935  50.818  1.00  0.00     0.089 A 
HETATM    9  C12 UNL     1      22.438   4.115  51.404  1.00  0.00     0.103 C 
HETATM   10  N3  UNL     1      21.644   3.455  51.878  1.00  0.00    -0.191 NA
HETATM   11  C13 UNL     1      24.581   4.307  50.297  1.00  0.00     0.067 A 
HETATM   12  C19 UNL     1      25.501   5.188  49.755  1.00  0.00     0.025 A 
HETATM   13  C20 UNL     1      26.630   4.586  49.232  1.00  0.00     0.045 A 
ENDROOT
BRANCH  11  14
HETATM   14  N4  UNL     1      24.767   2.896  50.318  1.00  0.00    -0.357 N 
HETATM   15  H9  UNL     1      24.507   2.146  49.642  1.00  0.00     0.166 HD
BRANCH  14  16
HETATM   16  C14 UNL     1      25.448   2.584  51.553  1.00  0.00     0.013 A 
HETATM   17  C15 UNL     1      26.731   2.213  51.501  1.00  0.00     0.025 A 
HETATM   18  C16 UNL     1      27.227   1.944  52.858  1.00  0.00    -0.002 A 
HETATM   19  C17 UNL     1      26.225   2.161  53.689  1.00  0.00    -0.021 A 
HETATM   20  C18 UNL     1      25.000   2.583  52.982  1.00  0.00     0.084 A 
ENDBRANCH  14  16
ENDBRANCH  11  14
BRANCH   1  21
HETATM   21  N1  UNL     1      28.847   5.027  48.068  1.00  0.00    -0.316 N 
HETATM   22  C5  UNL     1      30.140   5.634  48.196  1.00  0.00     0.301 C 
HETATM   23  O2  UNL     1      30.465   6.640  48.892  1.00  0.00    -0.258 OA
HETATM   24  H6  UNL     1      28.745   4.194  47.452  1.00  0.00     0.170 HD
BRANCH  22  25
HETATM   25  C4  UNL     1      31.224   5.045  47.452  1.00  0.00    -0.003 C 
HETATM   26  C3  UNL     1      32.133   4.570  46.816  1.00  0.00    -0.070 C 
BRANCH  26  27
HETATM   27  C2  UNL     1      33.213   3.979  46.041  1.00  0.00     0.261 C 
BRANCH  27  28
HETATM   28  O1  UNL     1      33.760   2.859  46.690  1.00  0.00    -0.384 OA
HETATM   29  C1  UNL     1      34.559   3.335  47.732  1.00  0.00     0.202 C 
ENDBRANCH  27  28
ENDBRANCH  26  27
ENDBRANCH  22  25
ENDBRANCH   1  21
TORSDOF 6
ENDMDL
MODEL 8
REMARK VINA RESULT:      -7.0      3.122      8.300
REMARK  6 active torsions:
REMARK  status: ('A' for Active; 'I' for Inactive)
REMARK    1  A    between atoms: O1_2  and  C2_3 
REMARK    2  A    between atoms: C2_3  and  C3_4 
REMARK    3  A    between atoms: C4_5  and  C5_6 
REMARK       I    between atoms: C5_6  and  N1_8 
REMARK    4  A    between atoms: N1_8  and  C6_9 
REMARK    5  A    between atoms: C13_19  and  N4_20 
REMARK    6  A    between atoms: N4_20  and  C14_21 
ROOT
HETATM    1  C6  UNL     1      25.292   3.956  49.870  1.00  0.00     0.037 A 
HETATM    2  C7  UNL     1      24.093   3.668  49.199  1.00  0.00     0.051 A 
HETATM    3  C8  UNL     1      23.396   4.658  48.487  1.00  0.00     0.042 A 
HETATM    4 BR1  UNL     1      21.760   4.224  47.572  1.00  0.00    -0.049 Br
HETATM    5  C9  UNL     1      23.938   5.929  48.474  1.00  0.00     0.086 A 
HETATM    6  N2  UNL     1      23.302   6.896  47.802  1.00  0.00    -0.257 NA
HETATM    7  C10 UNL     1      23.822   8.138  47.781  1.00  0.00     0.142 A 
HETATM    8  C11 UNL     1      24.995   8.416  48.440  1.00  0.00     0.089 A 
HETATM    9  C12 UNL     1      25.520   9.750  48.397  1.00  0.00     0.103 C 
HETATM   10  N3  UNL     1      25.953  10.799  48.359  1.00  0.00    -0.191 NA
HETATM   11  C13 UNL     1      25.704   7.458  49.154  1.00  0.00     0.067 A 
HETATM   12  C19 UNL     1      25.111   6.208  49.132  1.00  0.00     0.025 A 
HETATM   13  C20 UNL     1      25.800   5.237  49.834  1.00  0.00     0.045 A 
ENDROOT
BRANCH  11  14
HETATM   14  N4  UNL     1      26.919   7.738  49.840  1.00  0.00    -0.357 N 
HETATM   15  H9  UNL     1      27.127   7.935  50.841  1.00  0.00     0.166 HD
BRANCH  14  16
HETATM   16  C14 UNL     1      27.971   7.713  48.850  1.00  0.00     0.013 A 
HETATM   17  C15 UNL     1      28.919   8.655  48.899  1.00  0.00     0.025 A 
HETATM   18  C16 UNL     1      29.884   8.447  47.811  1.00  0.00    -0.002 A 
HETATM   19  C17 UNL     1      29.488   7.385  47.136  1.00  0.00    -0.021 A 
HETATM   20  C18 UNL     1      28.254   6.801  47.697  1.00  0.00     0.084 A 
ENDBRANCH  14  16
ENDBRANCH  11  14
BRANCH   1  21
HETATM   21  N1  UNL     1      25.788   2.786  50.510  1.00  0.00    -0.316 N 
HETATM   22  C5  UNL     1      25.521   2.268  51.821  1.00  0.00     0.301 C 
HETATM   23  O2  UNL     1      24.765   2.754  52.713  1.00  0.00    -0.258 OA
HETATM   24  H6  UNL     1      26.439   2.261  49.889  1.00  0.00     0.170 HD
BRANCH  22  25
HETATM   25  C4  UNL     1      26.180   1.044  52.196  1.00  0.00    -0.003 C 
HETATM   26  C3  UNL     1      26.746   0.021  52.494  1.00  0.00    -0.070 C 
BRANCH  26  27
HETATM   27  C2  UNL     1      27.409  -1.227  52.847  1.00  0.00     0.261 C 
BRANCH  27  28
HETATM   28  O1  UNL     1      28.753  -1.015  53.196  1.00  0.00    -0.384 OA
HETATM   29  C1  UNL     1      28.759  -0.238  54.357  1.00  0.00     0.202 C 
ENDBRANCH  27  28
ENDBRANCH  26  27
ENDBRANCH  22  25
ENDBRANCH   1  21
TORSDOF 6
ENDMDL
MODEL 9
REMARK VINA RESULT:      -6.9      3.478      9.141
REMARK  6 active torsions:
REMARK  status: ('A' for Active; 'I' for Inactive)
REMARK    1  A    between atoms: O1_2  and  C2_3 
REMARK    2  A    between atoms: C2_3  and  C3_4 
REMARK    3  A    between atoms: C4_5  and  C5_6 
REMARK       I    between atoms: C5_6  and  N1_8 
REMARK    4  A    between atoms: N1_8  and  C6_9 
REMARK    5  A    between atoms: C13_19  and  N4_20 
REMARK    6  A    between atoms: N4_20  and  C14_21 
ROOT
HETATM    1  C6  UNL     1      25.653   6.185  49.770  1.00  0.00     0.037 A 
HETATM    2  C7  UNL     1      24.505   6.235  48.963  1.00  0.00     0.051 A 
HETATM    3  C8  UNL     1      24.152   7.401  48.264  1.00  0.00     0.042 A 
HETATM    4 BR1  UNL     1      22.575   7.430  47.161  1.00  0.00    -0.049 Br
HETATM    5  C9  UNL     1      24.980   8.499  48.403  1.00  0.00     0.086 A 
HETATM    6  N2  UNL     1      24.675   9.625  47.748  1.00  0.00    -0.257 NA
HETATM    7  C10 UNL     1      25.476  10.700  47.874  1.00  0.00     0.142 A 
HETATM    8  C11 UNL     1      26.598  10.647  48.665  1.00  0.00     0.089 A 
HETATM    9  C12 UNL     1      27.427  11.811  48.778  1.00  0.00     0.103 C 
HETATM   10  N3  UNL     1      28.100  12.722  48.864  1.00  0.00    -0.191 NA
HETATM   11  C13 UNL     1      26.970   9.510  49.369  1.00  0.00     0.067 A 
HETATM   12  C19 UNL     1      26.102   8.446  49.193  1.00  0.00     0.025 A 
HETATM   13  C20 UNL     1      26.454   7.301  49.883  1.00  0.00     0.045 A 
ENDROOT
BRANCH  11  14
HETATM   14  N4  UNL     1      28.130   9.446  50.192  1.00  0.00    -0.357 N 
HETATM   15  H9  UNL     1      28.266   9.552  51.219  1.00  0.00     0.166 HD
BRANCH  14  16
HETATM   16  C14 UNL     1      29.248   9.183  49.315  1.00  0.00     0.013 A 
HETATM   17  C15 UNL     1      30.392   9.843  49.521  1.00  0.00     0.025 A 
HETATM   18  C16 UNL     1      31.392   9.428  48.527  1.00  0.00    -0.002 A 
HETATM   19  C17 UNL     1      30.818   8.529  47.749  1.00  0.00    -0.021 A 
HETATM   20  C18 UNL     1      29.420   8.268  48.142  1.00  0.00     0.084 A 
ENDBRANCH  14  16
ENDBRANCH  11  14
BRANCH   1  21
HETATM   21  N1  UNL     1      25.779   4.898  50.363  1.00  0.00    -0.316 N 
HETATM   22  C5  UNL     1      26.575   3.773  49.966  1.00  0.00     0.301 C 
HETATM   23  O2  UNL     1      27.360   3.682  48.977  1.00  0.00    -0.258 OA
HETATM   24  H6  UNL     1      25.182   4.812  51.212  1.00  0.00     0.170 HD
BRANCH  22  25
HETATM   25  C4  UNL     1      26.495   2.585  50.777  1.00  0.00    -0.003 C 
HETATM   26  C3  UNL     1      26.415   1.601  51.471  1.00  0.00    -0.070 C 
BRANCH  26  27
HETATM   27  C2  UNL     1      26.344   0.415  52.312  1.00  0.00     0.261 C 
BRANCH  27  28
HETATM   28  O1  UNL     1      26.899   0.650  53.581  1.00  0.00    -0.384 OA
HETATM   29  C1  UNL     1      28.288   0.630  53.433  1.00  0.00     0.202 C 
ENDBRANCH  27  28
ENDBRANCH  26  27
ENDBRANCH  22  25
ENDBRANCH   1  21
TORSDOF 6
ENDMDL
