MODEL 1
REMARK VINA RESULT:      -8.7      0.000      0.000
REMARK  5 active torsions:
REMARK  status: ('A' for Active; 'I' for Inactive)
REMARK    1  A    between atoms: C3_3  and  C4_4 
REMARK       I    between atoms: C4_4  and  N1_6 
REMARK    2  A    between atoms: N1_6  and  C5_7 
REMARK    3  A    between atoms: C5_7  and  C8_10 
REMARK    4  A    between atoms: C14_18  and  N4_19 
REMARK    5  A    between atoms: N4_19  and  C15_20 
ROOT
HETATM    1  C8  UNL     1      25.294   1.865  52.323  1.00  0.00     0.040 C 
HETATM    2  C9  UNL     1      26.545   1.547  52.688  1.00  0.00    -0.008 A 
HETATM    3  C10 UNL     1      27.600   2.559  52.890  1.00  0.00     0.189 A 
HETATM    4  N2  UNL     1      28.847   1.891  53.161  1.00  0.00    -0.295 NA
HETATM    5  C11 UNL     1      28.995   0.628  53.255  1.00  0.00     0.135 A 
HETATM    6  C12 UNL     1      27.956  -0.377  53.102  1.00  0.00     0.088 A 
HETATM    7  C13 UNL     1      28.303  -1.753  53.253  1.00  0.00     0.103 C 
HETATM    8  N3  UNL     1      28.600  -2.858  53.366  1.00  0.00    -0.191 NA
HETATM    9  C14 UNL     1      26.757   0.086  52.829  1.00  0.00     0.063 A 
ENDROOT
BRANCH   9  10
HETATM   10  N4  UNL     1      25.679  -0.844  52.692  1.00  0.00    -0.354 N 
HETATM   11  H15 UNL     1      25.705  -1.458  51.864  1.00  0.00     0.166 HD
BRANCH  10  12
HETATM   12  C15 UNL     1      24.604  -0.946  53.641  1.00  0.00     0.033 A 
HETATM   13  C16 UNL     1      24.568  -1.270  54.983  1.00  0.00     0.029 A 
HETATM   14  C17 UNL     1      23.389  -1.263  55.654  1.00  0.00     0.004 A 
HETATM   15  C18 UNL     1      22.190  -0.941  55.053  1.00  0.00     0.019 A 
HETATM   16  C19 UNL     1      22.203  -0.618  53.724  1.00  0.00     0.013 A 
HETATM   17 BR1  UNL     1      20.516  -0.183  52.958  1.00  0.00    -0.051 Br
HETATM   18  C20 UNL     1      23.392  -0.617  53.012  1.00  0.00     0.048 A 
ENDBRANCH  10  12
ENDBRANCH   9  10
BRANCH   1  19
HETATM   19  C5  UNL     1      24.750   3.188  52.069  1.00  0.00     0.031 C 
HETATM   20  C6  UNL     1      23.593   3.574  52.578  1.00  0.00    -0.002 C 
HETATM   21  C7  UNL     1      22.873   4.849  52.444  1.00  0.00     0.038 C 
BRANCH  19  22
HETATM   22  N1  UNL     1      25.093   4.368  51.354  1.00  0.00    -0.324 N 
HETATM   23  C4  UNL     1      25.230   4.376  49.927  1.00  0.00     0.245 C 
HETATM   24  O1  UNL     1      25.029   3.223  49.443  1.00  0.00    -0.268 OA
HETATM   25  H6  UNL     1      25.260   5.313  51.822  1.00  0.00     0.169 HD
BRANCH  23  26
HETATM   26  C3  UNL     1      25.558   5.568  49.171  1.00  0.00     0.070 C 
HETATM   27  C2  UNL     1      26.721   5.803  48.607  1.00  0.00    -0.026 C 
HETATM   28  C1  UNL     1      27.944   4.967  48.590  1.00  0.00     0.036 C 
ENDBRANCH  23  26
ENDBRANCH  19  22
ENDBRANCH   1  19
TORSDOF 5
ENDMDL
MODEL 2
REMARK VINA RESULT:      -8.6      2.848      4.865
REMARK  5 active torsions:
REMARK  status: ('A' for Active; 'I' for Inactive)
REMARK    1  A    between atoms: C3_3  and  C4_4 
REMARK       I    between atoms: C4_4  and  N1_6 
REMARK    2  A    between atoms: N1_6  and  C5_7 
REMARK    3  A    between atoms: C5_7  and  C8_10 
REMARK    4  A    between atoms: C14_18  and  N4_19 
REMARK    5  A    between atoms: N4_19  and  C15_20 
ROOT
HETATM    1  C8  UNL     1      24.468   2.266  51.812  1.00  0.00     0.040 C 
HETATM    2  C9  UNL     1      23.384   1.477  51.758  1.00  0.00    -0.008 A 
HETATM    3  C10 UNL     1      22.374   1.577  50.688  1.00  0.00     0.189 A 
HETATM    4  N2  UNL     1      21.287   0.679  50.981  1.00  0.00    -0.295 NA
HETATM    5  C11 UNL     1      21.238  -0.108  51.983  1.00  0.00     0.135 A 
HETATM    6  C12 UNL     1      22.246  -0.249  53.021  1.00  0.00     0.088 A 
HETATM    7  C13 UNL     1      22.027  -1.192  54.068  1.00  0.00     0.103 C 
HETATM    8  N3  UNL     1      21.831  -1.948  54.912  1.00  0.00    -0.191 NA
HETATM    9  C14 UNL     1      23.297   0.530  52.897  1.00  0.00     0.063 A 
ENDROOT
BRANCH   9  10
HETATM   10  N4  UNL     1      24.343   0.427  53.867  1.00  0.00    -0.354 N 
HETATM   11  H15 UNL     1      24.128   0.777  54.813  1.00  0.00     0.166 HD
BRANCH  10  12
HETATM   12  C15 UNL     1      25.635  -0.133  53.574  1.00  0.00     0.033 A 
HETATM   13  C16 UNL     1      26.029  -1.290  52.933  1.00  0.00     0.029 A 
HETATM   14  C17 UNL     1      27.348  -1.562  52.769  1.00  0.00     0.004 A 
HETATM   15  C18 UNL     1      28.345  -0.722  53.218  1.00  0.00     0.019 A 
HETATM   16  C19 UNL     1      27.976   0.431  53.857  1.00  0.00     0.013 A 
HETATM   17 BR1  UNL     1      29.401   1.545  54.450  1.00  0.00    -0.051 Br
HETATM   18  C20 UNL     1      26.637   0.734  54.040  1.00  0.00     0.048 A 
ENDBRANCH  10  12
ENDBRANCH   9  10
BRANCH   1  19
HETATM   19  C5  UNL     1      24.850   3.316  50.883  1.00  0.00     0.031 C 
HETATM   20  C6  UNL     1      26.020   3.309  50.268  1.00  0.00    -0.002 C 
HETATM   21  C7  UNL     1      26.596   4.262  49.308  1.00  0.00     0.038 C 
BRANCH  19  22
HETATM   22  N1  UNL     1      24.313   4.516  50.343  1.00  0.00    -0.324 N 
HETATM   23  C4  UNL     1      23.706   5.515  51.173  1.00  0.00     0.245 C 
HETATM   24  O1  UNL     1      23.709   5.161  52.389  1.00  0.00    -0.268 OA
HETATM   25  H6  UNL     1      24.332   4.754  49.302  1.00  0.00     0.169 HD
BRANCH  23  26
HETATM   26  C3  UNL     1      23.169   6.756  50.652  1.00  0.00     0.070 C 
HETATM   27  C2  UNL     1      23.890   7.786  50.272  1.00  0.00    -0.026 C 
HETATM   28  C1  UNL     1      25.362   7.953  50.270  1.00  0.00     0.036 C 
ENDBRANCH  23  26
ENDBRANCH  19  22
ENDBRANCH   1  19
TORSDOF 5
ENDMDL
MODEL 3
REMARK VINA RESULT:      -8.6      2.810      4.765
REMARK  5 active torsions:
REMARK  status: ('A' for Active; 'I' for Inactive)
REMARK    1  A    between atoms: C3_3  and  C4_4 
REMARK       I    between atoms: C4_4  and  N1_6 
REMARK    2  A    between atoms: N1_6  and  C5_7 
REMARK    3  A    between atoms: C5_7  and  C8_10 
REMARK    4  A    between atoms: C14_18  and  N4_19 
REMARK    5  A    between atoms: N4_19  and  C15_20 
ROOT
HETATM    1  C8  UNL     1      23.383   1.714  50.938  1.00  0.00     0.040 C 
HETATM    2  C9  UNL     1      22.466   1.370  51.855  1.00  0.00    -0.008 A 
HETATM    3  C10 UNL     1      21.119   1.968  51.901  1.00  0.00     0.189 A 
HETATM    4  N2  UNL     1      20.424   1.474  53.062  1.00  0.00    -0.295 NA
HETATM    5  C11 UNL     1      20.892   0.621  53.887  1.00  0.00     0.135 A 
HETATM    6  C12 UNL     1      22.200  -0.009  53.829  1.00  0.00     0.088 A 
HETATM    7  C13 UNL     1      22.553  -0.955  54.836  1.00  0.00     0.103 C 
HETATM    8  N3  UNL     1      22.828  -1.706  55.662  1.00  0.00    -0.191 NA
HETATM    9  C14 UNL     1      22.962   0.363  52.824  1.00  0.00     0.063 A 
ENDROOT
BRANCH   9  10
HETATM   10  N4  UNL     1      24.254  -0.237  52.687  1.00  0.00    -0.354 N 
HETATM   11  H15 UNL     1      24.280  -1.180  52.272  1.00  0.00     0.166 HD
BRANCH  10  12
HETATM   12  C15 UNL     1      25.469   0.414  53.094  1.00  0.00     0.033 A 
HETATM   13  C16 UNL     1      25.747   1.700  53.510  1.00  0.00     0.029 A 
HETATM   14  C17 UNL     1      27.010   2.043  53.867  1.00  0.00     0.004 A 
HETATM   15  C18 UNL     1      28.062   1.152  53.837  1.00  0.00     0.019 A 
HETATM   16  C19 UNL     1      27.809  -0.129  53.427  1.00  0.00     0.013 A 
HETATM   17 BR1  UNL     1      29.304  -1.307  53.411  1.00  0.00    -0.051 Br
HETATM   18  C20 UNL     1      26.529  -0.507  53.056  1.00  0.00     0.048 A 
ENDBRANCH  10  12
ENDBRANCH   9  10
BRANCH   1  19
HETATM   19  C5  UNL     1      23.248   2.684  49.866  1.00  0.00     0.031 C 
HETATM   20  C6  UNL     1      22.543   2.426  48.778  1.00  0.00    -0.002 C 
HETATM   21  C7  UNL     1      22.286   3.256  47.591  1.00  0.00     0.038 C 
BRANCH  19  22
HETATM   22  N1  UNL     1      23.684   4.001  49.551  1.00  0.00    -0.324 N 
HETATM   23  C4  UNL     1      25.074   4.330  49.431  1.00  0.00     0.245 C 
HETATM   24  O1  UNL     1      25.803   3.320  49.660  1.00  0.00    -0.268 OA
HETATM   25  H6  UNL     1      23.017   4.817  49.376  1.00  0.00     0.169 HD
BRANCH  23  26
HETATM   26  C3  UNL     1      25.546   5.657  49.091  1.00  0.00     0.070 C 
HETATM   27  C2  UNL     1      26.768   5.944  48.703  1.00  0.00    -0.026 C 
HETATM   28  C1  UNL     1      27.931   5.044  48.518  1.00  0.00     0.036 C 
ENDBRANCH  23  26
ENDBRANCH  19  22
ENDBRANCH   1  19
TORSDOF 5
ENDMDL
MODEL 4
REMARK VINA RESULT:      -8.6      3.279      6.559
REMARK  5 active torsions:
REMARK  status: ('A' for Active; 'I' for Inactive)
REMARK    1  A    between atoms: C3_3  and  C4_4 
REMARK       I    between atoms: C4_4  and  N1_6 
REMARK    2  A    between atoms: N1_6  and  C5_7 
REMARK    3  A    between atoms: C5_7  and  C8_10 
REMARK    4  A    between atoms: C14_18  and  N4_19 
REMARK    5  A    between atoms: N4_19  and  C15_20 
ROOT
HETATM    1  C8  UNL     1      24.110   1.099  53.122  1.00  0.00     0.040 C 
HETATM    2  C9  UNL     1      23.147   0.251  53.514  1.00  0.00    -0.008 A 
HETATM    3  C10 UNL     1      23.410  -0.907  54.388  1.00  0.00     0.189 A 
HETATM    4  N2  UNL     1      22.199  -1.676  54.527  1.00  0.00    -0.295 NA
HETATM    5  C11 UNL     1      21.075  -1.369  54.011  1.00  0.00     0.135 A 
HETATM    6  C12 UNL     1      20.792  -0.208  53.184  1.00  0.00     0.088 A 
HETATM    7  C13 UNL     1      19.465  -0.016  52.699  1.00  0.00     0.103 C 
HETATM    8  N3  UNL     1      18.393   0.118  52.305  1.00  0.00    -0.191 NA
HETATM    9  C14 UNL     1      21.815   0.583  52.952  1.00  0.00     0.063 A 
ENDROOT
BRANCH   9  10
HETATM   10  N4  UNL     1      21.605   1.762  52.169  1.00  0.00    -0.354 N 
HETATM   11  H15 UNL     1      21.306   2.606  52.680  1.00  0.00     0.166 HD
BRANCH  10  12
HETATM   12  C15 UNL     1      21.795   1.803  50.744  1.00  0.00     0.033 A 
HETATM   13  C16 UNL     1      21.491   0.912  49.734  1.00  0.00     0.029 A 
HETATM   14  C17 UNL     1      21.764   1.226  48.444  1.00  0.00     0.004 A 
HETATM   15  C18 UNL     1      22.344   2.422  48.073  1.00  0.00     0.019 A 
HETATM   16  C19 UNL     1      22.654   3.320  49.058  1.00  0.00     0.013 A 
HETATM   17 BR1  UNL     1      23.449   4.949  48.479  1.00  0.00    -0.051 Br
HETATM   18  C20 UNL     1      22.387   3.025  50.386  1.00  0.00     0.048 A 
ENDBRANCH  10  12
ENDBRANCH   9  10
BRANCH   1  19
HETATM   19  C5  UNL     1      25.523   1.056  53.456  1.00  0.00     0.031 C 
HETATM   20  C6  UNL     1      26.264   2.151  53.489  1.00  0.00    -0.002 C 
HETATM   21  C7  UNL     1      27.692   2.324  53.797  1.00  0.00     0.038 C 
BRANCH  19  22
HETATM   22  N1  UNL     1      26.513   0.097  53.806  1.00  0.00    -0.324 N 
HETATM   23  C4  UNL     1      27.096  -0.778  52.832  1.00  0.00     0.245 C 
HETATM   24  O1  UNL     1      26.597  -0.582  51.686  1.00  0.00    -0.268 OA
HETATM   25  H6  UNL     1      26.888  -0.028  54.798  1.00  0.00     0.169 HD
BRANCH  23  26
HETATM   26  C3  UNL     1      28.121  -1.751  53.157  1.00  0.00     0.070 C 
HETATM   27  C2  UNL     1      29.374  -1.461  53.424  1.00  0.00    -0.026 C 
HETATM   28  C1  UNL     1      30.045  -0.140  53.465  1.00  0.00     0.036 C 
ENDBRANCH  23  26
ENDBRANCH  19  22
ENDBRANCH   1  19
TORSDOF 5
ENDMDL
MODEL 5
REMARK VINA RESULT:      -8.5      2.730      6.134
REMARK  5 active torsions:
REMARK  status: ('A' for Active; 'I' for Inactive)
REMARK    1  A    between atoms: C3_3  and  C4_4 
REMARK       I    between atoms: C4_4  and  N1_6 
REMARK    2  A    between atoms: N1_6  and  C5_7 
REMARK    3  A    between atoms: C5_7  and  C8_10 
REMARK    4  A    between atoms: C14_18  and  N4_19 
REMARK    5  A    between atoms: N4_19  and  C15_20 
ROOT
HETATM    1  C8  UNL     1      23.656   0.746  53.121  1.00  0.00     0.040 C 
HETATM    2  C9  UNL     1      24.916   0.311  53.270  1.00  0.00    -0.008 A 
HETATM    3  C10 UNL     1      25.251  -1.111  53.471  1.00  0.00     0.189 A 
HETATM    4  N2  UNL     1      26.667  -1.232  53.711  1.00  0.00    -0.295 NA
HETATM    5  C11 UNL     1      27.495  -0.263  53.702  1.00  0.00     0.135 A 
HETATM    6  C12 UNL     1      27.185   1.136  53.462  1.00  0.00     0.088 A 
HETATM    7  C13 UNL     1      28.247   2.089  53.479  1.00  0.00     0.103 C 
HETATM    8  N3  UNL     1      29.112   2.846  53.508  1.00  0.00    -0.191 NA
HETATM    9  C14 UNL     1      25.917   1.405  53.245  1.00  0.00     0.063 A 
ENDROOT
BRANCH   9  10
HETATM   10  N4  UNL     1      25.541   2.758  52.974  1.00  0.00    -0.354 N 
HETATM   11  H15 UNL     1      25.320   3.346  53.791  1.00  0.00     0.166 HD
BRANCH  10  12
HETATM   12  C15 UNL     1      25.469   3.302  51.645  1.00  0.00     0.033 A 
HETATM   13  C16 UNL     1      26.298   3.199  50.546  1.00  0.00     0.029 A 
HETATM   14  C17 UNL     1      25.964   3.810  49.381  1.00  0.00     0.004 A 
HETATM   15  C18 UNL     1      24.810   4.549  49.230  1.00  0.00     0.019 A 
HETATM   16  C19 UNL     1      23.974   4.665  50.307  1.00  0.00     0.013 A 
HETATM   17 BR1  UNL     1      22.398   5.696  50.030  1.00  0.00    -0.051 Br
HETATM   18  C20 UNL     1      24.289   4.052  51.510  1.00  0.00     0.048 A 
ENDBRANCH  10  12
ENDBRANCH   9  10
BRANCH   1  19
HETATM   19  C5  UNL     1      22.436  -0.042  53.124  1.00  0.00     0.031 C 
HETATM   20  C6  UNL     1      22.088  -0.783  54.162  1.00  0.00    -0.002 C 
HETATM   21  C7  UNL     1      20.914  -1.645  54.365  1.00  0.00     0.038 C 
BRANCH  19  22
HETATM   22  N1  UNL     1      21.341  -0.324  52.262  1.00  0.00    -0.324 N 
HETATM   23  C4  UNL     1      20.345   0.661  51.956  1.00  0.00     0.245 C 
HETATM   24  O1  UNL     1      20.578   1.748  52.562  1.00  0.00    -0.268 OA
HETATM   25  H6  UNL     1      21.193  -1.268  51.786  1.00  0.00     0.169 HD
BRANCH  23  26
HETATM   26  C3  UNL     1      19.230   0.409  51.066  1.00  0.00     0.070 C 
HETATM   27  C2  UNL     1      18.156  -0.278  51.383  1.00  0.00    -0.026 C 
HETATM   28  C1  UNL     1      17.810  -0.944  52.661  1.00  0.00     0.036 C 
ENDBRANCH  23  26
ENDBRANCH  19  22
ENDBRANCH   1  19
TORSDOF 5
ENDMDL
MODEL 6
REMARK VINA RESULT:      -8.3      2.772      4.254
REMARK  5 active torsions:
REMARK  status: ('A' for Active; 'I' for Inactive)
REMARK    1  A    between atoms: C3_3  and  C4_4 
REMARK       I    between atoms: C4_4  and  N1_6 
REMARK    2  A    between atoms: N1_6  and  C5_7 
REMARK    3  A    between atoms: C5_7  and  C8_10 
REMARK    4  A    between atoms: C14_18  and  N4_19 
REMARK    5  A    between atoms: N4_19  and  C15_20 
ROOT
HETATM    1  C8  UNL     1      23.179   3.022  52.319  1.00  0.00     0.040 C 
HETATM    2  C9  UNL     1      23.632   1.872  52.840  1.00  0.00    -0.008 A 
HETATM    3  C10 UNL     1      25.067   1.543  52.926  1.00  0.00     0.189 A 
HETATM    4  N2  UNL     1      25.213   0.199  53.423  1.00  0.00    -0.295 NA
HETATM    5  C11 UNL     1      24.249  -0.560  53.775  1.00  0.00     0.135 A 
HETATM    6  C12 UNL     1      22.834  -0.232  53.737  1.00  0.00     0.088 A 
HETATM    7  C13 UNL     1      21.891  -1.206  54.182  1.00  0.00     0.103 C 
HETATM    8  N3  UNL     1      21.143  -2.005  54.533  1.00  0.00    -0.191 NA
HETATM    9  C14 UNL     1      22.544   0.966  53.282  1.00  0.00     0.063 A 
ENDROOT
BRANCH   9  10
HETATM   10  N4  UNL     1      21.171   1.368  53.242  1.00  0.00    -0.354 N 
HETATM   11  H15 UNL     1      20.812   1.859  54.075  1.00  0.00     0.166 HD
BRANCH  10  12
HETATM   12  C15 UNL     1      20.311   1.118  52.117  1.00  0.00     0.033 A 
HETATM   13  C16 UNL     1      20.414   1.426  50.775  1.00  0.00     0.029 A 
HETATM   14  C17 UNL     1      19.444   1.037  49.911  1.00  0.00     0.004 A 
HETATM   15  C18 UNL     1      18.328   0.330  50.310  1.00  0.00     0.019 A 
HETATM   16  C19 UNL     1      18.206   0.015  51.636  1.00  0.00     0.013 A 
HETATM   17 BR1  UNL     1      16.646  -0.962  52.118  1.00  0.00    -0.051 Br
HETATM   18  C20 UNL     1      19.182   0.400  52.541  1.00  0.00     0.048 A 
ENDBRANCH  10  12
ENDBRANCH   9  10
BRANCH   1  19
HETATM   19  C5  UNL     1      23.960   4.117  51.768  1.00  0.00     0.031 C 
HETATM   20  C6  UNL     1      23.493   5.352  51.726  1.00  0.00    -0.002 C 
HETATM   21  C7  UNL     1      24.110   6.586  51.214  1.00  0.00     0.038 C 
BRANCH  19  22
HETATM   22  N1  UNL     1      25.234   4.331  51.173  1.00  0.00    -0.324 N 
HETATM   23  C4  UNL     1      25.586   3.753  49.909  1.00  0.00     0.245 C 
HETATM   24  O1  UNL     1      24.640   3.046  49.451  1.00  0.00    -0.268 OA
HETATM   25  H6  UNL     1      25.997   4.932  51.615  1.00  0.00     0.169 HD
BRANCH  23  26
HETATM   26  C3  UNL     1      26.868   3.971  49.270  1.00  0.00     0.070 C 
HETATM   27  C2  UNL     1      27.234   5.086  48.681  1.00  0.00    -0.026 C 
HETATM   28  C1  UNL     1      26.482   6.352  48.515  1.00  0.00     0.036 C 
ENDBRANCH  23  26
ENDBRANCH  19  22
ENDBRANCH   1  19
TORSDOF 5
ENDMDL
MODEL 7
REMARK VINA RESULT:      -8.3      3.093      5.138
REMARK  5 active torsions:
REMARK  status: ('A' for Active; 'I' for Inactive)
REMARK    1  A    between atoms: C3_3  and  C4_4 
REMARK       I    between atoms: C4_4  and  N1_6 
REMARK    2  A    between atoms: N1_6  and  C5_7 
REMARK    3  A    between atoms: C5_7  and  C8_10 
REMARK    4  A    between atoms: C14_18  and  N4_19 
REMARK    5  A    between atoms: N4_19  and  C15_20 
ROOT
HETATM    1  C8  UNL     1      24.724   3.584  50.573  1.00  0.00     0.040 C 
HETATM    2  C9  UNL     1      23.720   2.799  50.152  1.00  0.00    -0.008 A 
HETATM    3  C10 UNL     1      23.240   2.795  48.757  1.00  0.00     0.189 A 
HETATM    4  N2  UNL     1      22.088   1.937  48.658  1.00  0.00    -0.295 NA
HETATM    5  C11 UNL     1      21.597   1.258  49.620  1.00  0.00     0.135 A 
HETATM    6  C12 UNL     1      22.087   1.218  50.987  1.00  0.00     0.088 A 
HETATM    7  C13 UNL     1      21.416   0.388  51.934  1.00  0.00     0.103 C 
HETATM    8  N3  UNL     1      20.858  -0.277  52.688  1.00  0.00    -0.191 NA
HETATM    9  C14 UNL     1      23.132   1.975  51.235  1.00  0.00     0.063 A 
ENDROOT
BRANCH   9  10
HETATM   10  N4  UNL     1      23.686   1.965  52.554  1.00  0.00    -0.354 N 
HETATM   11  H15 UNL     1      23.260   2.612  53.236  1.00  0.00     0.166 HD
BRANCH  10  12
HETATM   12  C15 UNL     1      24.775   1.111  52.944  1.00  0.00     0.033 A 
HETATM   13  C16 UNL     1      24.875  -0.254  53.123  1.00  0.00     0.029 A 
HETATM   14  C17 UNL     1      26.060  -0.810  53.476  1.00  0.00     0.004 A 
HETATM   15  C18 UNL     1      27.205  -0.066  53.671  1.00  0.00     0.019 A 
HETATM   16  C19 UNL     1      27.129   1.289  53.498  1.00  0.00     0.013 A 
HETATM   17 BR1  UNL     1      28.744   2.256  53.780  1.00  0.00    -0.051 Br
HETATM   18  C20 UNL     1      25.930   1.885  53.139  1.00  0.00     0.048 A 
ENDBRANCH  10  12
ENDBRANCH   9  10
BRANCH   1  19
HETATM   19  C5  UNL     1      25.500   4.531  49.792  1.00  0.00     0.031 C 
HETATM   20  C6  UNL     1      26.717   4.246  49.361  1.00  0.00    -0.002 C 
HETATM   21  C7  UNL     1      27.659   5.052  48.570  1.00  0.00     0.038 C 
BRANCH  19  22
HETATM   22  N1  UNL     1      25.371   5.846  49.266  1.00  0.00    -0.324 N 
HETATM   23  C4  UNL     1      24.954   6.950  50.080  1.00  0.00     0.245 C 
HETATM   24  O1  UNL     1      24.714   6.576  51.266  1.00  0.00    -0.268 OA
HETATM   25  H6  UNL     1      25.581   6.098  48.250  1.00  0.00     0.169 HD
BRANCH  23  26
HETATM   26  C3  UNL     1      24.834   8.303  49.576  1.00  0.00     0.070 C 
HETATM   27  C2  UNL     1      25.784   9.209  49.622  1.00  0.00    -0.026 C 
HETATM   28  C1  UNL     1      27.158   9.104  50.169  1.00  0.00     0.036 C 
ENDBRANCH  23  26
ENDBRANCH  19  22
ENDBRANCH   1  19
TORSDOF 5
ENDMDL
MODEL 8
REMARK VINA RESULT:      -8.2      3.541      5.378
REMARK  5 active torsions:
REMARK  status: ('A' for Active; 'I' for Inactive)
REMARK    1  A    between atoms: C3_3  and  C4_4 
REMARK       I    between atoms: C4_4  and  N1_6 
REMARK    2  A    between atoms: N1_6  and  C5_7 
REMARK    3  A    between atoms: C5_7  and  C8_10 
REMARK    4  A    between atoms: C14_18  and  N4_19 
REMARK    5  A    between atoms: N4_19  and  C15_20 
ROOT
HETATM    1  C8  UNL     1      23.234   1.791  51.126  1.00  0.00     0.040 C 
HETATM    2  C9  UNL     1      22.333   1.383  52.032  1.00  0.00    -0.008 A 
HETATM    3  C10 UNL     1      20.978   1.958  52.125  1.00  0.00     0.189 A 
HETATM    4  N2  UNL     1      20.303   1.392  53.265  1.00  0.00    -0.295 NA
HETATM    5  C11 UNL     1      20.792   0.502  54.037  1.00  0.00     0.135 A 
HETATM    6  C12 UNL     1      22.109  -0.104  53.931  1.00  0.00     0.088 A 
HETATM    7  C13 UNL     1      22.486  -1.098  54.882  1.00  0.00     0.103 C 
HETATM    8  N3  UNL     1      22.781  -1.889  55.663  1.00  0.00    -0.191 NA
HETATM    9  C14 UNL     1      22.853   0.332  52.940  1.00  0.00     0.063 A 
ENDROOT
BRANCH   9  10
HETATM   10  N4  UNL     1      24.152  -0.239  52.757  1.00  0.00    -0.354 N 
HETATM   11  H15 UNL     1      24.185  -1.175  52.325  1.00  0.00     0.166 HD
BRANCH  10  12
HETATM   12  C15 UNL     1      25.366   0.429  53.141  1.00  0.00     0.033 A 
HETATM   13  C16 UNL     1      25.636   1.721  53.544  1.00  0.00     0.029 A 
HETATM   14  C17 UNL     1      26.899   2.081  53.879  1.00  0.00     0.004 A 
HETATM   15  C18 UNL     1      27.961   1.201  53.840  1.00  0.00     0.019 A 
HETATM   16  C19 UNL     1      27.717  -0.085  53.443  1.00  0.00     0.013 A 
HETATM   17 BR1  UNL     1      29.224  -1.247  53.413  1.00  0.00    -0.051 Br
HETATM   18  C20 UNL     1      26.435  -0.481  53.094  1.00  0.00     0.048 A 
ENDBRANCH  10  12
ENDBRANCH   9  10
BRANCH   1  19
HETATM   19  C5  UNL     1      23.074   2.816  50.109  1.00  0.00     0.031 C 
HETATM   20  C6  UNL     1      24.068   3.613  49.762  1.00  0.00    -0.002 C 
HETATM   21  C7  UNL     1      24.114   4.701  48.773  1.00  0.00     0.038 C 
BRANCH  19  22
HETATM   22  N1  UNL     1      22.062   3.318  49.245  1.00  0.00    -0.324 N 
HETATM   23  C4  UNL     1      21.380   2.474  48.307  1.00  0.00     0.245 C 
HETATM   24  O1  UNL     1      21.818   1.288  48.359  1.00  0.00    -0.268 OA
HETATM   25  H6  UNL     1      21.742   4.336  49.242  1.00  0.00     0.169 HD
BRANCH  23  26
HETATM   26  C3  UNL     1      20.332   2.954  47.429  1.00  0.00     0.070 C 
HETATM   27  C2  UNL     1      20.532   3.584  46.294  1.00  0.00    -0.026 C 
HETATM   28  C1  UNL     1      21.808   3.955  45.638  1.00  0.00     0.036 C 
ENDBRANCH  23  26
ENDBRANCH  19  22
ENDBRANCH   1  19
TORSDOF 5
ENDMDL
MODEL 9
REMARK VINA RESULT:      -8.1      3.137      7.800
REMARK  5 active torsions:
REMARK  status: ('A' for Active; 'I' for Inactive)
REMARK    1  A    between atoms: C3_3  and  C4_4 
REMARK       I    between atoms: C4_4  and  N1_6 
REMARK    2  A    between atoms: N1_6  and  C5_7 
REMARK    3  A    between atoms: C5_7  and  C8_10 
REMARK    4  A    between atoms: C14_18  and  N4_19 
REMARK    5  A    between atoms: N4_19  and  C15_20 
ROOT
HETATM    1  C8  UNL     1      24.690   3.227  52.726  1.00  0.00     0.040 C 
HETATM    2  C9  UNL     1      23.401   3.443  52.427  1.00  0.00    -0.008 A 
HETATM    3  C10 UNL     1      22.360   2.411  52.584  1.00  0.00     0.189 A 
HETATM    4  N2  UNL     1      21.113   2.917  52.071  1.00  0.00    -0.295 NA
HETATM    5  C11 UNL     1      20.938   4.090  51.601  1.00  0.00     0.135 A 
HETATM    6  C12 UNL     1      21.944   5.131  51.480  1.00  0.00     0.088 A 
HETATM    7  C13 UNL     1      21.564   6.394  50.937  1.00  0.00     0.103 C 
HETATM    8  N3  UNL     1      21.246   7.403  50.487  1.00  0.00    -0.191 NA
HETATM    9  C14 UNL     1      23.147   4.804  51.894  1.00  0.00     0.063 A 
ENDROOT
BRANCH   9  10
HETATM   10  N4  UNL     1      24.183   5.789  51.832  1.00  0.00    -0.354 N 
HETATM   11  H15 UNL     1      24.296   6.390  52.663  1.00  0.00     0.166 HD
BRANCH  10  12
HETATM   12  C15 UNL     1      25.040   5.958  50.690  1.00  0.00     0.033 A 
HETATM   13  C16 UNL     1      25.570   5.067  49.778  1.00  0.00     0.029 A 
HETATM   14  C17 UNL     1      26.344   5.514  48.759  1.00  0.00     0.004 A 
HETATM   15  C18 UNL     1      26.641   6.849  48.577  1.00  0.00     0.019 A 
HETATM   16  C19 UNL     1      26.126   7.750  49.469  1.00  0.00     0.013 A 
HETATM   17 BR1  UNL     1      26.571   9.574  49.159  1.00  0.00    -0.051 Br
HETATM   18  C20 UNL     1      25.332   7.321  50.521  1.00  0.00     0.048 A 
ENDBRANCH  10  12
ENDBRANCH   9  10
BRANCH   1  19
HETATM   19  C5  UNL     1      25.292   2.008  53.239  1.00  0.00     0.031 C 
HETATM   20  C6  UNL     1      24.709   0.831  53.098  1.00  0.00    -0.002 C 
HETATM   21  C7  UNL     1      25.141  -0.504  53.538  1.00  0.00     0.038 C 
BRANCH  19  22
HETATM   22  N1  UNL     1      26.460   1.603  53.942  1.00  0.00    -0.324 N 
HETATM   23  C4  UNL     1      27.773   1.770  53.388  1.00  0.00     0.245 C 
HETATM   24  O1  UNL     1      27.718   2.285  52.233  1.00  0.00    -0.268 OA
HETATM   25  H6  UNL     1      26.441   1.164  54.915  1.00  0.00     0.169 HD
BRANCH  23  26
HETATM   26  C3  UNL     1      28.981   1.386  54.090  1.00  0.00     0.070 C 
HETATM   27  C2  UNL     1      29.508   0.184  54.075  1.00  0.00    -0.026 C 
HETATM   28  C1  UNL     1      29.041  -1.039  53.380  1.00  0.00     0.036 C 
ENDBRANCH  23  26
ENDBRANCH  19  22
ENDBRANCH   1  19
TORSDOF 5
ENDMDL
