MODEL 1
REMARK VINA RESULT:      -8.4      0.000      0.000
REMARK  3 active torsions:
REMARK  status: ('A' for Active; 'I' for Inactive)
REMARK    1  A    between atoms: C5_7  and  N3_8 
REMARK    2  A    between atoms: N3_8  and  C6_9 
REMARK    3  A    between atoms: C16_24  and  N6_25 
ROOT
HETATM    1  C1  UNL     1      23.240   7.228  49.923  1.00  0.00     0.038 C 
HETATM    2  C2  UNL     1      23.658   5.801  49.750  1.00  0.00    -0.002 C 
HETATM    3  C3  UNL     1      22.918   4.742  49.348  1.00  0.00     0.056 C 
HETATM    4  N1  UNL     1      23.669   3.520  49.300  1.00  0.00    -0.245 NA
HETATM    5  C4  UNL     1      24.573   3.123  50.077  1.00  0.00     0.235 C 
HETATM    6  N2  UNL     1      25.518   2.972  51.096  1.00  0.00    -0.227 NA
HETATM    7  C5  UNL     1      25.271   2.796  52.346  1.00  0.00     0.133 C 
HETATM    8  C12 UNL     1      23.963   2.743  53.046  1.00  0.00     0.339 C 
HETATM    9  N4  UNL     1      22.942   2.316  52.072  1.00  0.00     0.047 N 
HETATM   10  C13 UNL     1      23.061   0.906  51.833  1.00  0.00     0.298 C 
HETATM   11  C14 UNL     1      21.909   2.640  51.175  1.00  0.00     0.283 A 
HETATM   12  S1  UNL     1      21.995   4.003  52.115  1.00  0.00     0.146 SA
HETATM   13  N5  UNL     1      20.873   2.910  50.271  1.00  0.00    -0.360 N 
HETATM   14  C15 UNL     1      20.526   4.293  49.941  1.00  0.00     0.153 C 
HETATM   15  C16 UNL     1      21.519   4.889  48.979  1.00  0.00     0.148 C 
HETATM   16  H15 UNL     1      20.974   1.886  50.377  1.00  0.00     0.161 HD
ENDROOT
BRANCH   7  17
HETATM   17  N3  UNL     1      26.412   2.678  53.157  1.00  0.00    -0.343 N 
HETATM   18  H6  UNL     1      26.675   3.541  53.721  1.00  0.00     0.167 HD
BRANCH  17  19
HETATM   19  C6  UNL     1      27.142   1.467  53.191  1.00  0.00     0.035 A 
HETATM   20  C7  UNL     1      28.413   1.735  53.695  1.00  0.00     0.032 A 
HETATM   21  C8  UNL     1      29.344   0.703  53.847  1.00  0.00     0.046 A 
HETATM   22  C9  UNL     1      28.997  -0.580  53.496  1.00  0.00     0.138 A 
HETATM   23  F1  UNL     1      29.844  -1.626  53.618  1.00  0.00    -0.204 F 
HETATM   24  C10 UNL     1      27.727  -0.832  52.995  1.00  0.00     0.074 A 
HETATM   25 CL1  UNL     1      27.161  -2.406  52.517  1.00  0.00    -0.081 Cl
HETATM   26  C11 UNL     1      26.814   0.173  52.845  1.00  0.00     0.056 A 
ENDBRANCH  17  19
ENDBRANCH   7  17
BRANCH  15  27
HETATM   27  N6  UNL     1      21.162   4.506  47.644  1.00  0.00    -0.401 N 
HETATM   28  C17 UNL     1      22.013   5.054  46.625  1.00  0.00     0.117 C 
HETATM   29  C18 UNL     1      21.871   4.259  45.320  1.00  0.00     0.019 C 
HETATM   30  C19 UNL     1      20.426   4.356  44.862  1.00  0.00     0.003 C 
HETATM   31  C20 UNL     1      19.535   4.970  45.897  1.00  0.00     0.019 C 
HETATM   32  C21 UNL     1      19.779   4.523  47.308  1.00  0.00     0.117 C 
ENDBRANCH  15  27
TORSDOF 3
ENDMDL
MODEL 2
REMARK VINA RESULT:      -8.3      3.791      6.496
REMARK  3 active torsions:
REMARK  status: ('A' for Active; 'I' for Inactive)
REMARK    1  A    between atoms: C5_7  and  N3_8 
REMARK    2  A    between atoms: N3_8  and  C6_9 
REMARK    3  A    between atoms: C16_24  and  N6_25 
ROOT
HETATM    1  C1  UNL     1      23.227   6.436  47.290  1.00  0.00     0.038 C 
HETATM    2  C2  UNL     1      23.358   6.347  48.778  1.00  0.00    -0.002 C 
HETATM    3  C3  UNL     1      24.474   6.180  49.526  1.00  0.00     0.056 C 
HETATM    4  N1  UNL     1      24.205   6.144  50.935  1.00  0.00    -0.245 NA
HETATM    5  C4  UNL     1      23.225   5.635  51.534  1.00  0.00     0.235 C 
HETATM    6  N2  UNL     1      22.039   4.987  51.890  1.00  0.00    -0.227 NA
HETATM    7  C5  UNL     1      21.797   3.727  51.790  1.00  0.00     0.133 C 
HETATM    8  C12 UNL     1      22.660   2.646  51.253  1.00  0.00     0.339 C 
HETATM    9  N4  UNL     1      24.065   3.073  51.392  1.00  0.00     0.047 N 
HETATM   10  C13 UNL     1      24.475   2.949  52.761  1.00  0.00     0.298 C 
HETATM   11  C14 UNL     1      25.226   3.628  50.827  1.00  0.00     0.283 A 
HETATM   12  S1  UNL     1      24.368   3.173  49.483  1.00  0.00     0.146 SA
HETATM   13  N5  UNL     1      26.409   4.174  50.311  1.00  0.00    -0.360 N 
HETATM   14  C15 UNL     1      26.435   4.729  48.957  1.00  0.00     0.153 C 
HETATM   15  C16 UNL     1      25.790   6.089  48.913  1.00  0.00     0.148 C 
HETATM   16  H15 UNL     1      26.582   3.836  51.274  1.00  0.00     0.161 HD
ENDROOT
BRANCH   7  17
HETATM   17  N3  UNL     1      20.516   3.341  52.219  1.00  0.00    -0.343 N 
HETATM   18  H6  UNL     1      19.771   4.100  52.205  1.00  0.00     0.167 HD
BRANCH  17  19
HETATM   19  C6  UNL     1      20.273   2.012  52.638  1.00  0.00     0.035 A 
HETATM   20  C7  UNL     1      19.144   1.541  51.970  1.00  0.00     0.032 A 
HETATM   21  C8  UNL     1      18.685   0.239  52.192  1.00  0.00     0.046 A 
HETATM   22  C9  UNL     1      19.356  -0.575  53.073  1.00  0.00     0.138 A 
HETATM   23  F1  UNL     1      18.972  -1.843  53.334  1.00  0.00    -0.204 F 
HETATM   24  C10 UNL     1      20.479  -0.092  53.731  1.00  0.00     0.074 A 
HETATM   25 CL1  UNL     1      21.418  -1.017  54.866  1.00  0.00    -0.081 Cl
HETATM   26  C11 UNL     1      20.932   1.179  53.518  1.00  0.00     0.056 A 
ENDBRANCH  17  19
ENDBRANCH   7  17
BRANCH  15  27
HETATM   27  N6  UNL     1      26.754   7.074  49.310  1.00  0.00    -0.401 N 
HETATM   28  C17 UNL     1      26.199   8.376  49.557  1.00  0.00     0.117 C 
HETATM   29  C18 UNL     1      27.165   9.222  50.398  1.00  0.00     0.019 C 
HETATM   30  C19 UNL     1      28.460   9.375  49.619  1.00  0.00     0.003 C 
HETATM   31  C20 UNL     1      28.512   8.492  48.411  1.00  0.00     0.019 C 
HETATM   32  C21 UNL     1      27.989   7.100  48.604  1.00  0.00     0.117 C 
ENDBRANCH  15  27
TORSDOF 3
ENDMDL
MODEL 3
REMARK VINA RESULT:      -8.2      2.020      2.581
REMARK  3 active torsions:
REMARK  status: ('A' for Active; 'I' for Inactive)
REMARK    1  A    between atoms: C5_7  and  N3_8 
REMARK    2  A    between atoms: N3_8  and  C6_9 
REMARK    3  A    between atoms: C16_24  and  N6_25 
ROOT
HETATM    1  C1  UNL     1      26.140   5.819  49.246  1.00  0.00     0.038 C 
HETATM    2  C2  UNL     1      25.020   4.826  49.240  1.00  0.00    -0.002 C 
HETATM    3  C3  UNL     1      23.686   5.050  49.194  1.00  0.00     0.056 C 
HETATM    4  N1  UNL     1      22.913   3.841  49.204  1.00  0.00    -0.245 NA
HETATM    5  C4  UNL     1      23.133   2.774  49.829  1.00  0.00     0.235 C 
HETATM    6  N2  UNL     1      23.646   1.754  50.636  1.00  0.00    -0.227 NA
HETATM    7  C5  UNL     1      23.702   1.753  51.921  1.00  0.00     0.133 C 
HETATM    8  C12 UNL     1      23.290   2.809  52.880  1.00  0.00     0.339 C 
HETATM    9  N4  UNL     1      22.251   3.631  52.232  1.00  0.00     0.047 N 
HETATM   10  C13 UNL     1      21.006   2.918  52.224  1.00  0.00     0.298 C 
HETATM   11  C14 UNL     1      21.884   4.793  51.531  1.00  0.00     0.283 A 
HETATM   12  S1  UNL     1      23.348   5.225  52.180  1.00  0.00     0.146 SA
HETATM   13  N5  UNL     1      21.467   5.934  50.833  1.00  0.00    -0.360 N 
HETATM   14  C15 UNL     1      22.453   6.902  50.347  1.00  0.00     0.153 C 
HETATM   15  C16 UNL     1      23.145   6.398  49.109  1.00  0.00     0.148 C 
HETATM   16  H15 UNL     1      20.638   5.372  51.093  1.00  0.00     0.161 HD
ENDROOT
BRANCH   7  17
HETATM   17  N3  UNL     1      24.273   0.597  52.481  1.00  0.00    -0.343 N 
HETATM   18  H6  UNL     1      23.608  -0.214  52.655  1.00  0.00     0.167 HD
BRANCH  17  19
HETATM   19  C6  UNL     1      25.654   0.558  52.783  1.00  0.00     0.035 A 
HETATM   20  C7  UNL     1      26.079  -0.768  52.716  1.00  0.00     0.032 A 
HETATM   21  C8  UNL     1      27.417  -1.093  52.961  1.00  0.00     0.046 A 
HETATM   22  C9  UNL     1      28.312  -0.095  53.268  1.00  0.00     0.138 A 
HETATM   23  F1  UNL     1      29.618  -0.335  53.514  1.00  0.00    -0.204 F 
HETATM   24  C10 UNL     1      27.874   1.220  53.332  1.00  0.00     0.074 A 
HETATM   25 CL1  UNL     1      28.900   2.574  53.706  1.00  0.00    -0.081 Cl
HETATM   26  C11 UNL     1      26.568   1.544  53.093  1.00  0.00     0.056 A 
ENDBRANCH  17  19
ENDBRANCH   7  17
BRANCH  15  27
HETATM   27  N6  UNL     1      22.328   6.692  47.967  1.00  0.00    -0.401 N 
HETATM   28  C17 UNL     1      22.956   6.415  46.705  1.00  0.00     0.117 C 
HETATM   29  C18 UNL     1      21.905   6.308  45.592  1.00  0.00     0.019 C 
HETATM   30  C19 UNL     1      21.177   7.639  45.501  1.00  0.00     0.003 C 
HETATM   31  C20 UNL     1      21.512   8.556  46.636  1.00  0.00     0.019 C 
HETATM   32  C21 UNL     1      21.593   7.911  47.988  1.00  0.00     0.117 C 
ENDBRANCH  15  27
TORSDOF 3
ENDMDL
MODEL 4
REMARK VINA RESULT:      -8.1      3.912      7.045
REMARK  3 active torsions:
REMARK  status: ('A' for Active; 'I' for Inactive)
REMARK    1  A    between atoms: C5_7  and  N3_8 
REMARK    2  A    between atoms: N3_8  and  C6_9 
REMARK    3  A    between atoms: C16_24  and  N6_25 
ROOT
HETATM    1  C1  UNL     1      26.350   1.816  51.244  1.00  0.00     0.038 C 
HETATM    2  C2  UNL     1      25.347   2.796  51.767  1.00  0.00    -0.002 C 
HETATM    3  C3  UNL     1      24.024   2.621  51.992  1.00  0.00     0.056 C 
HETATM    4  N1  UNL     1      23.381   3.798  52.502  1.00  0.00    -0.245 NA
HETATM    5  C4  UNL     1      23.596   5.000  52.208  1.00  0.00     0.235 C 
HETATM    6  N2  UNL     1      24.064   6.205  51.675  1.00  0.00    -0.227 NA
HETATM    7  C5  UNL     1      23.905   6.617  50.467  1.00  0.00     0.133 C 
HETATM    8  C12 UNL     1      23.240   5.943  49.324  1.00  0.00     0.339 C 
HETATM    9  N4  UNL     1      22.248   4.997  49.869  1.00  0.00     0.047 N 
HETATM   10  C13 UNL     1      21.096   5.717  50.331  1.00  0.00     0.298 C 
HETATM   11  C14 UNL     1      21.893   3.686  50.232  1.00  0.00     0.283 A 
HETATM   12  S1  UNL     1      23.180   3.430  49.218  1.00  0.00     0.146 SA
HETATM   13  N5  UNL     1      21.489   2.398  50.608  1.00  0.00    -0.360 N 
HETATM   14  C15 UNL     1      22.444   1.288  50.576  1.00  0.00     0.153 C 
HETATM   15  C16 UNL     1      23.377   1.339  51.756  1.00  0.00     0.148 C 
HETATM   16  H15 UNL     1      20.687   3.045  50.696  1.00  0.00     0.161 HD
ENDROOT
BRANCH   7  17
HETATM   17  N3  UNL     1      24.484   7.869  50.195  1.00  0.00    -0.343 N 
HETATM   18  H6  UNL     1      23.862   8.715  50.359  1.00  0.00     0.167 HD
BRANCH  17  19
HETATM   19  C6  UNL     1      25.817   7.953  49.730  1.00  0.00     0.035 A 
HETATM   20  C7  UNL     1      26.331   9.195  50.095  1.00  0.00     0.032 A 
HETATM   21  C8  UNL     1      27.646   9.539  49.767  1.00  0.00     0.046 A 
HETATM   22  C9  UNL     1      28.430   8.642  49.081  1.00  0.00     0.138 A 
HETATM   23  F1  UNL     1      29.709   8.905  48.734  1.00  0.00    -0.204 F 
HETATM   24  C10 UNL     1      27.904   7.408  48.723  1.00  0.00     0.074 A 
HETATM   25 CL1  UNL     1      28.788   6.184  47.859  1.00  0.00    -0.081 Cl
HETATM   26  C11 UNL     1      26.620   7.067  49.041  1.00  0.00     0.056 A 
ENDBRANCH  17  19
ENDBRANCH   7  17
BRANCH  15  27
HETATM   27  N6  UNL     1      22.737   0.725  52.883  1.00  0.00    -0.401 N 
HETATM   28  C17 UNL     1      23.244  -0.578  53.212  1.00  0.00     0.117 C 
HETATM   29  C18 UNL     1      22.860  -0.957  54.649  1.00  0.00     0.019 C 
HETATM   30  C19 UNL     1      21.344  -0.979  54.743  1.00  0.00     0.003 C 
HETATM   31  C20 UNL     1      20.685  -0.410  53.525  1.00  0.00     0.019 C 
HETATM   32  C21 UNL     1      21.319   0.827  52.962  1.00  0.00     0.117 C 
ENDBRANCH  15  27
TORSDOF 3
ENDMDL
MODEL 5
REMARK VINA RESULT:      -8.0      4.368      6.906
REMARK  3 active torsions:
REMARK  status: ('A' for Active; 'I' for Inactive)
REMARK    1  A    between atoms: C5_7  and  N3_8 
REMARK    2  A    between atoms: N3_8  and  C6_9 
REMARK    3  A    between atoms: C16_24  and  N6_25 
ROOT
HETATM    1  C1  UNL     1      22.263   2.202  47.805  1.00  0.00     0.038 C 
HETATM    2  C2  UNL     1      23.220   2.915  48.709  1.00  0.00    -0.002 C 
HETATM    3  C3  UNL     1      23.043   3.314  49.990  1.00  0.00     0.056 C 
HETATM    4  N1  UNL     1      24.195   3.973  50.537  1.00  0.00    -0.245 NA
HETATM    5  C4  UNL     1      24.997   4.754  49.967  1.00  0.00     0.235 C 
HETATM    6  N2  UNL     1      25.690   5.570  49.068  1.00  0.00    -0.227 NA
HETATM    7  C5  UNL     1      25.271   6.676  48.562  1.00  0.00     0.133 C 
HETATM    8  C12 UNL     1      23.966   7.359  48.748  1.00  0.00     0.339 C 
HETATM    9  N4  UNL     1      23.416   6.941  50.051  1.00  0.00     0.047 N 
HETATM   10  C13 UNL     1      24.111   7.617  51.109  1.00  0.00     0.298 C 
HETATM   11  C14 UNL     1      22.552   6.120  50.797  1.00  0.00     0.283 A 
HETATM   12  S1  UNL     1      21.910   6.007  49.271  1.00  0.00     0.146 SA
HETATM   13  N5  UNL     1      21.707   5.328  51.585  1.00  0.00    -0.360 N 
HETATM   14  C15 UNL     1      20.936   4.242  50.977  1.00  0.00     0.153 C 
HETATM   15  C16 UNL     1      21.805   3.044  50.705  1.00  0.00     0.148 C 
HETATM   16  H15 UNL     1      22.166   6.036  52.184  1.00  0.00     0.161 HD
ENDROOT
BRANCH   7  17
HETATM   17  N3  UNL     1      26.172   7.294  47.678  1.00  0.00    -0.343 N 
HETATM   18  H6  UNL     1      25.834   7.417  46.678  1.00  0.00     0.167 HD
BRANCH  17  19
HETATM   19  C6  UNL     1      27.445   7.710  48.132  1.00  0.00     0.035 A 
HETATM   20  C7  UNL     1      27.285   8.876  48.879  1.00  0.00     0.032 A 
HETATM   21  C8  UNL     1      28.393   9.499  49.461  1.00  0.00     0.046 A 
HETATM   22  C9  UNL     1      29.644   8.953  49.292  1.00  0.00     0.138 A 
HETATM   23  F1  UNL     1      30.757   9.499  49.828  1.00  0.00    -0.204 F 
HETATM   24  C10 UNL     1      29.788   7.792  48.547  1.00  0.00     0.074 A 
HETATM   25 CL1  UNL     1      31.310   6.999  48.260  1.00  0.00    -0.081 Cl
HETATM   26  C11 UNL     1      28.709   7.178  47.976  1.00  0.00     0.056 A 
ENDBRANCH  17  19
ENDBRANCH   7  17
BRANCH  15  27
HETATM   27  N6  UNL     1      21.912   2.265  51.904  1.00  0.00    -0.401 N 
HETATM   28  C17 UNL     1      22.664   1.050  51.754  1.00  0.00     0.117 C 
HETATM   29  C18 UNL     1      23.121   0.527  53.123  1.00  0.00     0.019 C 
HETATM   30  C19 UNL     1      21.883   0.242  53.956  1.00  0.00     0.003 C 
HETATM   31  C20 UNL     1      20.631   0.760  53.321  1.00  0.00     0.019 C 
HETATM   32  C21 UNL     1      20.736   2.118  52.693  1.00  0.00     0.117 C 
ENDBRANCH  15  27
TORSDOF 3
ENDMDL
MODEL 6
REMARK VINA RESULT:      -8.0      3.397      4.510
REMARK  3 active torsions:
REMARK  status: ('A' for Active; 'I' for Inactive)
REMARK    1  A    between atoms: C5_7  and  N3_8 
REMARK    2  A    between atoms: N3_8  and  C6_9 
REMARK    3  A    between atoms: C16_24  and  N6_25 
ROOT
HETATM    1  C1  UNL     1      26.418   4.929  49.339  1.00  0.00     0.038 C 
HETATM    2  C2  UNL     1      24.973   4.617  49.102  1.00  0.00    -0.002 C 
HETATM    3  C3  UNL     1      23.908   5.452  49.128  1.00  0.00     0.056 C 
HETATM    4  N1  UNL     1      22.667   4.787  48.849  1.00  0.00    -0.245 NA
HETATM    5  C4  UNL     1      22.299   3.636  49.189  1.00  0.00     0.235 C 
HETATM    6  N2  UNL     1      22.192   2.345  49.714  1.00  0.00    -0.227 NA
HETATM    7  C5  UNL     1      22.103   2.032  50.959  1.00  0.00     0.133 C 
HETATM    8  C12 UNL     1      22.127   2.913  52.152  1.00  0.00     0.339 C 
HETATM    9  N4  UNL     1      21.662   4.251  51.740  1.00  0.00     0.047 N 
HETATM   10  C13 UNL     1      20.238   4.237  51.570  1.00  0.00     0.298 C 
HETATM   11  C14 UNL     1      21.953   5.570  51.350  1.00  0.00     0.283 A 
HETATM   12  S1  UNL     1      23.372   5.098  52.068  1.00  0.00     0.146 SA
HETATM   13  N5  UNL     1      22.190   6.895  50.960  1.00  0.00    -0.360 N 
HETATM   14  C15 UNL     1      23.557   7.358  50.716  1.00  0.00     0.153 C 
HETATM   15  C16 UNL     1      24.065   6.876  49.384  1.00  0.00     0.148 C 
HETATM   16  H15 UNL     1      21.172   6.753  51.083  1.00  0.00     0.161 HD
ENDROOT
BRANCH   7  17
HETATM   17  N3  UNL     1      22.010   0.652  51.210  1.00  0.00    -0.343 N 
HETATM   18  H6  UNL     1      21.570   0.066  50.440  1.00  0.00     0.167 HD
BRANCH  17  19
HETATM   19  C6  UNL     1      22.483   0.115  52.430  1.00  0.00     0.035 A 
HETATM   20  C7  UNL     1      21.408  -0.463  53.102  1.00  0.00     0.032 A 
HETATM   21  C8  UNL     1      21.600  -1.083  54.340  1.00  0.00     0.046 A 
HETATM   22  C9  UNL     1      22.859  -1.119  54.892  1.00  0.00     0.138 A 
HETATM   23  F1  UNL     1      23.118  -1.702  56.082  1.00  0.00    -0.204 F 
HETATM   24  C10 UNL     1      23.920  -0.539  54.212  1.00  0.00     0.074 A 
HETATM   25 CL1  UNL     1      25.559  -0.517  54.796  1.00  0.00    -0.081 Cl
HETATM   26  C11 UNL     1      23.739   0.068  53.001  1.00  0.00     0.056 A 
ENDBRANCH  17  19
ENDBRANCH   7  17
BRANCH  15  27
HETATM   27  N6  UNL     1      23.605   7.767  48.360  1.00  0.00    -0.401 N 
HETATM   28  C17 UNL     1      24.174   7.522  47.064  1.00  0.00     0.117 C 
HETATM   29  C18 UNL     1      23.321   8.175  45.968  1.00  0.00     0.019 C 
HETATM   30  C19 UNL     1      23.295   9.673  46.220  1.00  0.00     0.003 C 
HETATM   31  C20 UNL     1      23.882  10.042  47.547  1.00  0.00     0.019 C 
HETATM   32  C21 UNL     1      23.509   9.149  48.692  1.00  0.00     0.117 C 
ENDBRANCH  15  27
TORSDOF 3
ENDMDL
MODEL 7
REMARK VINA RESULT:      -7.9      2.274      3.666
REMARK  3 active torsions:
REMARK  status: ('A' for Active; 'I' for Inactive)
REMARK    1  A    between atoms: C5_7  and  N3_8 
REMARK    2  A    between atoms: N3_8  and  C6_9 
REMARK    3  A    between atoms: C16_24  and  N6_25 
ROOT
HETATM    1  C1  UNL     1      19.055   3.831  50.998  1.00  0.00     0.038 C 
HETATM    2  C2  UNL     1      20.403   4.266  51.483  1.00  0.00    -0.002 C 
HETATM    3  C3  UNL     1      21.263   5.149  50.925  1.00  0.00     0.056 C 
HETATM    4  N1  UNL     1      22.470   5.313  51.684  1.00  0.00    -0.245 NA
HETATM    5  C4  UNL     1      23.120   4.448  52.322  1.00  0.00     0.235 C 
HETATM    6  N2  UNL     1      23.603   3.281  52.919  1.00  0.00    -0.227 NA
HETATM    7  C5  UNL     1      24.099   2.261  52.311  1.00  0.00     0.133 C 
HETATM    8  C12 UNL     1      24.261   2.023  50.855  1.00  0.00     0.339 C 
HETATM    9  N4  UNL     1      24.340   3.335  50.186  1.00  0.00     0.047 N 
HETATM   10  C13 UNL     1      25.635   3.912  50.405  1.00  0.00     0.298 C 
HETATM   11  C14 UNL     1      23.718   4.368  49.463  1.00  0.00     0.283 A 
HETATM   12  S1  UNL     1      22.674   3.101  49.229  1.00  0.00     0.146 SA
HETATM   13  N5  UNL     1      23.146   5.424  48.742  1.00  0.00    -0.360 N 
HETATM   14  C15 UNL     1      21.707   5.440  48.476  1.00  0.00     0.153 C 
HETATM   15  C16 UNL     1      20.933   5.858  49.698  1.00  0.00     0.148 C 
HETATM   16  H15 UNL     1      24.165   5.584  48.830  1.00  0.00     0.161 HD
ENDROOT
BRANCH   7  17
HETATM   17  N3  UNL     1      24.506   1.216  53.158  1.00  0.00    -0.343 N 
HETATM   18  H6  UNL     1      23.729   0.696  53.664  1.00  0.00     0.167 HD
BRANCH  17  19
HETATM   19  C6  UNL     1      25.879   0.908  53.303  1.00  0.00     0.035 A 
HETATM   20  C7  UNL     1      26.075  -0.416  52.913  1.00  0.00     0.032 A 
HETATM   21  C8  UNL     1      27.354  -0.979  52.947  1.00  0.00     0.046 A 
HETATM   22  C9  UNL     1      28.420  -0.218  53.367  1.00  0.00     0.138 A 
HETATM   23  F1  UNL     1      29.682  -0.696  53.423  1.00  0.00    -0.204 F 
HETATM   24  C10 UNL     1      28.209   1.098  53.753  1.00  0.00     0.074 A 
HETATM   25 CL1  UNL     1      29.467   2.168  54.301  1.00  0.00    -0.081 Cl
HETATM   26  C11 UNL     1      26.961   1.654  53.722  1.00  0.00     0.056 A 
ENDBRANCH  17  19
ENDBRANCH   7  17
BRANCH  15  27
HETATM   27  N6  UNL     1      20.913   7.290  49.769  1.00  0.00    -0.401 N 
HETATM   28  C17 UNL     1      19.643   7.879  49.445  1.00  0.00     0.117 C 
HETATM   29  C18 UNL     1      19.565   9.317  49.978  1.00  0.00     0.019 C 
HETATM   30  C19 UNL     1      20.668  10.126  49.318  1.00  0.00     0.003 C 
HETATM   31  C20 UNL     1      21.628   9.270  48.552  1.00  0.00     0.019 C 
HETATM   32  C21 UNL     1      22.026   7.986  49.218  1.00  0.00     0.117 C 
ENDBRANCH  15  27
TORSDOF 3
ENDMDL
MODEL 8
REMARK VINA RESULT:      -7.9      7.830      9.118
REMARK  3 active torsions:
REMARK  status: ('A' for Active; 'I' for Inactive)
REMARK    1  A    between atoms: C5_7  and  N3_8 
REMARK    2  A    between atoms: N3_8  and  C6_9 
REMARK    3  A    between atoms: C16_24  and  N6_25 
ROOT
HETATM    1  C1  UNL     1      26.822   9.286  45.342  1.00  0.00     0.038 C 
HETATM    2  C2  UNL     1      27.661   8.343  46.148  1.00  0.00    -0.002 C 
HETATM    3  C3  UNL     1      27.652   8.126  47.484  1.00  0.00     0.056 C 
HETATM    4  N1  UNL     1      28.606   7.137  47.897  1.00  0.00    -0.245 NA
HETATM    5  C4  UNL     1      29.761   6.925  47.451  1.00  0.00     0.235 C 
HETATM    6  N2  UNL     1      30.971   6.947  46.753  1.00  0.00    -0.227 NA
HETATM    7  C5  UNL     1      31.869   7.867  46.809  1.00  0.00     0.133 C 
HETATM    8  C12 UNL     1      31.862   9.140  47.572  1.00  0.00     0.339 C 
HETATM    9  N4  UNL     1      30.972   8.968  48.735  1.00  0.00     0.047 N 
HETATM   10  C13 UNL     1      31.631   8.178  49.735  1.00  0.00     0.298 C 
HETATM   11  C14 UNL     1      29.717   9.152  49.341  1.00  0.00     0.283 A 
HETATM   12  S1  UNL     1      29.676  10.263  48.110  1.00  0.00     0.146 SA
HETATM   13  N5  UNL     1      28.486   9.312  49.990  1.00  0.00    -0.360 N 
HETATM   14  C15 UNL     1      27.337   9.858  49.266  1.00  0.00     0.153 C 
HETATM   15  C16 UNL     1      26.724   8.824  48.360  1.00  0.00     0.148 C 
HETATM   16  H15 UNL     1      29.172   8.916  50.655  1.00  0.00     0.161 HD
ENDROOT
BRANCH   7  17
HETATM   17  N3  UNL     1      32.993   7.638  45.997  1.00  0.00    -0.343 N 
HETATM   18  H6  UNL     1      33.329   8.467  45.421  1.00  0.00     0.167 HD
BRANCH  17  19
HETATM   19  C6  UNL     1      33.610   6.366  45.974  1.00  0.00     0.035 A 
HETATM   20  C7  UNL     1      33.885   6.036  44.648  1.00  0.00     0.032 A 
HETATM   21  C8  UNL     1      34.511   4.825  44.338  1.00  0.00     0.046 A 
HETATM   22  C9  UNL     1      34.855   3.960  45.350  1.00  0.00     0.138 A 
HETATM   23  F1  UNL     1      35.463   2.775  45.124  1.00  0.00    -0.204 F 
HETATM   24  C10 UNL     1      34.574   4.302  46.666  1.00  0.00     0.074 A 
HETATM   25 CL1  UNL     1      34.957   3.302  48.037  1.00  0.00    -0.081 Cl
HETATM   26  C11 UNL     1      33.963   5.484  46.975  1.00  0.00     0.056 A 
ENDBRANCH  17  19
ENDBRANCH   7  17
BRANCH  15  27
HETATM   27  N6  UNL     1      25.825   8.009  49.124  1.00  0.00    -0.401 N 
HETATM   28  C17 UNL     1      25.091   7.050  48.347  1.00  0.00     0.117 C 
HETATM   29  C18 UNL     1      24.527   5.943  49.248  1.00  0.00     0.019 C 
HETATM   30  C19 UNL     1      23.589   6.586  50.255  1.00  0.00     0.003 C 
HETATM   31  C20 UNL     1      23.665   8.081  50.238  1.00  0.00     0.019 C 
HETATM   32  C21 UNL     1      25.044   8.659  50.121  1.00  0.00     0.117 C 
ENDBRANCH  15  27
TORSDOF 3
ENDMDL
MODEL 9
REMARK VINA RESULT:      -7.7      4.813      9.059
REMARK  3 active torsions:
REMARK  status: ('A' for Active; 'I' for Inactive)
REMARK    1  A    between atoms: C5_7  and  N3_8 
REMARK    2  A    between atoms: N3_8  and  C6_9 
REMARK    3  A    between atoms: C16_24  and  N6_25 
ROOT
HETATM    1  C1  UNL     1      21.207   0.406  54.210  1.00  0.00     0.038 C 
HETATM    2  C2  UNL     1      21.598   0.528  52.770  1.00  0.00    -0.002 C 
HETATM    3  C3  UNL     1      22.696   1.110  52.234  1.00  0.00     0.056 C 
HETATM    4  N1  UNL     1      22.730   1.030  50.802  1.00  0.00    -0.245 NA
HETATM    5  C4  UNL     1      21.777   1.115  49.988  1.00  0.00     0.235 C 
HETATM    6  N2  UNL     1      20.535   1.249  49.361  1.00  0.00    -0.227 NA
HETATM    7  C5  UNL     1      19.820   2.318  49.306  1.00  0.00     0.133 C 
HETATM    8  C12 UNL     1      20.078   3.652  49.901  1.00  0.00     0.339 C 
HETATM    9  N4  UNL     1      21.536   3.803  50.065  1.00  0.00     0.047 N 
HETATM   10  C13 UNL     1      22.141   4.067  48.791  1.00  0.00     0.298 C 
HETATM   11  C14 UNL     1      22.678   3.745  50.883  1.00  0.00     0.283 A 
HETATM   12  S1  UNL     1      21.454   3.841  51.998  1.00  0.00     0.146 SA
HETATM   13  N5  UNL     1      23.846   3.705  51.656  1.00  0.00    -0.360 N 
HETATM   14  C15 UNL     1      23.800   3.212  53.034  1.00  0.00     0.153 C 
HETATM   15  C16 UNL     1      23.724   1.709  53.072  1.00  0.00     0.148 C 
HETATM   16  H15 UNL     1      24.071   4.077  50.717  1.00  0.00     0.161 HD
ENDROOT
BRANCH   7  17
HETATM   17  N3  UNL     1      18.605   2.173  48.613  1.00  0.00    -0.343 N 
HETATM   18  H6  UNL     1      18.681   2.044  47.561  1.00  0.00     0.167 HD
BRANCH  17  19
HETATM   19  C6  UNL     1      17.376   2.205  49.313  1.00  0.00     0.035 A 
HETATM   20  C7  UNL     1      17.131   0.933  49.826  1.00  0.00     0.032 A 
HETATM   21  C8  UNL     1      15.978   0.685  50.577  1.00  0.00     0.046 A 
HETATM   22  C9  UNL     1      15.087   1.707  50.808  1.00  0.00     0.138 A 
HETATM   23  F1  UNL     1      13.955   1.541  51.527  1.00  0.00    -0.204 F 
HETATM   24  C10 UNL     1      15.344   2.969  50.291  1.00  0.00     0.074 A 
HETATM   25 CL1  UNL     1      14.303   4.345  50.511  1.00  0.00    -0.081 Cl
HETATM   26  C11 UNL     1      16.469   3.216  49.556  1.00  0.00     0.056 A 
ENDBRANCH  17  19
ENDBRANCH   7  17
BRANCH  15  27
HETATM   27  N6  UNL     1      25.047   1.173  52.949  1.00  0.00    -0.401 N 
HETATM   28  C17 UNL     1      25.119  -0.257  53.068  1.00  0.00     0.117 C 
HETATM   29  C18 UNL     1      26.435  -0.783  52.480  1.00  0.00     0.019 C 
HETATM   30  C19 UNL     1      27.582  -0.164  53.261  1.00  0.00     0.003 C 
HETATM   31  C20 UNL     1      27.127   0.924  54.184  1.00  0.00     0.019 C 
HETATM   32  C21 UNL     1      26.095   1.858  53.626  1.00  0.00     0.117 C 
ENDBRANCH  15  27
TORSDOF 3
ENDMDL
