MODEL 1
REMARK VINA RESULT:      -8.3      0.000      0.000
REMARK  5 active torsions:
REMARK  status: ('A' for Active; 'I' for Inactive)
REMARK    1  A    between atoms: O1_1  and  C1_2 
REMARK    2  A    between atoms: C1_2  and  C2_3 
REMARK    3  A    between atoms: C2_3  and  N1_4 
REMARK    4  A    between atoms: C2_3  and  C11_17 
REMARK    5  A    between atoms: N1_4  and  C3_5 
ROOT
HETATM    1  C3  UNL     1      24.334   1.446  51.885  1.00  0.00     0.139 A 
HETATM    2  N2  UNL     1      24.496   2.409  50.975  1.00  0.00    -0.224 NA
HETATM    3  C4  UNL     1      23.598   3.252  50.520  1.00  0.00     0.236 A 
HETATM    4  N3  UNL     1      22.388   3.099  51.057  1.00  0.00    -0.234 NA
HETATM    5  C5  UNL     1      22.195   2.139  51.974  1.00  0.00     0.115 A 
HETATM    6  S1  UNL     1      20.636   1.741  52.850  1.00  0.00    -0.051 SA
HETATM    7  C6  UNL     1      21.400   0.381  53.809  1.00  0.00     0.079 A 
HETATM    8  C7  UNL     1      22.716   0.340  53.405  1.00  0.00    -0.006 A 
HETATM    9  C8  UNL     1      23.103   1.251  52.464  1.00  0.00     0.055 A 
HETATM   10  C9  UNL     1      23.180  -0.792  54.240  1.00  0.00     0.062 C 
HETATM   11  C10 UNL     1      21.899  -1.601  54.486  1.00  0.00     0.125 C 
HETATM   12  N4  UNL     1      20.972  -0.532  54.780  1.00  0.00    -0.384 N 
HETATM   13  H11 UNL     1      20.205  -0.413  55.477  1.00  0.00     0.160 HD
ENDROOT
BRANCH   1  14
HETATM   14  N1  UNL     1      25.515   0.745  52.153  1.00  0.00    -0.363 N 
HETATM   15  H5  UNL     1      25.791   0.003  51.482  1.00  0.00     0.162 HD
BRANCH  14  16
HETATM   16  C2  UNL     1      26.401   0.950  53.294  1.00  0.00     0.140 C 
BRANCH  16  17
HETATM   17  C1  UNL     1      26.968   2.324  53.374  1.00  0.00     0.194 C 
BRANCH  17  18
HETATM   18  O1  UNL     1      27.475   2.680  52.117  1.00  0.00    -0.399 OA
HETATM   19  H1  UNL     1      26.880   3.295  51.659  1.00  0.00     0.209 HD
ENDBRANCH  17  18
ENDBRANCH  16  17
BRANCH  16  20
HETATM   20  C11 UNL     1      27.422  -0.126  53.296  1.00  0.00    -0.034 A 
HETATM   21  C12 UNL     1      26.852  -1.286  52.792  1.00  0.00     0.009 A 
HETATM   22  C13 UNL     1      27.583  -2.475  52.670  1.00  0.00     0.001 A 
HETATM   23  C14 UNL     1      28.906  -2.511  53.057  1.00  0.00     0.000 A 
HETATM   24  C15 UNL     1      29.452  -1.349  53.555  1.00  0.00     0.001 A 
HETATM   25  C16 UNL     1      28.744  -0.175  53.680  1.00  0.00     0.009 A 
ENDBRANCH  16  20
ENDBRANCH  14  16
ENDBRANCH   1  14
TORSDOF 5
ENDMDL
MODEL 2
REMARK VINA RESULT:      -7.8      1.669      3.369
REMARK  5 active torsions:
REMARK  status: ('A' for Active; 'I' for Inactive)
REMARK    1  A    between atoms: O1_1  and  C1_2 
REMARK    2  A    between atoms: C1_2  and  C2_3 
REMARK    3  A    between atoms: C2_3  and  N1_4 
REMARK    4  A    between atoms: C2_3  and  C11_17 
REMARK    5  A    between atoms: N1_4  and  C3_5 
ROOT
HETATM    1  C3  UNL     1      23.667  -0.334  53.449  1.00  0.00     0.139 A 
HETATM    2  N2  UNL     1      23.983  -0.947  54.592  1.00  0.00    -0.224 NA
HETATM    3  C4  UNL     1      23.172  -1.468  55.482  1.00  0.00     0.236 A 
HETATM    4  N3  UNL     1      21.881  -1.353  55.173  1.00  0.00    -0.234 NA
HETATM    5  C5  UNL     1      21.532  -0.742  54.031  1.00  0.00     0.115 A 
HETATM    6  S1  UNL     1      19.836  -0.470  53.394  1.00  0.00    -0.051 SA
HETATM    7  C6  UNL     1      20.429   0.381  51.884  1.00  0.00     0.079 A 
HETATM    8  C7  UNL     1      21.802   0.390  51.981  1.00  0.00    -0.006 A 
HETATM    9  C8  UNL     1      22.348  -0.192  53.091  1.00  0.00     0.055 A 
HETATM   10  C9  UNL     1      22.120   1.107  50.725  1.00  0.00     0.062 C 
HETATM   11  C10 UNL     1      20.857   1.940  50.463  1.00  0.00     0.125 C 
HETATM   12  N4  UNL     1      19.836   0.960  50.755  1.00  0.00    -0.384 N 
HETATM   13  H11 UNL     1      18.927   0.710  50.311  1.00  0.00     0.160 HD
ENDROOT
BRANCH   1  14
HETATM   14  N1  UNL     1      24.789   0.082  52.723  1.00  0.00    -0.363 N 
HETATM   15  H5  UNL     1      24.875  -0.255  51.745  1.00  0.00     0.162 HD
BRANCH  14  16
HETATM   16  C2  UNL     1      25.863   0.940  53.210  1.00  0.00     0.140 C 
BRANCH  16  17
HETATM   17  C1  UNL     1      25.981   2.229  52.474  1.00  0.00     0.194 C 
BRANCH  17  18
HETATM   18  O1  UNL     1      25.244   3.209  53.151  1.00  0.00    -0.399 OA
HETATM   19  H1  UNL     1      25.813   3.740  53.730  1.00  0.00     0.209 HD
ENDBRANCH  17  18
ENDBRANCH  16  17
BRANCH  16  20
HETATM   20  C11 UNL     1      27.117   0.150  53.249  1.00  0.00    -0.034 A 
HETATM   21  C12 UNL     1      28.150   0.966  53.686  1.00  0.00     0.009 A 
HETATM   22  C13 UNL     1      29.460   0.490  53.826  1.00  0.00     0.001 A 
HETATM   23  C14 UNL     1      29.748  -0.825  53.526  1.00  0.00     0.000 A 
HETATM   24  C15 UNL     1      28.710  -1.618  53.095  1.00  0.00     0.001 A 
HETATM   25  C16 UNL     1      27.418  -1.162  52.953  1.00  0.00     0.009 A 
ENDBRANCH  16  20
ENDBRANCH  14  16
ENDBRANCH   1  14
TORSDOF 5
ENDMDL
MODEL 3
REMARK VINA RESULT:      -7.5      1.153      1.707
REMARK  5 active torsions:
REMARK  status: ('A' for Active; 'I' for Inactive)
REMARK    1  A    between atoms: O1_1  and  C1_2 
REMARK    2  A    between atoms: C1_2  and  C2_3 
REMARK    3  A    between atoms: C2_3  and  N1_4 
REMARK    4  A    between atoms: C2_3  and  C11_17 
REMARK    5  A    between atoms: N1_4  and  C3_5 
ROOT
HETATM    1  C3  UNL     1      23.633   1.738  51.370  1.00  0.00     0.139 A 
HETATM    2  N2  UNL     1      23.509   2.641  50.395  1.00  0.00    -0.224 NA
HETATM    3  C4  UNL     1      22.436   3.310  50.043  1.00  0.00     0.236 A 
HETATM    4  N3  UNL     1      21.357   3.027  50.772  1.00  0.00    -0.234 NA
HETATM    5  C5  UNL     1      21.450   2.122  51.758  1.00  0.00     0.115 A 
HETATM    6  S1  UNL     1      20.117   1.574  52.888  1.00  0.00    -0.051 SA
HETATM    7  C6  UNL     1      21.214   0.414  53.786  1.00  0.00     0.079 A 
HETATM    8  C7  UNL     1      22.446   0.531  53.183  1.00  0.00    -0.006 A 
HETATM    9  C8  UNL     1      22.546   1.413  52.145  1.00  0.00     0.055 A 
HETATM   10  C9  UNL     1      23.197  -0.456  53.993  1.00  0.00     0.062 C 
HETATM   11  C10 UNL     1      22.105  -1.418  54.481  1.00  0.00     0.125 C 
HETATM   12  N4  UNL     1      21.079  -0.474  54.860  1.00  0.00    -0.384 N 
HETATM   13  H11 UNL     1      20.415  -0.413  55.662  1.00  0.00     0.160 HD
ENDROOT
BRANCH   1  14
HETATM   14  N1  UNL     1      24.934   1.236  51.486  1.00  0.00    -0.363 N 
HETATM   15  H5  UNL     1      25.081   0.235  51.250  1.00  0.00     0.162 HD
BRANCH  14  16
HETATM   16  C2  UNL     1      26.113   1.981  51.914  1.00  0.00     0.140 C 
BRANCH  16  17
HETATM   17  C1  UNL     1      26.709   2.827  50.844  1.00  0.00     0.194 C 
BRANCH  17  18
HETATM   18  O1  UNL     1      26.106   4.092  50.876  1.00  0.00    -0.399 OA
HETATM   19  H1  UNL     1      25.704   4.268  51.741  1.00  0.00     0.209 HD
ENDBRANCH  17  18
ENDBRANCH  16  17
BRANCH  16  20
HETATM   20  C11 UNL     1      27.068   1.032  52.537  1.00  0.00    -0.034 A 
HETATM   21  C12 UNL     1      28.052   1.754  53.197  1.00  0.00     0.009 A 
HETATM   22  C13 UNL     1      29.096   1.122  53.885  1.00  0.00     0.001 A 
HETATM   23  C14 UNL     1      29.161  -0.255  53.918  1.00  0.00     0.000 A 
HETATM   24  C15 UNL     1      28.176  -0.952  53.258  1.00  0.00     0.001 A 
HETATM   25  C16 UNL     1      27.145  -0.343  52.577  1.00  0.00     0.009 A 
ENDBRANCH  16  20
ENDBRANCH  14  16
ENDBRANCH   1  14
TORSDOF 5
ENDMDL
MODEL 4
REMARK VINA RESULT:      -7.4      2.435      4.722
REMARK  5 active torsions:
REMARK  status: ('A' for Active; 'I' for Inactive)
REMARK    1  A    between atoms: O1_1  and  C1_2 
REMARK    2  A    between atoms: C1_2  and  C2_3 
REMARK    3  A    between atoms: C2_3  and  N1_4 
REMARK    4  A    between atoms: C2_3  and  C11_17 
REMARK    5  A    between atoms: N1_4  and  C3_5 
ROOT
HETATM    1  C3  UNL     1      23.977  -0.238  53.380  1.00  0.00     0.139 A 
HETATM    2  N2  UNL     1      24.423  -0.797  54.507  1.00  0.00    -0.224 NA
HETATM    3  C4  UNL     1      23.721  -1.327  55.481  1.00  0.00     0.236 A 
HETATM    4  N3  UNL     1      22.403  -1.287  55.284  1.00  0.00    -0.234 NA
HETATM    5  C5  UNL     1      21.925  -0.732  54.161  1.00  0.00     0.115 A 
HETATM    6  S1  UNL     1      20.168  -0.564  53.669  1.00  0.00    -0.051 SA
HETATM    7  C6  UNL     1      20.582   0.265  52.089  1.00  0.00     0.079 A 
HETATM    8  C7  UNL     1      21.956   0.344  52.064  1.00  0.00    -0.006 A 
HETATM    9  C8  UNL     1      22.626  -0.173  53.136  1.00  0.00     0.055 A 
HETATM   10  C9  UNL     1      22.125   1.035  50.765  1.00  0.00     0.062 C 
HETATM   11  C10 UNL     1      20.803   1.795  50.592  1.00  0.00     0.125 C 
HETATM   12  N4  UNL     1      19.864   0.776  51.001  1.00  0.00    -0.384 N 
HETATM   13  H11 UNL     1      18.933   0.467  50.647  1.00  0.00     0.160 HD
ENDROOT
BRANCH   1  14
HETATM   14  N1  UNL     1      25.009   0.208  52.546  1.00  0.00    -0.363 N 
HETATM   15  H5  UNL     1      25.250  -0.385  51.729  1.00  0.00     0.162 HD
BRANCH  14  16
HETATM   16  C2  UNL     1      25.790   1.428  52.717  1.00  0.00     0.140 C 
BRANCH  16  17
HETATM   17  C1  UNL     1      26.388   1.572  54.073  1.00  0.00     0.194 C 
BRANCH  17  18
HETATM   18  O1  UNL     1      27.278   2.654  54.065  1.00  0.00    -0.399 OA
HETATM   19  H1  UNL     1      27.419   3.000  54.960  1.00  0.00     0.209 HD
ENDBRANCH  17  18
ENDBRANCH  16  17
BRANCH  16  20
HETATM   20  C11 UNL     1      24.958   2.582  52.298  1.00  0.00    -0.034 A 
HETATM   21  C12 UNL     1      25.217   2.861  50.964  1.00  0.00     0.009 A 
HETATM   22  C13 UNL     1      24.571   3.905  50.289  1.00  0.00     0.001 A 
HETATM   23  C14 UNL     1      23.649   4.686  50.954  1.00  0.00     0.000 A 
HETATM   24  C15 UNL     1      23.406   4.392  52.277  1.00  0.00     0.001 A 
HETATM   25  C16 UNL     1      24.035   3.369  52.951  1.00  0.00     0.009 A 
ENDBRANCH  16  20
ENDBRANCH  14  16
ENDBRANCH   1  14
TORSDOF 5
ENDMDL
MODEL 5
REMARK VINA RESULT:      -7.4      2.579      5.136
REMARK  5 active torsions:
REMARK  status: ('A' for Active; 'I' for Inactive)
REMARK    1  A    between atoms: O1_1  and  C1_2 
REMARK    2  A    between atoms: C1_2  and  C2_3 
REMARK    3  A    between atoms: C2_3  and  N1_4 
REMARK    4  A    between atoms: C2_3  and  C11_17 
REMARK    5  A    between atoms: N1_4  and  C3_5 
ROOT
HETATM    1  C3  UNL     1      22.709   2.025  51.898  1.00  0.00     0.139 A 
HETATM    2  N2  UNL     1      21.405   2.310  51.922  1.00  0.00    -0.224 NA
HETATM    3  C4  UNL     1      20.461   1.724  52.619  1.00  0.00     0.236 A 
HETATM    4  N3  UNL     1      20.894   0.726  53.389  1.00  0.00    -0.234 NA
HETATM    5  C5  UNL     1      22.199   0.416  53.386  1.00  0.00     0.115 A 
HETATM    6  S1  UNL     1      23.026  -0.901  54.355  1.00  0.00    -0.051 SA
HETATM    7  C6  UNL     1      24.681  -0.505  53.675  1.00  0.00     0.079 A 
HETATM    8  C7  UNL     1      24.481   0.545  52.808  1.00  0.00    -0.006 A 
HETATM    9  C8  UNL     1      23.200   1.003  52.675  1.00  0.00     0.055 A 
HETATM   10  C9  UNL     1      25.874   0.731  52.342  1.00  0.00     0.062 C 
HETATM   11  C10 UNL     1      26.501  -0.656  52.537  1.00  0.00     0.125 C 
HETATM   12  N4  UNL     1      25.982  -0.993  53.843  1.00  0.00    -0.384 N 
HETATM   13  H11 UNL     1      26.390  -1.452  54.686  1.00  0.00     0.160 HD
ENDROOT
BRANCH   1  14
HETATM   14  N1  UNL     1      23.438   2.871  51.055  1.00  0.00    -0.363 N 
HETATM   15  H5  UNL     1      23.497   2.608  50.052  1.00  0.00     0.162 HD
BRANCH  14  16
HETATM   16  C2  UNL     1      24.135   4.091  51.447  1.00  0.00     0.140 C 
BRANCH  16  17
HETATM   17  C1  UNL     1      23.234   5.259  51.645  1.00  0.00     0.194 C 
BRANCH  17  18
HETATM   18  O1  UNL     1      22.924   5.369  53.007  1.00  0.00    -0.399 OA
HETATM   19  H1  UNL     1      22.559   4.539  53.353  1.00  0.00     0.209 HD
ENDBRANCH  17  18
ENDBRANCH  16  17
BRANCH  16  20
HETATM   20  C11 UNL     1      25.236   4.334  50.483  1.00  0.00    -0.034 A 
HETATM   21  C12 UNL     1      25.159   5.644  50.035  1.00  0.00     0.009 A 
HETATM   22  C13 UNL     1      26.077   6.164  49.112  1.00  0.00     0.001 A 
HETATM   23  C14 UNL     1      27.091   5.365  48.628  1.00  0.00     0.000 A 
HETATM   24  C15 UNL     1      27.150   4.069  49.087  1.00  0.00     0.001 A 
HETATM   25  C16 UNL     1      26.254   3.546  49.992  1.00  0.00     0.009 A 
ENDBRANCH  16  20
ENDBRANCH  14  16
ENDBRANCH   1  14
TORSDOF 5
ENDMDL
MODEL 6
REMARK VINA RESULT:      -7.4      0.936      3.112
REMARK  5 active torsions:
REMARK  status: ('A' for Active; 'I' for Inactive)
REMARK    1  A    between atoms: O1_1  and  C1_2 
REMARK    2  A    between atoms: C1_2  and  C2_3 
REMARK    3  A    between atoms: C2_3  and  N1_4 
REMARK    4  A    between atoms: C2_3  and  C11_17 
REMARK    5  A    between atoms: N1_4  and  C3_5 
ROOT
HETATM    1  C3  UNL     1      23.877   0.178  53.181  1.00  0.00     0.139 A 
HETATM    2  N2  UNL     1      23.658  -0.714  54.150  1.00  0.00    -0.224 NA
HETATM    3  C4  UNL     1      22.532  -0.975  54.771  1.00  0.00     0.236 A 
HETATM    4  N3  UNL     1      21.500  -0.239  54.357  1.00  0.00    -0.234 NA
HETATM    5  C5  UNL     1      21.689   0.666  53.385  1.00  0.00     0.115 A 
HETATM    6  S1  UNL     1      20.435   1.782  52.652  1.00  0.00    -0.051 SA
HETATM    7  C6  UNL     1      21.637   2.545  51.500  1.00  0.00     0.079 A 
HETATM    8  C7  UNL     1      22.838   1.921  51.753  1.00  0.00    -0.006 A 
HETATM    9  C8  UNL     1      22.842   0.959  52.724  1.00  0.00     0.055 A 
HETATM   10  C9  UNL     1      23.686   2.642  50.777  1.00  0.00     0.062 C 
HETATM   11  C10 UNL     1      22.962   3.983  50.601  1.00  0.00     0.125 C 
HETATM   12  N4  UNL     1      21.594   3.528  50.504  1.00  0.00    -0.384 N 
HETATM   13  H11 UNL     1      20.783   3.800  49.908  1.00  0.00     0.160 HD
ENDROOT
BRANCH   1  14
HETATM   14  N1  UNL     1      25.200   0.176  52.726  1.00  0.00    -0.363 N 
HETATM   15  H5  UNL     1      25.396  -0.322  51.837  1.00  0.00     0.162 HD
BRANCH  14  16
HETATM   16  C2  UNL     1      26.341   0.801  53.385  1.00  0.00     0.140 C 
BRANCH  16  17
HETATM   17  C1  UNL     1      26.684   2.145  52.843  1.00  0.00     0.194 C 
BRANCH  17  18
HETATM   18  O1  UNL     1      27.111   2.004  51.516  1.00  0.00    -0.399 OA
HETATM   19  H1  UNL     1      26.400   2.220  50.893  1.00  0.00     0.209 HD
ENDBRANCH  17  18
ENDBRANCH  16  17
BRANCH  16  20
HETATM   20  C11 UNL     1      27.472  -0.159  53.379  1.00  0.00    -0.034 A 
HETATM   21  C12 UNL     1      27.028  -1.372  52.872  1.00  0.00     0.009 A 
HETATM   22  C13 UNL     1      27.882  -2.475  52.744  1.00  0.00     0.001 A 
HETATM   23  C14 UNL     1      29.203  -2.369  53.126  1.00  0.00     0.000 A 
HETATM   24  C15 UNL     1      29.623  -1.158  53.626  1.00  0.00     0.001 A 
HETATM   25  C16 UNL     1      28.793  -0.066  53.758  1.00  0.00     0.009 A 
ENDBRANCH  16  20
ENDBRANCH  14  16
ENDBRANCH   1  14
TORSDOF 5
ENDMDL
MODEL 7
REMARK VINA RESULT:      -7.3      2.230      5.193
REMARK  5 active torsions:
REMARK  status: ('A' for Active; 'I' for Inactive)
REMARK    1  A    between atoms: O1_1  and  C1_2 
REMARK    2  A    between atoms: C1_2  and  C2_3 
REMARK    3  A    between atoms: C2_3  and  N1_4 
REMARK    4  A    between atoms: C2_3  and  C11_17 
REMARK    5  A    between atoms: N1_4  and  C3_5 
ROOT
HETATM    1  C3  UNL     1      24.819   0.552  52.762  1.00  0.00     0.139 A 
HETATM    2  N2  UNL     1      26.121   0.669  53.030  1.00  0.00    -0.224 NA
HETATM    3  C4  UNL     1      26.786   0.173  54.047  1.00  0.00     0.236 A 
HETATM    4  N3  UNL     1      26.036  -0.529  54.896  1.00  0.00    -0.234 NA
HETATM    5  C5  UNL     1      24.723  -0.664  54.653  1.00  0.00     0.115 A 
HETATM    6  S1  UNL     1      23.498  -1.577  55.663  1.00  0.00    -0.051 SA
HETATM    7  C6  UNL     1      22.112  -1.171  54.537  1.00  0.00     0.079 A 
HETATM    8  C7  UNL     1      22.665  -0.409  53.532  1.00  0.00    -0.006 A 
HETATM    9  C8  UNL     1      24.007  -0.161  53.611  1.00  0.00     0.055 A 
HETATM   10  C9  UNL     1      21.445  -0.155  52.733  1.00  0.00     0.062 C 
HETATM   11  C10 UNL     1      20.314  -0.273  53.765  1.00  0.00     0.125 C 
HETATM   12  N4  UNL     1      20.742  -1.452  54.483  1.00  0.00    -0.384 N 
HETATM   13  H11 UNL     1      20.244  -2.284  54.867  1.00  0.00     0.160 HD
ENDROOT
BRANCH   1  14
HETATM   14  N1  UNL     1      24.447   1.191  51.574  1.00  0.00    -0.363 N 
HETATM   15  H5  UNL     1      24.281   0.591  50.743  1.00  0.00     0.162 HD
BRANCH  14  16
HETATM   16  C2  UNL     1      24.275   2.626  51.382  1.00  0.00     0.140 C 
BRANCH  16  17
HETATM   17  C1  UNL     1      23.692   3.323  52.562  1.00  0.00     0.194 C 
BRANCH  17  18
HETATM   18  O1  UNL     1      24.719   3.620  53.468  1.00  0.00    -0.399 OA
HETATM   19  H1  UNL     1      25.020   4.537  53.369  1.00  0.00     0.209 HD
ENDBRANCH  17  18
ENDBRANCH  16  17
BRANCH  16  20
HETATM   20  C11 UNL     1      23.526   2.847  50.121  1.00  0.00    -0.034 A 
HETATM   21  C12 UNL     1      22.660   1.782  49.921  1.00  0.00     0.009 A 
HETATM   22  C13 UNL     1      21.815   1.716  48.805  1.00  0.00     0.001 A 
HETATM   23  C14 UNL     1      21.834   2.729  47.869  1.00  0.00     0.000 A 
HETATM   24  C15 UNL     1      22.701   3.776  48.086  1.00  0.00     0.001 A 
HETATM   25  C16 UNL     1      23.535   3.852  49.179  1.00  0.00     0.009 A 
ENDBRANCH  16  20
ENDBRANCH  14  16
ENDBRANCH   1  14
TORSDOF 5
ENDMDL
MODEL 8
REMARK VINA RESULT:      -7.2      2.495      4.470
REMARK  5 active torsions:
REMARK  status: ('A' for Active; 'I' for Inactive)
REMARK    1  A    between atoms: O1_1  and  C1_2 
REMARK    2  A    between atoms: C1_2  and  C2_3 
REMARK    3  A    between atoms: C2_3  and  N1_4 
REMARK    4  A    between atoms: C2_3  and  C11_17 
REMARK    5  A    between atoms: N1_4  and  C3_5 
ROOT
HETATM    1  C3  UNL     1      21.622   0.477  52.690  1.00  0.00     0.139 A 
HETATM    2  N2  UNL     1      20.558  -0.128  53.222  1.00  0.00    -0.224 NA
HETATM    3  C4  UNL     1      19.374  -0.306  52.684  1.00  0.00     0.236 A 
HETATM    4  N3  UNL     1      19.258   0.190  51.453  1.00  0.00    -0.234 NA
HETATM    5  C5  UNL     1      20.310   0.803  50.891  1.00  0.00     0.115 A 
HETATM    6  S1  UNL     1      20.393   1.555  49.223  1.00  0.00    -0.051 SA
HETATM    7  C6  UNL     1      22.137   2.074  49.430  1.00  0.00     0.079 A 
HETATM    8  C7  UNL     1      22.499   1.655  50.690  1.00  0.00    -0.006 A 
HETATM    9  C8  UNL     1      21.547   1.005  51.423  1.00  0.00     0.055 A 
HETATM   10  C9  UNL     1      23.894   2.151  50.709  1.00  0.00     0.062 C 
HETATM   11  C10 UNL     1      23.868   3.321  49.716  1.00  0.00     0.125 C 
HETATM   12  N4  UNL     1      23.092   2.735  48.647  1.00  0.00    -0.384 N 
HETATM   13  H11 UNL     1      23.163   2.757  47.607  1.00  0.00     0.160 HD
ENDROOT
BRANCH   1  14
HETATM   14  N1  UNL     1      22.736   0.468  53.537  1.00  0.00    -0.363 N 
HETATM   15  H5  UNL     1      22.974   1.356  54.020  1.00  0.00     0.162 HD
BRANCH  14  16
HETATM   16  C2  UNL     1      23.607  -0.670  53.806  1.00  0.00     0.140 C 
BRANCH  16  17
HETATM   17  C1  UNL     1      23.487  -1.204  55.191  1.00  0.00     0.194 C 
BRANCH  17  18
HETATM   18  O1  UNL     1      22.205  -1.744  55.360  1.00  0.00    -0.399 OA
HETATM   19  H1  UNL     1      21.595  -1.091  55.736  1.00  0.00     0.209 HD
ENDBRANCH  17  18
ENDBRANCH  16  17
BRANCH  16  20
HETATM   20  C11 UNL     1      24.992  -0.305  53.418  1.00  0.00    -0.034 A 
HETATM   21  C12 UNL     1      25.227   1.013  53.782  1.00  0.00     0.009 A 
HETATM   22  C13 UNL     1      26.458   1.637  53.542  1.00  0.00     0.001 A 
HETATM   23  C14 UNL     1      27.475   0.936  52.929  1.00  0.00     0.000 A 
HETATM   24  C15 UNL     1      27.222  -0.370  52.577  1.00  0.00     0.001 A 
HETATM   25  C16 UNL     1      26.016  -0.994  52.806  1.00  0.00     0.009 A 
ENDBRANCH  16  20
ENDBRANCH  14  16
ENDBRANCH   1  14
TORSDOF 5
ENDMDL
MODEL 9
REMARK VINA RESULT:      -7.2      2.585      5.025
REMARK  5 active torsions:
REMARK  status: ('A' for Active; 'I' for Inactive)
REMARK    1  A    between atoms: O1_1  and  C1_2 
REMARK    2  A    between atoms: C1_2  and  C2_3 
REMARK    3  A    between atoms: C2_3  and  N1_4 
REMARK    4  A    between atoms: C2_3  and  C11_17 
REMARK    5  A    between atoms: N1_4  and  C3_5 
ROOT
HETATM    1  C3  UNL     1      25.398   0.858  52.616  1.00  0.00     0.139 A 
HETATM    2  N2  UNL     1      26.703   1.046  52.821  1.00  0.00    -0.224 NA
HETATM    3  C4  UNL     1      27.441   0.593  53.807  1.00  0.00     0.236 A 
HETATM    4  N3  UNL     1      26.771  -0.144  54.693  1.00  0.00    -0.234 NA
HETATM    5  C5  UNL     1      25.458  -0.351  54.514  1.00  0.00     0.115 A 
HETATM    6  S1  UNL     1      24.334  -1.323  55.584  1.00  0.00    -0.051 SA
HETATM    7  C6  UNL     1      22.876  -0.999  54.524  1.00  0.00     0.079 A 
HETATM    8  C7  UNL     1      23.339  -0.215  53.491  1.00  0.00    -0.006 A 
HETATM    9  C8  UNL     1      24.667   0.106  53.505  1.00  0.00     0.055 A 
HETATM   10  C9  UNL     1      22.069  -0.032  52.750  1.00  0.00     0.062 C 
HETATM   11  C10 UNL     1      20.997  -0.205  53.835  1.00  0.00     0.125 C 
HETATM   12  N4  UNL     1      21.522  -1.355  54.536  1.00  0.00    -0.384 N 
HETATM   13  H11 UNL     1      21.088  -2.210  54.945  1.00  0.00     0.160 HD
ENDROOT
BRANCH   1  14
HETATM   14  N1  UNL     1      24.936   1.468  51.445  1.00  0.00    -0.363 N 
HETATM   15  H5  UNL     1      24.953   0.903  50.575  1.00  0.00     0.162 HD
BRANCH  14  16
HETATM   16  C2  UNL     1      24.435   2.833  51.322  1.00  0.00     0.140 C 
BRANCH  16  17
HETATM   17  C1  UNL     1      23.003   2.912  50.922  1.00  0.00     0.194 C 
BRANCH  17  18
HETATM   18  O1  UNL     1      22.788   2.060  49.831  1.00  0.00    -0.399 OA
HETATM   19  H1  UNL     1      22.239   2.486  49.155  1.00  0.00     0.209 HD
ENDBRANCH  17  18
ENDBRANCH  16  17
BRANCH  16  20
HETATM   20  C11 UNL     1      25.353   3.593  50.438  1.00  0.00    -0.034 A 
HETATM   21  C12 UNL     1      24.861   4.880  50.281  1.00  0.00     0.009 A 
HETATM   22  C13 UNL     1      25.523   5.833  49.496  1.00  0.00     0.001 A 
HETATM   23  C14 UNL     1      26.698   5.499  48.856  1.00  0.00     0.000 A 
HETATM   24  C15 UNL     1      27.169   4.217  49.026  1.00  0.00     0.001 A 
HETATM   25  C16 UNL     1      26.527   3.271  49.794  1.00  0.00     0.009 A 
ENDBRANCH  16  20
ENDBRANCH  14  16
ENDBRANCH   1  14
TORSDOF 5
ENDMDL
