MODEL 1
REMARK VINA RESULT:      -7.7      0.000      0.000
REMARK  8 active torsions:
REMARK  status: ('A' for Active; 'I' for Inactive)
REMARK    1  A    between atoms: C3_4  and  C4_5 
REMARK    2  A    between atoms: C4_5  and  N1_6 
REMARK    3  A    between atoms: N1_6  and  C5_7 
REMARK    4  A    between atoms: C10_13  and  N3_14 
REMARK    5  A    between atoms: N3_14  and  O1_16 
REMARK    6  A    between atoms: O1_16  and  C12_17 
REMARK    7  A    between atoms: C12_17  and  S1_18 
REMARK    8  A    between atoms: C17_24  and  N4_25 
ROOT
HETATM    1  C5  UNL     1      26.675   2.413  51.988  1.00  0.00     0.129 A 
HETATM    2  N2  UNL     1      27.898   2.209  52.354  1.00  0.00    -0.268 NA
HETATM    3  C6  UNL     1      27.980   1.061  53.233  1.00  0.00     0.190 A 
HETATM    4  C7  UNL     1      26.564   0.589  53.342  1.00  0.00    -0.024 A 
HETATM    5  C8  UNL     1      25.965  -0.450  54.022  1.00  0.00     0.012 A 
HETATM    6  C9  UNL     1      24.586  -0.659  53.939  1.00  0.00     0.032 A 
HETATM    7  C10 UNL     1      23.800   0.182  53.168  1.00  0.00     0.057 A 
HETATM    8  C18 UNL     1      24.398   1.222  52.489  1.00  0.00     0.047 A 
HETATM    9  C19 UNL     1      25.762   1.427  52.571  1.00  0.00     0.019 A 
ENDROOT
BRANCH   7  10
HETATM   10  N3  UNL     1      22.400  -0.083  53.123  1.00  0.00    -0.262 N 
HETATM   11  C11 UNL     1      21.932  -1.330  53.684  1.00  0.00     0.185 C 
BRANCH  10  12
HETATM   12  O1  UNL     1      21.491   0.742  52.600  1.00  0.00    -0.268 OA
BRANCH  12  13
HETATM   13  C12 UNL     1      21.024   0.352  51.369  1.00  0.00     0.275 C 
BRANCH  13  14
HETATM   14  S1  UNL     1      21.564   1.572  50.145  1.00  0.00    -0.120 SA
HETATM   15  C13 UNL     1      21.726   1.251  48.550  1.00  0.00     0.046 A 
HETATM   16  C14 UNL     1      22.175   2.377  47.741  1.00  0.00     0.049 A 
HETATM   17  C15 UNL     1      22.437   3.564  48.205  1.00  0.00     0.119 A 
HETATM   18  F1  UNL     1      22.849   4.505  47.291  1.00  0.00    -0.206 F 
HETATM   19  C16 UNL     1      22.348   4.022  49.586  1.00  0.00     0.078 A 
HETATM   20  C17 UNL     1      21.971   3.266  50.606  1.00  0.00     0.062 A 
BRANCH  20  21
HETATM   21  N4  UNL     1      21.880   3.698  51.946  1.00  0.00    -0.394 N 
HETATM   22  H20 UNL     1      21.284   3.940  52.772  1.00  0.00     0.156 HD
HETATM   23  H21 UNL     1      22.693   3.939  52.575  1.00  0.00     0.156 HD
ENDBRANCH  20  21
ENDBRANCH  13  14
ENDBRANCH  12  13
ENDBRANCH  10  12
ENDBRANCH   7  10
BRANCH   1  24
HETATM   24  N1  UNL     1      26.336   3.484  51.121  1.00  0.00    -0.371 N 
HETATM   25  H7  UNL     1      26.016   4.388  51.572  1.00  0.00     0.161 HD
BRANCH  24  26
HETATM   26  C4  UNL     1      26.426   3.337  49.663  1.00  0.00     0.149 C 
BRANCH  26  27
HETATM   27  C3  UNL     1      27.253   4.400  49.061  1.00  0.00     0.007 C 
HETATM   28  C2  UNL     1      26.849   5.605  48.680  1.00  0.00    -0.018 C 
HETATM   29  C1  UNL     1      25.471   6.101  48.794  1.00  0.00     0.056 C 
HETATM   30 BR1  UNL     1      28.106   6.818  47.921  1.00  0.00    -0.056 Br
ENDBRANCH  26  27
ENDBRANCH  24  26
ENDBRANCH   1  24
TORSDOF 8
ENDMDL
MODEL 2
REMARK VINA RESULT:      -7.7      2.928      5.742
REMARK  8 active torsions:
REMARK  status: ('A' for Active; 'I' for Inactive)
REMARK    1  A    between atoms: C3_4  and  C4_5 
REMARK    2  A    between atoms: C4_5  and  N1_6 
REMARK    3  A    between atoms: N1_6  and  C5_7 
REMARK    4  A    between atoms: C10_13  and  N3_14 
REMARK    5  A    between atoms: N3_14  and  O1_16 
REMARK    6  A    between atoms: O1_16  and  C12_17 
REMARK    7  A    between atoms: C12_17  and  S1_18 
REMARK    8  A    between atoms: C17_24  and  N4_25 
ROOT
HETATM    1  C5  UNL     1      23.749  -0.870  54.551  1.00  0.00     0.129 A 
HETATM    2  N2  UNL     1      22.896  -1.514  55.276  1.00  0.00    -0.268 NA
HETATM    3  C6  UNL     1      21.542  -1.192  54.876  1.00  0.00     0.190 A 
HETATM    4  C7  UNL     1      21.722  -0.215  53.756  1.00  0.00    -0.024 A 
HETATM    5  C8  UNL     1      20.837   0.469  52.950  1.00  0.00     0.012 A 
HETATM    6  C9  UNL     1      21.298   1.339  51.958  1.00  0.00     0.032 A 
HETATM    7  C10 UNL     1      22.658   1.524  51.773  1.00  0.00     0.057 A 
HETATM    8  C18 UNL     1      23.543   0.840  52.579  1.00  0.00     0.047 A 
HETATM    9  C19 UNL     1      23.086  -0.020  53.558  1.00  0.00     0.019 A 
ENDROOT
BRANCH   7  10
HETATM   10  N3  UNL     1      23.067   2.422  50.745  1.00  0.00    -0.262 N 
HETATM   11  C11 UNL     1      22.620   2.152  49.397  1.00  0.00     0.185 C 
BRANCH  10  12
HETATM   12  O1  UNL     1      23.832   3.498  50.940  1.00  0.00    -0.268 OA
BRANCH  12  13
HETATM   13  C12 UNL     1      23.545   4.548  50.104  1.00  0.00     0.275 C 
BRANCH  13  14
HETATM   14  S1  UNL     1      25.099   5.149  49.394  1.00  0.00    -0.120 SA
HETATM   15  C13 UNL     1      25.289   6.640  48.752  1.00  0.00     0.046 A 
HETATM   16  C14 UNL     1      26.623   6.918  48.234  1.00  0.00     0.049 A 
HETATM   17  C15 UNL     1      27.616   6.079  48.259  1.00  0.00     0.119 A 
HETATM   18  F1  UNL     1      28.805   6.516  47.723  1.00  0.00    -0.206 F 
HETATM   19  C16 UNL     1      27.625   4.720  48.788  1.00  0.00     0.078 A 
HETATM   20  C17 UNL     1      26.579   4.123  49.342  1.00  0.00     0.062 A 
BRANCH  20  21
HETATM   21  N4  UNL     1      26.575   2.811  49.858  1.00  0.00    -0.394 N 
HETATM   22  H20 UNL     1      27.050   1.883  49.953  1.00  0.00     0.156 HD
HETATM   23  H21 UNL     1      25.816   2.383  50.454  1.00  0.00     0.156 HD
ENDBRANCH  20  21
ENDBRANCH  13  14
ENDBRANCH  12  13
ENDBRANCH  10  12
ENDBRANCH   7  10
BRANCH   1  24
HETATM   24  N1  UNL     1      25.147  -1.019  54.751  1.00  0.00    -0.371 N 
HETATM   25  H7  UNL     1      25.556  -1.984  54.603  1.00  0.00     0.161 HD
BRANCH  24  26
HETATM   26  C4  UNL     1      25.981   0.123  55.148  1.00  0.00     0.149 C 
BRANCH  26  27
HETATM   27  C3  UNL     1      27.406  -0.121  54.860  1.00  0.00     0.007 C 
HETATM   28  C2  UNL     1      27.967  -0.254  53.664  1.00  0.00    -0.018 C 
HETATM   29  C1  UNL     1      27.245  -0.177  52.387  1.00  0.00     0.056 C 
HETATM   30 BR1  UNL     1      29.842  -0.567  53.538  1.00  0.00    -0.056 Br
ENDBRANCH  26  27
ENDBRANCH  24  26
ENDBRANCH   1  24
TORSDOF 8
ENDMDL
MODEL 3
REMARK VINA RESULT:      -7.7      3.157      5.646
REMARK  8 active torsions:
REMARK  status: ('A' for Active; 'I' for Inactive)
REMARK    1  A    between atoms: C3_4  and  C4_5 
REMARK    2  A    between atoms: C4_5  and  N1_6 
REMARK    3  A    between atoms: N1_6  and  C5_7 
REMARK    4  A    between atoms: C10_13  and  N3_14 
REMARK    5  A    between atoms: N3_14  and  O1_16 
REMARK    6  A    between atoms: O1_16  and  C12_17 
REMARK    7  A    between atoms: C12_17  and  S1_18 
REMARK    8  A    between atoms: C17_24  and  N4_25 
ROOT
HETATM    1  C5  UNL     1      23.843  -0.971  54.793  1.00  0.00     0.129 A 
HETATM    2  N2  UNL     1      22.960  -1.669  55.429  1.00  0.00    -0.268 NA
HETATM    3  C6  UNL     1      21.651  -1.494  54.836  1.00  0.00     0.190 A 
HETATM    4  C7  UNL     1      21.893  -0.546  53.703  1.00  0.00    -0.024 A 
HETATM    5  C8  UNL     1      21.069   0.020  52.754  1.00  0.00     0.012 A 
HETATM    6  C9  UNL     1      21.581   0.894  51.792  1.00  0.00     0.032 A 
HETATM    7  C10 UNL     1      22.931   1.203  51.780  1.00  0.00     0.057 A 
HETATM    8  C18 UNL     1      23.755   0.638  52.729  1.00  0.00     0.047 A 
HETATM    9  C19 UNL     1      23.248  -0.226  53.680  1.00  0.00     0.019 A 
ENDROOT
BRANCH   7  10
HETATM   10  N3  UNL     1      23.393   2.099  50.773  1.00  0.00    -0.262 N 
HETATM   11  C11 UNL     1      22.621   2.201  49.556  1.00  0.00     0.185 C 
BRANCH  10  12
HETATM   12  O1  UNL     1      24.490   2.853  50.876  1.00  0.00    -0.268 OA
BRANCH  12  13
HETATM   13  C12 UNL     1      24.957   3.328  49.676  1.00  0.00     0.275 C 
BRANCH  13  14
HETATM   14  S1  UNL     1      25.224   5.112  49.838  1.00  0.00    -0.120 SA
HETATM   15  C13 UNL     1      26.347   5.944  48.991  1.00  0.00     0.046 A 
HETATM   16  C14 UNL     1      26.395   7.373  49.276  1.00  0.00     0.049 A 
HETATM   17  C15 UNL     1      25.625   7.984  50.128  1.00  0.00     0.119 A 
HETATM   18  F1  UNL     1      25.813   9.339  50.266  1.00  0.00    -0.206 F 
HETATM   19  C16 UNL     1      24.580   7.404  50.962  1.00  0.00     0.078 A 
HETATM   20  C17 UNL     1      24.251   6.120  50.971  1.00  0.00     0.062 A 
BRANCH  20  21
HETATM   21  N4  UNL     1      23.241   5.547  51.772  1.00  0.00    -0.394 N 
HETATM   22  H20 UNL     1      22.795   5.441  52.713  1.00  0.00     0.156 HD
HETATM   23  H21 UNL     1      22.487   4.888  51.438  1.00  0.00     0.156 HD
ENDBRANCH  20  21
ENDBRANCH  13  14
ENDBRANCH  12  13
ENDBRANCH  10  12
ENDBRANCH   7  10
BRANCH   1  24
HETATM   24  N1  UNL     1      25.207  -0.977  55.185  1.00  0.00    -0.371 N 
HETATM   25  H7  UNL     1      25.609  -1.896  55.525  1.00  0.00     0.161 HD
BRANCH  24  26
HETATM   26  C4  UNL     1      26.019   0.245  55.119  1.00  0.00     0.149 C 
BRANCH  26  27
HETATM   27  C3  UNL     1      27.433  -0.059  54.831  1.00  0.00     0.007 C 
HETATM   28  C2  UNL     1      27.952  -0.403  53.659  1.00  0.00    -0.018 C 
HETATM   29  C1  UNL     1      27.188  -0.545  52.413  1.00  0.00     0.056 C 
HETATM   30 BR1  UNL     1      29.821  -0.751  53.529  1.00  0.00    -0.056 Br
ENDBRANCH  26  27
ENDBRANCH  24  26
ENDBRANCH   1  24
TORSDOF 8
ENDMDL
MODEL 4
REMARK VINA RESULT:      -7.5      3.678      6.402
REMARK  8 active torsions:
REMARK  status: ('A' for Active; 'I' for Inactive)
REMARK    1  A    between atoms: C3_4  and  C4_5 
REMARK    2  A    between atoms: C4_5  and  N1_6 
REMARK    3  A    between atoms: N1_6  and  C5_7 
REMARK    4  A    between atoms: C10_13  and  N3_14 
REMARK    5  A    between atoms: N3_14  and  O1_16 
REMARK    6  A    between atoms: O1_16  and  C12_17 
REMARK    7  A    between atoms: C12_17  and  S1_18 
REMARK    8  A    between atoms: C17_24  and  N4_25 
ROOT
HETATM    1  C5  UNL     1      27.151   4.531  48.928  1.00  0.00     0.129 A 
HETATM    2  N2  UNL     1      28.359   4.774  48.539  1.00  0.00    -0.268 NA
HETATM    3  C6  UNL     1      28.484   6.147  48.096  1.00  0.00     0.190 A 
HETATM    4  C7  UNL     1      27.110   6.712  48.286  1.00  0.00    -0.024 A 
HETATM    5  C8  UNL     1      26.562   7.956  48.056  1.00  0.00     0.012 A 
HETATM    6  C9  UNL     1      25.215   8.206  48.333  1.00  0.00     0.032 A 
HETATM    7  C10 UNL     1      24.411   7.200  48.845  1.00  0.00     0.057 A 
HETATM    8  C18 UNL     1      24.959   5.956  49.074  1.00  0.00     0.047 A 
HETATM    9  C19 UNL     1      26.291   5.710  48.800  1.00  0.00     0.019 A 
ENDROOT
BRANCH   7  10
HETATM   10  N3  UNL     1      23.047   7.517  49.108  1.00  0.00    -0.262 N 
HETATM   11  C11 UNL     1      22.199   7.831  47.980  1.00  0.00     0.185 C 
BRANCH  10  12
HETATM   12  O1  UNL     1      22.497   7.544  50.323  1.00  0.00    -0.268 OA
BRANCH  12  13
HETATM   13  C12 UNL     1      21.428   6.696  50.472  1.00  0.00     0.275 C 
BRANCH  13  14
HETATM   14  S1  UNL     1      22.012   5.180  51.271  1.00  0.00    -0.120 SA
HETATM   15  C13 UNL     1      21.274   3.729  51.120  1.00  0.00     0.046 A 
HETATM   16  C14 UNL     1      21.911   2.639  51.848  1.00  0.00     0.049 A 
HETATM   17  C15 UNL     1      22.984   2.761  52.573  1.00  0.00     0.119 A 
HETATM   18  F1  UNL     1      23.444   1.620  53.189  1.00  0.00    -0.206 F 
HETATM   19  C16 UNL     1      23.765   3.968  52.816  1.00  0.00     0.078 A 
HETATM   20  C17 UNL     1      23.482   5.160  52.312  1.00  0.00     0.062 A 
BRANCH  20  21
HETATM   21  N4  UNL     1      24.231   6.334  52.539  1.00  0.00    -0.394 N 
HETATM   22  H20 UNL     1      24.692   7.192  52.155  1.00  0.00     0.156 HD
HETATM   23  H21 UNL     1      24.581   6.673  53.475  1.00  0.00     0.156 HD
ENDBRANCH  20  21
ENDBRANCH  13  14
ENDBRANCH  12  13
ENDBRANCH  10  12
ENDBRANCH   7  10
BRANCH   1  24
HETATM   24  N1  UNL     1      26.777   3.249  49.410  1.00  0.00    -0.371 N 
HETATM   25  H7  UNL     1      26.746   2.458  48.706  1.00  0.00     0.161 HD
BRANCH  24  26
HETATM   26  C4  UNL     1      26.447   3.039  50.825  1.00  0.00     0.149 C 
BRANCH  26  27
HETATM   27  C3  UNL     1      26.512   1.612  51.190  1.00  0.00     0.007 C 
HETATM   28  C2  UNL     1      26.694   1.106  52.404  1.00  0.00    -0.018 C 
HETATM   29  C1  UNL     1      26.868   1.903  53.626  1.00  0.00     0.056 C 
HETATM   30 BR1  UNL     1      26.743  -0.784  52.634  1.00  0.00    -0.056 Br
ENDBRANCH  26  27
ENDBRANCH  24  26
ENDBRANCH   1  24
TORSDOF 8
ENDMDL
MODEL 5
REMARK VINA RESULT:      -7.5      3.054      5.964
REMARK  8 active torsions:
REMARK  status: ('A' for Active; 'I' for Inactive)
REMARK    1  A    between atoms: C3_4  and  C4_5 
REMARK    2  A    between atoms: C4_5  and  N1_6 
REMARK    3  A    between atoms: N1_6  and  C5_7 
REMARK    4  A    between atoms: C10_13  and  N3_14 
REMARK    5  A    between atoms: N3_14  and  O1_16 
REMARK    6  A    between atoms: O1_16  and  C12_17 
REMARK    7  A    between atoms: C12_17  and  S1_18 
REMARK    8  A    between atoms: C17_24  and  N4_25 
ROOT
HETATM    1  C5  UNL     1      22.860   4.634  48.215  1.00  0.00     0.129 A 
HETATM    2  N2  UNL     1      22.325   4.538  47.042  1.00  0.00    -0.268 NA
HETATM    3  C6  UNL     1      21.664   3.258  46.889  1.00  0.00     0.190 A 
HETATM    4  C7  UNL     1      21.896   2.575  48.201  1.00  0.00    -0.024 A 
HETATM    5  C8  UNL     1      21.532   1.342  48.700  1.00  0.00     0.012 A 
HETATM    6  C9  UNL     1      21.895   0.959  49.993  1.00  0.00     0.032 A 
HETATM    7  C10 UNL     1      22.629   1.818  50.794  1.00  0.00     0.057 A 
HETATM    8  C18 UNL     1      22.994   3.050  50.295  1.00  0.00     0.047 A 
HETATM    9  C19 UNL     1      22.634   3.429  49.016  1.00  0.00     0.019 A 
ENDROOT
BRANCH   7  10
HETATM   10  N3  UNL     1      22.967   1.370  52.104  1.00  0.00    -0.262 N 
HETATM   11  C11 UNL     1      21.886   1.027  52.999  1.00  0.00     0.185 C 
BRANCH  10  12
HETATM   12  O1  UNL     1      24.215   1.245  52.562  1.00  0.00    -0.268 OA
BRANCH  12  13
HETATM   13  C12 UNL     1      24.510  -0.005  53.047  1.00  0.00     0.275 C 
BRANCH  13  14
HETATM   14  S1  UNL     1      26.308  -0.138  53.215  1.00  0.00    -0.120 SA
HETATM   15  C13 UNL     1      27.148  -1.513  52.943  1.00  0.00     0.046 A 
HETATM   16  C14 UNL     1      28.588  -1.401  53.137  1.00  0.00     0.049 A 
HETATM   17  C15 UNL     1      29.203  -0.312  53.497  1.00  0.00     0.119 A 
HETATM   18  F1  UNL     1      30.569  -0.393  53.630  1.00  0.00    -0.206 F 
HETATM   19  C16 UNL     1      28.618   0.993  53.779  1.00  0.00     0.078 A 
HETATM   20  C17 UNL     1      27.324   1.267  53.705  1.00  0.00     0.062 A 
BRANCH  20  21
HETATM   21  N4  UNL     1      26.745   2.526  53.974  1.00  0.00    -0.394 N 
HETATM   22  H20 UNL     1      25.987   3.086  54.430  1.00  0.00     0.156 HD
HETATM   23  H21 UNL     1      27.110   3.458  53.639  1.00  0.00     0.156 HD
ENDBRANCH  20  21
ENDBRANCH  13  14
ENDBRANCH  12  13
ENDBRANCH  10  12
ENDBRANCH   7  10
BRANCH   1  24
HETATM   24  N1  UNL     1      23.567   5.801  48.607  1.00  0.00    -0.371 N 
HETATM   25  H7  UNL     1      23.337   6.700  48.096  1.00  0.00     0.161 HD
BRANCH  24  26
HETATM   26  C4  UNL     1      24.572   5.753  49.676  1.00  0.00     0.149 C 
BRANCH  26  27
HETATM   27  C3  UNL     1      25.939   5.904  49.141  1.00  0.00     0.007 C 
HETATM   28  C2  UNL     1      26.860   4.956  49.029  1.00  0.00    -0.018 C 
HETATM   29  C1  UNL     1      26.674   3.554  49.428  1.00  0.00     0.056 C 
HETATM   30 BR1  UNL     1      28.568   5.390  48.304  1.00  0.00    -0.056 Br
ENDBRANCH  26  27
ENDBRANCH  24  26
ENDBRANCH   1  24
TORSDOF 8
ENDMDL
MODEL 6
REMARK VINA RESULT:      -7.5      3.725      7.021
REMARK  8 active torsions:
REMARK  status: ('A' for Active; 'I' for Inactive)
REMARK    1  A    between atoms: C3_4  and  C4_5 
REMARK    2  A    between atoms: C4_5  and  N1_6 
REMARK    3  A    between atoms: N1_6  and  C5_7 
REMARK    4  A    between atoms: C10_13  and  N3_14 
REMARK    5  A    between atoms: N3_14  and  O1_16 
REMARK    6  A    between atoms: O1_16  and  C12_17 
REMARK    7  A    between atoms: C12_17  and  S1_18 
REMARK    8  A    between atoms: C17_24  and  N4_25 
ROOT
HETATM    1  C5  UNL     1      19.294   0.690  52.109  1.00  0.00     0.129 A 
HETATM    2  N2  UNL     1      18.614  -0.274  52.636  1.00  0.00    -0.268 NA
HETATM    3  C6  UNL     1      19.465  -1.105  53.462  1.00  0.00     0.190 A 
HETATM    4  C7  UNL     1      20.814  -0.465  53.344  1.00  0.00    -0.024 A 
HETATM    5  C8  UNL     1      22.048  -0.763  53.880  1.00  0.00     0.012 A 
HETATM    6  C9  UNL     1      23.163   0.029  53.591  1.00  0.00     0.032 A 
HETATM    7  C10 UNL     1      23.039   1.128  52.758  1.00  0.00     0.057 A 
HETATM    8  C18 UNL     1      21.804   1.426  52.222  1.00  0.00     0.047 A 
HETATM    9  C19 UNL     1      20.703   0.643  52.509  1.00  0.00     0.019 A 
ENDROOT
BRANCH   7  10
HETATM   10  N3  UNL     1      24.212   1.897  52.503  1.00  0.00    -0.262 N 
HETATM   11  C11 UNL     1      24.402   2.411  51.166  1.00  0.00     0.185 C 
BRANCH  10  12
HETATM   12  O1  UNL     1      25.146   2.176  53.413  1.00  0.00    -0.268 OA
BRANCH  12  13
HETATM   13  C12 UNL     1      26.399   2.371  52.887  1.00  0.00     0.275 C 
BRANCH  13  14
HETATM   14  S1  UNL     1      27.339   0.835  53.076  1.00  0.00    -0.120 SA
HETATM   15  C13 UNL     1      26.832  -0.616  52.521  1.00  0.00     0.046 A 
HETATM   16  C14 UNL     1      27.743  -1.724  52.781  1.00  0.00     0.049 A 
HETATM   17  C15 UNL     1      28.881  -1.616  53.401  1.00  0.00     0.119 A 
HETATM   18  F1  UNL     1      29.610  -2.772  53.555  1.00  0.00    -0.206 F 
HETATM   19  C16 UNL     1      29.484  -0.411  53.958  1.00  0.00     0.078 A 
HETATM   20  C17 UNL     1      28.936   0.794  53.909  1.00  0.00     0.062 A 
BRANCH  20  21
HETATM   21  N4  UNL     1      29.510   1.967  54.443  1.00  0.00    -0.394 N 
HETATM   22  H20 UNL     1      29.785   2.529  55.282  1.00  0.00     0.156 HD
HETATM   23  H21 UNL     1      29.903   2.773  53.885  1.00  0.00     0.156 HD
ENDBRANCH  20  21
ENDBRANCH  13  14
ENDBRANCH  12  13
ENDBRANCH  10  12
ENDBRANCH   7  10
BRANCH   1  24
HETATM   24  N1  UNL     1      18.680   1.644  51.256  1.00  0.00    -0.371 N 
HETATM   25  H7  UNL     1      18.116   2.413  51.717  1.00  0.00     0.161 HD
BRANCH  24  26
HETATM   26  C4  UNL     1      18.825   1.559  49.797  1.00  0.00     0.149 C 
BRANCH  26  27
HETATM   27  C3  UNL     1      19.764   2.575  49.286  1.00  0.00     0.007 C 
HETATM   28  C2  UNL     1      20.968   2.360  48.771  1.00  0.00    -0.018 C 
HETATM   29  C1  UNL     1      21.590   1.038  48.616  1.00  0.00     0.056 C 
HETATM   30 BR1  UNL     1      22.008   3.840  48.172  1.00  0.00    -0.056 Br
ENDBRANCH  26  27
ENDBRANCH  24  26
ENDBRANCH   1  24
TORSDOF 8
ENDMDL
MODEL 7
REMARK VINA RESULT:      -7.4      1.401      1.891
REMARK  8 active torsions:
REMARK  status: ('A' for Active; 'I' for Inactive)
REMARK    1  A    between atoms: C3_4  and  C4_5 
REMARK    2  A    between atoms: C4_5  and  N1_6 
REMARK    3  A    between atoms: N1_6  and  C5_7 
REMARK    4  A    between atoms: C10_13  and  N3_14 
REMARK    5  A    between atoms: N3_14  and  O1_16 
REMARK    6  A    between atoms: O1_16  and  C12_17 
REMARK    7  A    between atoms: C12_17  and  S1_18 
REMARK    8  A    between atoms: C17_24  and  N4_25 
ROOT
HETATM    1  C5  UNL     1      26.742   2.077  52.015  1.00  0.00     0.129 A 
HETATM    2  N2  UNL     1      27.829   1.491  52.395  1.00  0.00    -0.268 NA
HETATM    3  C6  UNL     1      27.524   0.300  53.160  1.00  0.00     0.190 A 
HETATM    4  C7  UNL     1      26.027   0.261  53.182  1.00  0.00    -0.024 A 
HETATM    5  C8  UNL     1      25.115  -0.609  53.740  1.00  0.00     0.012 A 
HETATM    6  C9  UNL     1      23.741  -0.392  53.598  1.00  0.00     0.032 A 
HETATM    7  C10 UNL     1      23.279   0.705  52.890  1.00  0.00     0.057 A 
HETATM    8  C18 UNL     1      24.192   1.575  52.333  1.00  0.00     0.047 A 
HETATM    9  C19 UNL     1      25.549   1.360  52.473  1.00  0.00     0.019 A 
ENDROOT
BRANCH   7  10
HETATM   10  N3  UNL     1      21.868   0.870  52.779  1.00  0.00    -0.262 N 
HETATM   11  C11 UNL     1      21.046   0.391  53.867  1.00  0.00     0.185 C 
BRANCH  10  12
HETATM   12  O1  UNL     1      21.252   1.439  51.741  1.00  0.00    -0.268 OA
BRANCH  12  13
HETATM   13  C12 UNL     1      20.919   2.756  51.940  1.00  0.00     0.275 C 
BRANCH  13  14
HETATM   14  S1  UNL     1      21.582   3.723  50.560  1.00  0.00    -0.120 SA
HETATM   15  C13 UNL     1      21.737   5.350  50.582  1.00  0.00     0.046 A 
HETATM   16  C14 UNL     1      22.293   5.929  49.365  1.00  0.00     0.049 A 
HETATM   17  C15 UNL     1      22.652   5.245  48.318  1.00  0.00     0.119 A 
HETATM   18  F1  UNL     1      23.157   5.963  47.259  1.00  0.00    -0.206 F 
HETATM   19  C16 UNL     1      22.584   3.802  48.127  1.00  0.00     0.078 A 
HETATM   20  C17 UNL     1      22.128   2.946  49.030  1.00  0.00     0.062 A 
BRANCH  20  21
HETATM   21  N4  UNL     1      22.058   1.547  48.858  1.00  0.00    -0.394 N 
HETATM   22  H20 UNL     1      21.622   0.723  48.382  1.00  0.00     0.156 HD
HETATM   23  H21 UNL     1      22.649   0.832  49.362  1.00  0.00     0.156 HD
ENDBRANCH  20  21
ENDBRANCH  13  14
ENDBRANCH  12  13
ENDBRANCH  10  12
ENDBRANCH   7  10
BRANCH   1  24
HETATM   24  N1  UNL     1      26.779   3.270  51.247  1.00  0.00    -0.371 N 
HETATM   25  H7  UNL     1      27.078   4.156  51.744  1.00  0.00     0.161 HD
BRANCH  24  26
HETATM   26  C4  UNL     1      26.415   3.266  49.824  1.00  0.00     0.149 C 
BRANCH  26  27
HETATM   27  C3  UNL     1      26.079   4.621  49.347  1.00  0.00     0.007 C 
HETATM   28  C2  UNL     1      26.889   5.473  48.733  1.00  0.00    -0.018 C 
HETATM   29  C1  UNL     1      28.298   5.209  48.413  1.00  0.00     0.056 C 
HETATM   30 BR1  UNL     1      26.227   7.181  48.206  1.00  0.00    -0.056 Br
ENDBRANCH  26  27
ENDBRANCH  24  26
ENDBRANCH   1  24
TORSDOF 8
ENDMDL
MODEL 8
REMARK VINA RESULT:      -6.9      3.261      6.082
REMARK  8 active torsions:
REMARK  status: ('A' for Active; 'I' for Inactive)
REMARK    1  A    between atoms: C3_4  and  C4_5 
REMARK    2  A    between atoms: C4_5  and  N1_6 
REMARK    3  A    between atoms: N1_6  and  C5_7 
REMARK    4  A    between atoms: C10_13  and  N3_14 
REMARK    5  A    between atoms: N3_14  and  O1_16 
REMARK    6  A    between atoms: O1_16  and  C12_17 
REMARK    7  A    between atoms: C12_17  and  S1_18 
REMARK    8  A    between atoms: C17_24  and  N4_25 
ROOT
HETATM    1  C5  UNL     1      26.761   4.275  49.213  1.00  0.00     0.129 A 
HETATM    2  N2  UNL     1      27.913   4.773  48.908  1.00  0.00    -0.268 NA
HETATM    3  C6  UNL     1      27.765   6.118  48.390  1.00  0.00     0.190 A 
HETATM    4  C7  UNL     1      26.288   6.357  48.433  1.00  0.00    -0.024 A 
HETATM    5  C8  UNL     1      25.497   7.430  48.081  1.00  0.00     0.012 A 
HETATM    6  C9  UNL     1      24.109   7.375  48.232  1.00  0.00     0.032 A 
HETATM    7  C10 UNL     1      23.509   6.234  48.741  1.00  0.00     0.057 A 
HETATM    8  C18 UNL     1      24.300   5.161  49.091  1.00  0.00     0.047 A 
HETATM    9  C19 UNL     1      25.672   5.217  48.942  1.00  0.00     0.019 A 
ENDROOT
BRANCH   7  10
HETATM   10  N3  UNL     1      22.090   6.239  48.872  1.00  0.00    -0.262 N 
HETATM   11  C11 UNL     1      21.445   7.497  49.171  1.00  0.00     0.185 C 
BRANCH  10  12
HETATM   12  O1  UNL     1      21.314   5.162  48.738  1.00  0.00    -0.268 OA
BRANCH  12  13
HETATM   13  C12 UNL     1      20.590   4.849  49.862  1.00  0.00     0.275 C 
BRANCH  13  14
HETATM   14  S1  UNL     1      21.359   3.412  50.650  1.00  0.00    -0.120 SA
HETATM   15  C13 UNL     1      22.383   3.510  51.921  1.00  0.00     0.046 A 
HETATM   16  C14 UNL     1      22.889   2.230  52.401  1.00  0.00     0.049 A 
HETATM   17  C15 UNL     1      22.578   1.074  51.892  1.00  0.00     0.119 A 
HETATM   18  F1  UNL     1      23.152  -0.030  52.477  1.00  0.00    -0.206 F 
HETATM   19  C16 UNL     1      21.689   0.803  50.769  1.00  0.00     0.078 A 
HETATM   20  C17 UNL     1      21.045   1.732  50.078  1.00  0.00     0.062 A 
BRANCH  20  21
HETATM   21  N4  UNL     1      20.182   1.482  48.991  1.00  0.00    -0.394 N 
HETATM   22  H20 UNL     1      19.914   1.671  47.996  1.00  0.00     0.156 HD
HETATM   23  H21 UNL     1      19.359   0.821  48.994  1.00  0.00     0.156 HD
ENDBRANCH  20  21
ENDBRANCH  13  14
ENDBRANCH  12  13
ENDBRANCH  10  12
ENDBRANCH   7  10
BRANCH   1  24
HETATM   24  N1  UNL     1      26.643   2.964  49.744  1.00  0.00    -0.371 N 
HETATM   25  H7  UNL     1      26.582   2.165  49.050  1.00  0.00     0.161 HD
BRANCH  24  26
HETATM   26  C4  UNL     1      26.607   2.734  51.193  1.00  0.00     0.149 C 
BRANCH  26  27
HETATM   27  C3  UNL     1      26.596   1.294  51.514  1.00  0.00     0.007 C 
HETATM   28  C2  UNL     1      26.424   0.744  52.709  1.00  0.00    -0.018 C 
HETATM   29  C1  UNL     1      26.208   1.495  53.954  1.00  0.00     0.056 C 
HETATM   30 BR1  UNL     1      26.450  -1.153  52.881  1.00  0.00    -0.056 Br
ENDBRANCH  26  27
ENDBRANCH  24  26
ENDBRANCH   1  24
TORSDOF 8
ENDMDL
MODEL 9
REMARK VINA RESULT:      -6.9      3.575      6.165
REMARK  8 active torsions:
REMARK  status: ('A' for Active; 'I' for Inactive)
REMARK    1  A    between atoms: C3_4  and  C4_5 
REMARK    2  A    between atoms: C4_5  and  N1_6 
REMARK    3  A    between atoms: N1_6  and  C5_7 
REMARK    4  A    between atoms: C10_13  and  N3_14 
REMARK    5  A    between atoms: N3_14  and  O1_16 
REMARK    6  A    between atoms: O1_16  and  C12_17 
REMARK    7  A    between atoms: C12_17  and  S1_18 
REMARK    8  A    between atoms: C17_24  and  N4_25 
ROOT
HETATM    1  C5  UNL     1      25.363   6.228  49.935  1.00  0.00     0.129 A 
HETATM    2  N2  UNL     1      24.783   7.338  49.616  1.00  0.00    -0.268 NA
HETATM    3  C6  UNL     1      23.449   7.394  50.176  1.00  0.00     0.190 A 
HETATM    4  C7  UNL     1      23.312   6.095  50.908  1.00  0.00    -0.024 A 
HETATM    5  C8  UNL     1      22.293   5.533  51.647  1.00  0.00     0.012 A 
HETATM    6  C9  UNL     1      22.446   4.272  52.232  1.00  0.00     0.032 A 
HETATM    7  C10 UNL     1      23.630   3.571  52.074  1.00  0.00     0.057 A 
HETATM    8  C18 UNL     1      24.648   4.133  51.334  1.00  0.00     0.047 A 
HETATM    9  C19 UNL     1      24.496   5.379  50.757  1.00  0.00     0.019 A 
ENDROOT
BRANCH   7  10
HETATM   10  N3  UNL     1      23.725   2.291  52.695  1.00  0.00    -0.262 N 
HETATM   11  C11 UNL     1      22.499   1.563  52.929  1.00  0.00     0.185 C 
BRANCH  10  12
HETATM   12  O1  UNL     1      24.869   1.718  53.075  1.00  0.00    -0.268 OA
BRANCH  12  13
HETATM   13  C12 UNL     1      25.180   0.577  52.379  1.00  0.00     0.275 C 
BRANCH  13  14
HETATM   14  S1  UNL     1      26.839   0.046  52.874  1.00  0.00    -0.120 SA
HETATM   15  C13 UNL     1      27.379  -1.492  52.745  1.00  0.00     0.046 A 
HETATM   16  C14 UNL     1      28.747  -1.702  53.203  1.00  0.00     0.049 A 
HETATM   17  C15 UNL     1      29.517  -0.770  53.683  1.00  0.00     0.119 A 
HETATM   18  F1  UNL     1      30.781  -1.153  54.066  1.00  0.00    -0.206 F 
HETATM   19  C16 UNL     1      29.203   0.641  53.869  1.00  0.00     0.078 A 
HETATM   20  C17 UNL     1      28.041   1.199  53.561  1.00  0.00     0.062 A 
BRANCH  20  21
HETATM   21  N4  UNL     1      27.725   2.563  53.734  1.00  0.00    -0.394 N 
HETATM   22  H20 UNL     1      27.007   3.325  53.731  1.00  0.00     0.156 HD
HETATM   23  H21 UNL     1      28.407   3.328  53.991  1.00  0.00     0.156 HD
ENDBRANCH  20  21
ENDBRANCH  13  14
ENDBRANCH  12  13
ENDBRANCH  10  12
ENDBRANCH   7  10
BRANCH   1  24
HETATM   24  N1  UNL     1      26.683   5.937  49.504  1.00  0.00    -0.371 N 
HETATM   25  H7  UNL     1      27.259   5.287  50.112  1.00  0.00     0.161 HD
BRANCH  24  26
HETATM   26  C4  UNL     1      27.222   6.517  48.268  1.00  0.00     0.149 C 
BRANCH  26  27
HETATM   27  C3  UNL     1      28.285   7.500  48.548  1.00  0.00     0.007 C 
HETATM   28  C2  UNL     1      29.049   8.124  47.660  1.00  0.00    -0.018 C 
HETATM   29  C1  UNL     1      28.964   7.940  46.205  1.00  0.00     0.056 C 
HETATM   30 BR1  UNL     1      30.367   9.360  48.263  1.00  0.00    -0.056 Br
ENDBRANCH  26  27
ENDBRANCH  24  26
ENDBRANCH   1  24
TORSDOF 8
ENDMDL
