MODEL 1
REMARK VINA RESULT:      -7.2      0.000      0.000
REMARK  9 active torsions:
REMARK  status: ('A' for Active; 'I' for Inactive)
REMARK    1  A    between atoms: C2_2  and  O1_3 
REMARK    2  A    between atoms: O1_3  and  C3_4 
REMARK    3  A    between atoms: C7_8  and  N1_9 
REMARK    4  A    between atoms: N1_9  and  C8_10 
REMARK    5  A    between atoms: C15_17  and  N2_18 
REMARK    6  A    between atoms: N2_18  and  C16_19 
REMARK    7  A    between atoms: C16_19  and  C18_21 
REMARK    8  A    between atoms: C18_21  and  N3_22 
REMARK    9  A    between atoms: N3_22  and  C20_24 
ROOT
HETATM    1  C3  UNL     1      20.761   0.155  53.204  1.00  0.00     0.091 A 
HETATM    2  C4  UNL     1      21.205  -0.661  54.140  1.00  0.00     0.017 A 
HETATM    3  C5  UNL     1      22.572  -1.068  54.525  1.00  0.00     0.070 A 
HETATM    4  C6  UNL     1      23.529  -0.370  53.631  1.00  0.00    -0.037 A 
HETATM    5  C7  UNL     1      24.823  -0.597  53.810  1.00  0.00     0.095 C 
HETATM    6  C14 UNL     1      23.097   0.538  52.586  1.00  0.00     0.040 A 
HETATM    7  C15 UNL     1      21.815   0.780  52.390  1.00  0.00     0.062 A 
ENDROOT
BRANCH   5   8
HETATM    8  N1  UNL     1      25.835  -0.004  53.036  1.00  0.00    -0.365 N 
HETATM    9  H10 UNL     1      25.589   0.647  52.268  1.00  0.00     0.165 HD
BRANCH   8  10
HETATM   10  C8  UNL     1      27.215  -0.225  53.220  1.00  0.00     0.031 A 
HETATM   11  C9  UNL     1      28.129   0.751  53.585  1.00  0.00     0.029 A 
HETATM   12  C10 UNL     1      29.469   0.533  53.763  1.00  0.00     0.002 A 
HETATM   13  C11 UNL     1      29.985  -0.731  53.574  1.00  0.00     0.000 A 
HETATM   14  C12 UNL     1      29.131  -1.749  53.208  1.00  0.00     0.002 A 
HETATM   15  C13 UNL     1      27.790  -1.468  53.044  1.00  0.00     0.029 A 
ENDBRANCH   8  10
ENDBRANCH   5   8
BRANCH   7  16
HETATM   16  N2  UNL     1      21.371   1.676  51.358  1.00  0.00    -0.382 N 
HETATM   17  H17 UNL     1      20.556   2.327  51.300  1.00  0.00     0.160 HD
BRANCH  16  18
HETATM   18  C16 UNL     1      22.262   1.604  50.239  1.00  0.00     0.095 C 
HETATM   19  C17 UNL     1      21.448   1.021  49.078  1.00  0.00     0.034 C 
BRANCH  18  20
HETATM   20  C18 UNL     1      22.770   2.929  49.762  1.00  0.00     0.149 C 
BRANCH  20  21
HETATM   21  N3  UNL     1      23.785   3.514  50.587  1.00  0.00    -0.362 N 
HETATM   22  C19 UNL     1      23.487   4.540  51.587  1.00  0.00     0.152 C 
BRANCH  21  23
HETATM   23  C20 UNL     1      25.174   3.252  50.614  1.00  0.00     0.350 C 
HETATM   24  O2  UNL     1      25.867   2.279  51.067  1.00  0.00    -0.284 OA
ENDBRANCH  21  23
ENDBRANCH  20  21
ENDBRANCH  18  20
ENDBRANCH  16  18
ENDBRANCH   7  16
BRANCH   1  25
HETATM   25  O1  UNL     1      19.416   0.423  52.981  1.00  0.00    -0.349 OA
BRANCH  25  26
HETATM   26  C2  UNL     1      18.597  -0.459  52.211  1.00  0.00     0.171 C 
HETATM   27  C1  UNL     1      17.760  -1.260  53.186  1.00  0.00     0.034 C 
ENDBRANCH  25  26
ENDBRANCH   1  25
TORSDOF 9
ENDMDL
MODEL 2
REMARK VINA RESULT:      -6.9      3.329      6.967
REMARK  9 active torsions:
REMARK  status: ('A' for Active; 'I' for Inactive)
REMARK    1  A    between atoms: C2_2  and  O1_3 
REMARK    2  A    between atoms: O1_3  and  C3_4 
REMARK    3  A    between atoms: C7_8  and  N1_9 
REMARK    4  A    between atoms: N1_9  and  C8_10 
REMARK    5  A    between atoms: C15_17  and  N2_18 
REMARK    6  A    between atoms: N2_18  and  C16_19 
REMARK    7  A    between atoms: C16_19  and  C18_21 
REMARK    8  A    between atoms: C18_21  and  N3_22 
REMARK    9  A    between atoms: N3_22  and  C20_24 
ROOT
HETATM    1  C3  UNL     1      24.237   1.696  52.401  1.00  0.00     0.091 A 
HETATM    2  C4  UNL     1      23.589   1.891  51.269  1.00  0.00     0.017 A 
HETATM    3  C5  UNL     1      23.944   2.644  50.049  1.00  0.00     0.070 A 
HETATM    4  C6  UNL     1      25.287   3.243  50.250  1.00  0.00    -0.037 A 
HETATM    5  C7  UNL     1      25.797   3.967  49.265  1.00  0.00     0.095 C 
HETATM    6  C14 UNL     1      26.044   3.061  51.475  1.00  0.00     0.040 A 
HETATM    7  C15 UNL     1      25.555   2.344  52.469  1.00  0.00     0.062 A 
ENDROOT
BRANCH   5   8
HETATM    8  N1  UNL     1      27.057   4.589  49.323  1.00  0.00    -0.365 N 
HETATM    9  H10 UNL     1      27.789   4.223  49.958  1.00  0.00     0.165 HD
BRANCH   8  10
HETATM   10  C8  UNL     1      27.427   5.715  48.561  1.00  0.00     0.031 A 
HETATM   11  C9  UNL     1      26.566   6.738  48.193  1.00  0.00     0.029 A 
HETATM   12  C10 UNL     1      26.930   7.831  47.453  1.00  0.00     0.002 A 
HETATM   13  C11 UNL     1      28.233   7.961  47.023  1.00  0.00     0.000 A 
HETATM   14  C12 UNL     1      29.142   6.979  47.352  1.00  0.00     0.002 A 
HETATM   15  C13 UNL     1      28.717   5.900  48.101  1.00  0.00     0.029 A 
ENDBRANCH   8  10
ENDBRANCH   5   8
BRANCH   7  16
HETATM   16  N2  UNL     1      26.292   2.155  53.688  1.00  0.00    -0.382 N 
HETATM   17  H17 UNL     1      26.082   2.410  54.679  1.00  0.00     0.160 HD
BRANCH  16  18
HETATM   18  C16 UNL     1      27.529   1.489  53.407  1.00  0.00     0.095 C 
HETATM   19  C17 UNL     1      28.640   2.509  53.685  1.00  0.00     0.034 C 
BRANCH  18  20
HETATM   20  C18 UNL     1      27.818   0.315  54.290  1.00  0.00     0.149 C 
BRANCH  20  21
HETATM   21  N3  UNL     1      28.432  -0.797  53.626  1.00  0.00    -0.362 N 
HETATM   22  C19 UNL     1      29.884  -0.969  53.565  1.00  0.00     0.152 C 
BRANCH  21  23
HETATM   23  C20 UNL     1      27.823  -1.876  52.946  1.00  0.00     0.350 C 
HETATM   24  O2  UNL     1      28.136  -3.107  52.809  1.00  0.00    -0.284 OA
ENDBRANCH  21  23
ENDBRANCH  20  21
ENDBRANCH  18  20
ENDBRANCH  16  18
ENDBRANCH   7  16
BRANCH   1  25
HETATM   25  O1  UNL     1      23.741   0.945  53.460  1.00  0.00    -0.349 OA
BRANCH  25  26
HETATM   26  C2  UNL     1      23.529  -0.463  53.342  1.00  0.00     0.171 C 
HETATM   27  C1  UNL     1      22.731  -0.899  54.552  1.00  0.00     0.034 C 
ENDBRANCH  25  26
ENDBRANCH   1  25
TORSDOF 9
ENDMDL
MODEL 3
REMARK VINA RESULT:      -6.8      1.938      6.942
REMARK  9 active torsions:
REMARK  status: ('A' for Active; 'I' for Inactive)
REMARK    1  A    between atoms: C2_2  and  O1_3 
REMARK    2  A    between atoms: O1_3  and  C3_4 
REMARK    3  A    between atoms: C7_8  and  N1_9 
REMARK    4  A    between atoms: N1_9  and  C8_10 
REMARK    5  A    between atoms: C15_17  and  N2_18 
REMARK    6  A    between atoms: N2_18  and  C16_19 
REMARK    7  A    between atoms: C16_19  and  C18_21 
REMARK    8  A    between atoms: C18_21  and  N3_22 
REMARK    9  A    between atoms: N3_22  and  C20_24 
ROOT
HETATM    1  C3  UNL     1      25.392  -0.699  54.228  1.00  0.00     0.091 A 
HETATM    2  C4  UNL     1      24.632  -1.167  55.199  1.00  0.00     0.017 A 
HETATM    3  C5  UNL     1      23.167  -1.168  55.389  1.00  0.00     0.070 A 
HETATM    4  C6  UNL     1      22.549  -0.498  54.217  1.00  0.00    -0.037 A 
HETATM    5  C7  UNL     1      21.228  -0.393  54.189  1.00  0.00     0.095 C 
HETATM    6  C14 UNL     1      23.337   0.034  53.122  1.00  0.00     0.040 A 
HETATM    7  C15 UNL     1      24.653  -0.060  53.129  1.00  0.00     0.062 A 
ENDROOT
BRANCH   5   8
HETATM    8  N1  UNL     1      20.516   0.217  53.142  1.00  0.00    -0.365 N 
HETATM    9  H10 UNL     1      20.911   1.041  52.653  1.00  0.00     0.165 HD
BRANCH   8  10
HETATM   10  C8  UNL     1      19.256  -0.212  52.677  1.00  0.00     0.031 A 
HETATM   11  C9  UNL     1      18.439  -1.119  53.335  1.00  0.00     0.029 A 
HETATM   12  C10 UNL     1      17.215  -1.533  52.881  1.00  0.00     0.002 A 
HETATM   13  C11 UNL     1      16.725  -1.038  51.691  1.00  0.00     0.000 A 
HETATM   14  C12 UNL     1      17.487  -0.132  50.986  1.00  0.00     0.002 A 
HETATM   15  C13 UNL     1      18.713   0.248  51.493  1.00  0.00     0.029 A 
ENDBRANCH   8  10
ENDBRANCH   5   8
BRANCH   7  16
HETATM   16  N2  UNL     1      25.446   0.464  52.052  1.00  0.00    -0.382 N 
HETATM   17  H17 UNL     1      25.969  -0.002  51.276  1.00  0.00     0.160 HD
BRANCH  16  18
HETATM   18  C16 UNL     1      25.477   1.894  52.125  1.00  0.00     0.095 C 
HETATM   19  C17 UNL     1      26.958   2.293  52.136  1.00  0.00     0.034 C 
BRANCH  18  20
HETATM   20  C18 UNL     1      24.872   2.591  50.946  1.00  0.00     0.149 C 
BRANCH  20  21
HETATM   21  N3  UNL     1      23.632   3.258  51.215  1.00  0.00    -0.362 N 
HETATM   22  C19 UNL     1      22.343   2.725  50.773  1.00  0.00     0.152 C 
BRANCH  21  23
HETATM   23  C20 UNL     1      23.403   4.469  51.907  1.00  0.00     0.350 C 
HETATM   24  O2  UNL     1      22.471   4.863  52.687  1.00  0.00    -0.284 OA
ENDBRANCH  21  23
ENDBRANCH  20  21
ENDBRANCH  18  20
ENDBRANCH  16  18
ENDBRANCH   7  16
BRANCH   1  25
HETATM   25  O1  UNL     1      26.778  -0.787  54.216  1.00  0.00    -0.349 OA
BRANCH  25  26
HETATM   26  C2  UNL     1      27.591   0.124  54.958  1.00  0.00     0.171 C 
HETATM   27  C1  UNL     1      28.992   0.038  54.392  1.00  0.00     0.034 C 
ENDBRANCH  25  26
ENDBRANCH   1  25
TORSDOF 9
ENDMDL
MODEL 4
REMARK VINA RESULT:      -6.7      2.814      5.211
REMARK  9 active torsions:
REMARK  status: ('A' for Active; 'I' for Inactive)
REMARK    1  A    between atoms: C2_2  and  O1_3 
REMARK    2  A    between atoms: O1_3  and  C3_4 
REMARK    3  A    between atoms: C7_8  and  N1_9 
REMARK    4  A    between atoms: N1_9  and  C8_10 
REMARK    5  A    between atoms: C15_17  and  N2_18 
REMARK    6  A    between atoms: N2_18  and  C16_19 
REMARK    7  A    between atoms: C16_19  and  C18_21 
REMARK    8  A    between atoms: C18_21  and  N3_22 
REMARK    9  A    between atoms: N3_22  and  C20_24 
ROOT
HETATM    1  C3  UNL     1      23.446   1.117  52.875  1.00  0.00     0.091 A 
HETATM    2  C4  UNL     1      24.644   1.301  53.395  1.00  0.00     0.017 A 
HETATM    3  C5  UNL     1      25.876   1.899  52.841  1.00  0.00     0.070 A 
HETATM    4  C6  UNL     1      25.593   2.333  51.450  1.00  0.00    -0.037 A 
HETATM    5  C7  UNL     1      26.575   2.902  50.766  1.00  0.00     0.095 C 
HETATM    6  C14 UNL     1      24.294   2.156  50.829  1.00  0.00     0.040 A 
HETATM    7  C15 UNL     1      23.301   1.592  51.491  1.00  0.00     0.062 A 
ENDROOT
BRANCH   5   8
HETATM    8  N1  UNL     1      26.444   3.358  49.443  1.00  0.00    -0.365 N 
HETATM    9  H10 UNL     1      26.039   2.740  48.716  1.00  0.00     0.165 HD
BRANCH   8  10
HETATM   10  C8  UNL     1      26.832   4.638  48.997  1.00  0.00     0.031 A 
HETATM   11  C9  UNL     1      28.102   4.965  48.545  1.00  0.00     0.029 A 
HETATM   12  C10 UNL     1      28.475   6.209  48.112  1.00  0.00     0.002 A 
HETATM   13  C11 UNL     1      27.555   7.236  48.111  1.00  0.00     0.000 A 
HETATM   14  C12 UNL     1      26.275   6.980  48.549  1.00  0.00     0.002 A 
HETATM   15  C13 UNL     1      25.956   5.706  48.973  1.00  0.00     0.029 A 
ENDBRANCH   8  10
ENDBRANCH   5   8
BRANCH   7  16
HETATM   16  N2  UNL     1      22.009   1.409  50.889  1.00  0.00    -0.382 N 
HETATM   17  H17 UNL     1      21.162   0.882  51.199  1.00  0.00     0.160 HD
BRANCH  16  18
HETATM   18  C16 UNL     1      21.954   2.106  49.640  1.00  0.00     0.095 C 
HETATM   19  C17 UNL     1      21.588   1.061  48.579  1.00  0.00     0.034 C 
BRANCH  18  20
HETATM   20  C18 UNL     1      20.895   3.161  49.562  1.00  0.00     0.149 C 
BRANCH  20  21
HETATM   21  N3  UNL     1      20.785   3.988  50.728  1.00  0.00    -0.362 N 
HETATM   22  C19 UNL     1      21.534   5.235  50.878  1.00  0.00     0.152 C 
BRANCH  21  23
HETATM   23  C20 UNL     1      19.996   3.795  51.885  1.00  0.00     0.350 C 
HETATM   24  O2  UNL     1      19.976   2.886  52.783  1.00  0.00    -0.284 OA
ENDBRANCH  21  23
ENDBRANCH  20  21
ENDBRANCH  18  20
ENDBRANCH  16  18
ENDBRANCH   7  16
BRANCH   1  25
HETATM   25  O1  UNL     1      22.388   0.526  53.554  1.00  0.00    -0.349 OA
BRANCH  25  26
HETATM   26  C2  UNL     1      22.564  -0.671  54.315  1.00  0.00     0.171 C 
HETATM   27  C1  UNL     1      21.223  -1.371  54.366  1.00  0.00     0.034 C 
ENDBRANCH  25  26
ENDBRANCH   1  25
TORSDOF 9
ENDMDL
MODEL 5
REMARK VINA RESULT:      -6.7      2.355      6.746
REMARK  9 active torsions:
REMARK  status: ('A' for Active; 'I' for Inactive)
REMARK    1  A    between atoms: C2_2  and  O1_3 
REMARK    2  A    between atoms: O1_3  and  C3_4 
REMARK    3  A    between atoms: C7_8  and  N1_9 
REMARK    4  A    between atoms: N1_9  and  C8_10 
REMARK    5  A    between atoms: C15_17  and  N2_18 
REMARK    6  A    between atoms: N2_18  and  C16_19 
REMARK    7  A    between atoms: C16_19  and  C18_21 
REMARK    8  A    between atoms: C18_21  and  N3_22 
REMARK    9  A    between atoms: N3_22  and  C20_24 
ROOT
HETATM    1  C3  UNL     1      25.855   1.359  53.856  1.00  0.00     0.091 A 
HETATM    2  C4  UNL     1      25.575   0.116  54.196  1.00  0.00     0.017 A 
HETATM    3  C5  UNL     1      24.371  -0.714  53.987  1.00  0.00     0.070 A 
HETATM    4  C6  UNL     1      23.369   0.101  53.256  1.00  0.00    -0.037 A 
HETATM    5  C7  UNL     1      22.205  -0.461  52.965  1.00  0.00     0.095 C 
HETATM    6  C14 UNL     1      23.625   1.472  52.857  1.00  0.00     0.040 A 
HETATM    7  C15 UNL     1      24.776   2.052  53.135  1.00  0.00     0.062 A 
ENDROOT
BRANCH   5   8
HETATM    8  N1  UNL     1      21.170   0.195  52.277  1.00  0.00    -0.365 N 
HETATM    9  H10 UNL     1      21.379   1.024  51.690  1.00  0.00     0.165 HD
BRANCH   8  10
HETATM   10  C8  UNL     1      19.814  -0.189  52.317  1.00  0.00     0.031 A 
HETATM   11  C9  UNL     1      18.863   0.173  51.374  1.00  0.00     0.029 A 
HETATM   12  C10 UNL     1      17.547  -0.202  51.416  1.00  0.00     0.002 A 
HETATM   13  C11 UNL     1      17.096  -0.994  52.450  1.00  0.00     0.000 A 
HETATM   14  C12 UNL     1      17.989  -1.389  53.422  1.00  0.00     0.002 A 
HETATM   15  C13 UNL     1      19.303  -0.980  53.327  1.00  0.00     0.029 A 
ENDBRANCH   8  10
ENDBRANCH   5   8
BRANCH   7  16
HETATM   16  N2  UNL     1      25.044   3.410  52.748  1.00  0.00    -0.382 N 
HETATM   17  H17 UNL     1      25.905   3.998  52.810  1.00  0.00     0.160 HD
BRANCH  16  18
HETATM   18  C16 UNL     1      23.864   3.992  52.181  1.00  0.00     0.095 C 
HETATM   19  C17 UNL     1      23.418   5.091  53.153  1.00  0.00     0.034 C 
BRANCH  18  20
HETATM   20  C18 UNL     1      24.076   4.669  50.863  1.00  0.00     0.149 C 
BRANCH  20  21
HETATM   21  N3  UNL     1      24.613   3.826  49.835  1.00  0.00    -0.362 N 
HETATM   22  C19 UNL     1      23.762   3.087  48.904  1.00  0.00     0.152 C 
BRANCH  21  23
HETATM   23  C20 UNL     1      25.965   3.550  49.526  1.00  0.00     0.350 C 
HETATM   24  O2  UNL     1      27.015   3.434  50.244  1.00  0.00    -0.284 OA
ENDBRANCH  21  23
ENDBRANCH  20  21
ENDBRANCH  18  20
ENDBRANCH  16  18
ENDBRANCH   7  16
BRANCH   1  25
HETATM   25  O1  UNL     1      27.060   1.988  54.139  1.00  0.00    -0.349 OA
BRANCH  25  26
HETATM   26  C2  UNL     1      28.182   1.884  53.260  1.00  0.00     0.171 C 
HETATM   27  C1  UNL     1      29.148   0.897  53.881  1.00  0.00     0.034 C 
ENDBRANCH  25  26
ENDBRANCH   1  25
TORSDOF 9
ENDMDL
MODEL 6
REMARK VINA RESULT:      -6.5      2.802      5.608
REMARK  9 active torsions:
REMARK  status: ('A' for Active; 'I' for Inactive)
REMARK    1  A    between atoms: C2_2  and  O1_3 
REMARK    2  A    between atoms: O1_3  and  C3_4 
REMARK    3  A    between atoms: C7_8  and  N1_9 
REMARK    4  A    between atoms: N1_9  and  C8_10 
REMARK    5  A    between atoms: C15_17  and  N2_18 
REMARK    6  A    between atoms: N2_18  and  C16_19 
REMARK    7  A    between atoms: C16_19  and  C18_21 
REMARK    8  A    between atoms: C18_21  and  N3_22 
REMARK    9  A    between atoms: N3_22  and  C20_24 
ROOT
HETATM    1  C3  UNL     1      25.033   0.032  52.842  1.00  0.00     0.091 A 
HETATM    2  C4  UNL     1      26.329   0.216  52.685  1.00  0.00     0.017 A 
HETATM    3  C5  UNL     1      27.096   1.235  51.941  1.00  0.00     0.070 A 
HETATM    4  C6  UNL     1      26.130   2.161  51.298  1.00  0.00    -0.037 A 
HETATM    5  C7  UNL     1      26.616   3.160  50.574  1.00  0.00     0.095 C 
HETATM    6  C14 UNL     1      24.694   2.006  51.437  1.00  0.00     0.040 A 
HETATM    7  C15 UNL     1      24.189   1.020  52.152  1.00  0.00     0.062 A 
ENDROOT
BRANCH   5   8
HETATM    8  N1  UNL     1      25.815   4.107  49.913  1.00  0.00    -0.365 N 
HETATM    9  H10 UNL     1      24.782   4.043  49.965  1.00  0.00     0.165 HD
BRANCH   8  10
HETATM   10  C8  UNL     1      26.315   5.183  49.151  1.00  0.00     0.031 A 
HETATM   11  C9  UNL     1      25.565   6.276  48.743  1.00  0.00     0.029 A 
HETATM   12  C10 UNL     1      26.053   7.320  48.004  1.00  0.00     0.002 A 
HETATM   13  C11 UNL     1      27.376   7.322  47.616  1.00  0.00     0.000 A 
HETATM   14  C12 UNL     1      28.178   6.264  47.987  1.00  0.00     0.002 A 
HETATM   15  C13 UNL     1      27.630   5.240  48.733  1.00  0.00     0.029 A 
ENDBRANCH   8  10
ENDBRANCH   5   8
BRANCH   7  16
HETATM   16  N2  UNL     1      22.769   0.853  52.299  1.00  0.00    -0.382 N 
HETATM   17  H17 UNL     1      22.197   0.248  52.930  1.00  0.00     0.160 HD
BRANCH  16  18
HETATM   18  C16 UNL     1      22.084   1.706  51.375  1.00  0.00     0.095 C 
HETATM   19  C17 UNL     1      21.204   0.791  50.515  1.00  0.00     0.034 C 
BRANCH  18  20
HETATM   20  C18 UNL     1      21.155   2.693  52.010  1.00  0.00     0.149 C 
BRANCH  20  21
HETATM   21  N3  UNL     1      21.456   4.067  51.730  1.00  0.00    -0.362 N 
HETATM   22  C19 UNL     1      20.652   4.873  50.811  1.00  0.00     0.152 C 
BRANCH  21  23
HETATM   23  C20 UNL     1      22.503   4.870  52.236  1.00  0.00     0.350 C 
HETATM   24  O2  UNL     1      23.621   5.251  51.748  1.00  0.00    -0.284 OA
ENDBRANCH  21  23
ENDBRANCH  20  21
ENDBRANCH  18  20
ENDBRANCH  16  18
ENDBRANCH   7  16
BRANCH   1  25
HETATM   25  O1  UNL     1      24.480  -0.999  53.590  1.00  0.00    -0.349 OA
BRANCH  25  26
HETATM   26  C2  UNL     1      24.435  -0.945  55.018  1.00  0.00     0.171 C 
HETATM   27  C1  UNL     1      23.021  -1.291  55.435  1.00  0.00     0.034 C 
ENDBRANCH  25  26
ENDBRANCH   1  25
TORSDOF 9
ENDMDL
MODEL 7
REMARK VINA RESULT:      -6.4      1.921      2.489
REMARK  9 active torsions:
REMARK  status: ('A' for Active; 'I' for Inactive)
REMARK    1  A    between atoms: C2_2  and  O1_3 
REMARK    2  A    between atoms: O1_3  and  C3_4 
REMARK    3  A    between atoms: C7_8  and  N1_9 
REMARK    4  A    between atoms: N1_9  and  C8_10 
REMARK    5  A    between atoms: C15_17  and  N2_18 
REMARK    6  A    between atoms: N2_18  and  C16_19 
REMARK    7  A    between atoms: C16_19  and  C18_21 
REMARK    8  A    between atoms: C18_21  and  N3_22 
REMARK    9  A    between atoms: N3_22  and  C20_24 
ROOT
HETATM    1  C3  UNL     1      21.301   1.335  51.621  1.00  0.00     0.091 A 
HETATM    2  C4  UNL     1      21.374   0.248  52.364  1.00  0.00     0.017 A 
HETATM    3  C5  UNL     1      22.503  -0.380  53.080  1.00  0.00     0.070 A 
HETATM    4  C6  UNL     1      23.714   0.447  52.849  1.00  0.00    -0.037 A 
HETATM    5  C7  UNL     1      24.849   0.055  53.410  1.00  0.00     0.095 C 
HETATM    6  C14 UNL     1      23.689   1.652  52.042  1.00  0.00     0.040 A 
HETATM    7  C15 UNL     1      22.571   2.061  51.474  1.00  0.00     0.062 A 
ENDROOT
BRANCH   5   8
HETATM    8  N1  UNL     1      26.066   0.744  53.274  1.00  0.00    -0.365 N 
HETATM    9  H10 UNL     1      26.070   1.770  53.124  1.00  0.00     0.165 HD
BRANCH   8  10
HETATM   10  C8  UNL     1      27.338   0.138  53.325  1.00  0.00     0.031 A 
HETATM   11  C9  UNL     1      27.584  -1.203  53.071  1.00  0.00     0.029 A 
HETATM   12  C10 UNL     1      28.820  -1.789  53.121  1.00  0.00     0.002 A 
HETATM   13  C11 UNL     1      29.923  -1.029  53.445  1.00  0.00     0.000 A 
HETATM   14  C12 UNL     1      29.749   0.312  53.711  1.00  0.00     0.002 A 
HETATM   15  C13 UNL     1      28.479   0.847  53.644  1.00  0.00     0.029 A 
ENDBRANCH   8  10
ENDBRANCH   5   8
BRANCH   7  16
HETATM   16  N2  UNL     1      22.532   3.251  50.670  1.00  0.00    -0.382 N 
HETATM   17  H17 UNL     1      21.940   4.111  50.722  1.00  0.00     0.160 HD
BRANCH  16  18
HETATM   18  C16 UNL     1      23.512   3.165  49.629  1.00  0.00     0.095 C 
HETATM   19  C17 UNL     1      22.820   2.487  48.441  1.00  0.00     0.034 C 
BRANCH  18  20
HETATM   20  C18 UNL     1      24.000   4.486  49.123  1.00  0.00     0.149 C 
BRANCH  20  21
HETATM   21  N3  UNL     1      25.393   4.738  49.352  1.00  0.00    -0.362 N 
HETATM   22  C19 UNL     1      26.364   3.661  49.539  1.00  0.00     0.152 C 
BRANCH  21  23
HETATM   23  C20 UNL     1      26.072   5.975  49.439  1.00  0.00     0.350 C 
HETATM   24  O2  UNL     1      25.890   7.019  50.154  1.00  0.00    -0.284 OA
ENDBRANCH  21  23
ENDBRANCH  20  21
ENDBRANCH  18  20
ENDBRANCH  16  18
ENDBRANCH   7  16
BRANCH   1  25
HETATM   25  O1  UNL     1      20.134   1.783  51.014  1.00  0.00    -0.349 OA
BRANCH  25  26
HETATM   26  C2  UNL     1      19.153   2.527  51.740  1.00  0.00     0.171 C 
HETATM   27  C1  UNL     1      18.594   3.570  50.796  1.00  0.00     0.034 C 
ENDBRANCH  25  26
ENDBRANCH   1  25
TORSDOF 9
ENDMDL
MODEL 8
REMARK VINA RESULT:      -6.4      2.655      6.644
REMARK  9 active torsions:
REMARK  status: ('A' for Active; 'I' for Inactive)
REMARK    1  A    between atoms: C2_2  and  O1_3 
REMARK    2  A    between atoms: O1_3  and  C3_4 
REMARK    3  A    between atoms: C7_8  and  N1_9 
REMARK    4  A    between atoms: N1_9  and  C8_10 
REMARK    5  A    between atoms: C15_17  and  N2_18 
REMARK    6  A    between atoms: N2_18  and  C16_19 
REMARK    7  A    between atoms: C16_19  and  C18_21 
REMARK    8  A    between atoms: C18_21  and  N3_22 
REMARK    9  A    between atoms: N3_22  and  C20_24 
ROOT
HETATM    1  C3  UNL     1      23.738   1.117  52.715  1.00  0.00     0.091 A 
HETATM    2  C4  UNL     1      22.913   1.126  51.687  1.00  0.00     0.017 A 
HETATM    3  C5  UNL     1      22.904   1.916  50.439  1.00  0.00     0.070 A 
HETATM    4  C6  UNL     1      24.077   2.825  50.460  1.00  0.00    -0.037 A 
HETATM    5  C7  UNL     1      24.257   3.629  49.422  1.00  0.00     0.095 C 
HETATM    6  C14 UNL     1      25.017   2.856  51.565  1.00  0.00     0.040 A 
HETATM    7  C15 UNL     1      24.858   2.064  52.608  1.00  0.00     0.062 A 
ENDROOT
BRANCH   5   8
HETATM    8  N1  UNL     1      25.325   4.537  49.312  1.00  0.00    -0.365 N 
HETATM    9  H10 UNL     1      26.259   4.207  49.008  1.00  0.00     0.165 HD
BRANCH   8  10
HETATM   10  C8  UNL     1      25.234   5.915  49.592  1.00  0.00     0.031 A 
HETATM   11  C9  UNL     1      24.160   6.523  50.226  1.00  0.00     0.029 A 
HETATM   12  C10 UNL     1      24.075   7.862  50.497  1.00  0.00     0.002 A 
HETATM   13  C11 UNL     1      25.106   8.700  50.128  1.00  0.00     0.000 A 
HETATM   14  C12 UNL     1      26.203   8.161  49.492  1.00  0.00     0.002 A 
HETATM   15  C13 UNL     1      26.233   6.804  49.247  1.00  0.00     0.029 A 
ENDBRANCH   8  10
ENDBRANCH   5   8
BRANCH   7  16
HETATM   16  N2  UNL     1      25.779   2.084  53.710  1.00  0.00    -0.382 N 
HETATM   17  H17 UNL     1      25.715   2.497  54.668  1.00  0.00     0.160 HD
BRANCH  16  18
HETATM   18  C16 UNL     1      26.980   1.392  53.350  1.00  0.00     0.095 C 
HETATM   19  C17 UNL     1      28.135   2.362  53.621  1.00  0.00     0.034 C 
BRANCH  18  20
HETATM   20  C18 UNL     1      27.265   0.172  54.170  1.00  0.00     0.149 C 
BRANCH  20  21
HETATM   21  N3  UNL     1      27.805  -0.933  53.433  1.00  0.00    -0.362 N 
HETATM   22  C19 UNL     1      26.968  -1.815  52.620  1.00  0.00     0.152 C 
BRANCH  21  23
HETATM   23  C20 UNL     1      29.145  -1.373  53.340  1.00  0.00     0.350 C 
HETATM   24  O2  UNL     1      30.267  -0.781  53.491  1.00  0.00    -0.284 OA
ENDBRANCH  21  23
ENDBRANCH  20  21
ENDBRANCH  18  20
ENDBRANCH  16  18
ENDBRANCH   7  16
BRANCH   1  25
HETATM   25  O1  UNL     1      23.589   0.292  53.823  1.00  0.00    -0.349 OA
BRANCH  25  26
HETATM   26  C2  UNL     1      22.616  -0.755  53.850  1.00  0.00     0.171 C 
HETATM   27  C1  UNL     1      21.502  -0.308  54.772  1.00  0.00     0.034 C 
ENDBRANCH  25  26
ENDBRANCH   1  25
TORSDOF 9
ENDMDL
MODEL 9
REMARK VINA RESULT:      -6.3      2.388      6.536
REMARK  9 active torsions:
REMARK  status: ('A' for Active; 'I' for Inactive)
REMARK    1  A    between atoms: C2_2  and  O1_3 
REMARK    2  A    between atoms: O1_3  and  C3_4 
REMARK    3  A    between atoms: C7_8  and  N1_9 
REMARK    4  A    between atoms: N1_9  and  C8_10 
REMARK    5  A    between atoms: C15_17  and  N2_18 
REMARK    6  A    between atoms: N2_18  and  C16_19 
REMARK    7  A    between atoms: C16_19  and  C18_21 
REMARK    8  A    between atoms: C18_21  and  N3_22 
REMARK    9  A    between atoms: N3_22  and  C20_24 
ROOT
HETATM    1  C3  UNL     1      25.962   2.369  51.485  1.00  0.00     0.091 A 
HETATM    2  C4  UNL     1      26.218   1.107  51.771  1.00  0.00     0.017 A 
HETATM    3  C5  UNL     1      25.425   0.077  52.472  1.00  0.00     0.070 A 
HETATM    4  C6  UNL     1      24.134   0.686  52.880  1.00  0.00    -0.037 A 
HETATM    5  C7  UNL     1      23.267  -0.077  53.530  1.00  0.00     0.095 C 
HETATM    6  C14 UNL     1      23.801   2.068  52.591  1.00  0.00     0.040 A 
HETATM    7  C15 UNL     1      24.649   2.846  51.946  1.00  0.00     0.062 A 
ENDROOT
BRANCH   5   8
HETATM    8  N1  UNL     1      22.010   0.372  53.972  1.00  0.00    -0.365 N 
HETATM    9  H10 UNL     1      21.938   0.960  54.823  1.00  0.00     0.165 HD
BRANCH   8  10
HETATM   10  C8  UNL     1      20.787   0.080  53.335  1.00  0.00     0.031 A 
HETATM   11  C9  UNL     1      19.856  -0.839  53.797  1.00  0.00     0.029 A 
HETATM   12  C10 UNL     1      18.669  -1.119  53.175  1.00  0.00     0.002 A 
HETATM   13  C11 UNL     1      18.339  -0.467  52.006  1.00  0.00     0.000 A 
HETATM   14  C12 UNL     1      19.221   0.458  51.492  1.00  0.00     0.002 A 
HETATM   15  C13 UNL     1      20.403   0.700  52.162  1.00  0.00     0.029 A 
ENDBRANCH   8  10
ENDBRANCH   5   8
BRANCH   7  16
HETATM   16  N2  UNL     1      24.334   4.217  51.654  1.00  0.00    -0.382 N 
HETATM   17  H17 UNL     1      24.835   5.109  51.864  1.00  0.00     0.160 HD
BRANCH  16  18
HETATM   18  C16 UNL     1      23.092   4.287  50.944  1.00  0.00     0.095 C 
HETATM   19  C17 UNL     1      22.474   5.646  51.292  1.00  0.00     0.034 C 
BRANCH  18  20
HETATM   20  C18 UNL     1      23.226   4.265  49.453  1.00  0.00     0.149 C 
BRANCH  20  21
HETATM   21  N3  UNL     1      22.340   3.356  48.785  1.00  0.00    -0.362 N 
HETATM   22  C19 UNL     1      21.226   3.815  47.956  1.00  0.00     0.152 C 
BRANCH  21  23
HETATM   23  C20 UNL     1      22.350   1.943  48.783  1.00  0.00     0.350 C 
HETATM   24  O2  UNL     1      21.420   1.066  48.794  1.00  0.00    -0.284 OA
ENDBRANCH  21  23
ENDBRANCH  20  21
ENDBRANCH  18  20
ENDBRANCH  16  18
ENDBRANCH   7  16
BRANCH   1  25
HETATM   25  O1  UNL     1      26.841   3.205  50.807  1.00  0.00    -0.349 OA
BRANCH  25  26
HETATM   26  C2  UNL     1      26.817   3.315  49.382  1.00  0.00     0.171 C 
HETATM   27  C1  UNL     1      27.018   4.777  49.043  1.00  0.00     0.034 C 
ENDBRANCH  25  26
ENDBRANCH   1  25
TORSDOF 9
ENDMDL
