MODEL 1
REMARK VINA RESULT:      -9.5      0.000      0.000
REMARK  2 active torsions:
REMARK  status: ('A' for Active; 'I' for Inactive)
REMARK    1  A    between atoms: C3_5  and  C4_6 
REMARK    2  A    between atoms: C14_16  and  C15_17 
ROOT
HETATM    1  O1  UNL     1      22.821  -1.901  55.720  1.00  0.00    -0.268 OA
HETATM    2  C1  UNL     1      23.415  -1.113  54.922  1.00  0.00     0.253 C 
HETATM    3  N1  UNL     1      24.796  -0.688  54.736  1.00  0.00    -0.344 N 
HETATM    4  C2  UNL     1      24.776  -0.275  53.406  1.00  0.00     0.153 C 
HETATM    5  C3  UNL     1      25.931   0.259  52.727  1.00  0.00    -0.021 C 
HETATM    6  C10 UNL     1      25.864   1.186  51.786  1.00  0.00     0.010 C 
HETATM    7  C11 UNL     1      24.581   1.731  51.414  1.00  0.00     0.001 C 
HETATM    8  C12 UNL     1      23.536   1.288  52.080  1.00  0.00     0.011 C 
HETATM    9  C13 UNL     1      23.452   0.346  53.159  1.00  0.00    -0.015 C 
HETATM   10  C14 UNL     1      22.636  -0.392  53.890  1.00  0.00     0.046 C 
HETATM   11  H1  UNL     1      25.279  -0.850  55.680  1.00  0.00     0.163 HD
ENDROOT
BRANCH   5  12
HETATM   12  C4  UNL     1      27.264  -0.206  53.050  1.00  0.00    -0.028 A 
HETATM   13  C5  UNL     1      28.253   0.646  53.486  1.00  0.00     0.012 A 
HETATM   14  C6  UNL     1      29.545   0.268  53.775  1.00  0.00     0.001 A 
HETATM   15  C7  UNL     1      29.928  -1.052  53.632  1.00  0.00     0.000 A 
HETATM   16  C8  UNL     1      28.979  -1.947  53.199  1.00  0.00     0.001 A 
HETATM   17  C9  UNL     1      27.717  -1.502  52.930  1.00  0.00     0.012 A 
ENDBRANCH   5  12
BRANCH  10  18
HETATM   18  C15 UNL     1      21.181  -0.392  53.604  1.00  0.00    -0.045 A 
HETATM   19  C16 UNL     1      20.301   0.404  53.134  1.00  0.00    -0.018 A 
HETATM   20  C17 UNL     1      19.206  -0.535  53.270  1.00  0.00     0.032 A 
HETATM   21  C18 UNL     1      20.226  -1.472  53.820  1.00  0.00     0.043 A 
ENDBRANCH  10  18
TORSDOF 2
ENDMDL
MODEL 2
REMARK VINA RESULT:      -8.9      3.448      5.263
REMARK  2 active torsions:
REMARK  status: ('A' for Active; 'I' for Inactive)
REMARK    1  A    between atoms: C3_5  and  C4_6 
REMARK    2  A    between atoms: C14_16  and  C15_17 
ROOT
HETATM    1  O1  UNL     1      25.815   2.071  54.270  1.00  0.00    -0.268 OA
HETATM    2  C1  UNL     1      25.211   2.354  53.191  1.00  0.00     0.253 C 
HETATM    3  N1  UNL     1      25.350   3.390  52.177  1.00  0.00    -0.344 N 
HETATM    4  C2  UNL     1      24.749   2.779  51.079  1.00  0.00     0.153 C 
HETATM    5  C3  UNL     1      24.618   3.418  49.793  1.00  0.00    -0.021 C 
HETATM    6  C10 UNL     1      23.600   3.214  48.974  1.00  0.00     0.010 C 
HETATM    7  C11 UNL     1      22.532   2.328  49.372  1.00  0.00     0.001 C 
HETATM    8  C12 UNL     1      22.623   1.797  50.573  1.00  0.00     0.011 C 
HETATM    9  C13 UNL     1      23.618   1.969  51.593  1.00  0.00    -0.015 C 
HETATM   10  C14 UNL     1      24.077   1.512  52.745  1.00  0.00     0.046 C 
HETATM   11  H1  UNL     1      25.846   4.207  52.664  1.00  0.00     0.163 HD
ENDROOT
BRANCH   5  12
HETATM   12  C4  UNL     1      25.624   4.343  49.317  1.00  0.00    -0.028 A 
HETATM   13  C5  UNL     1      25.323   5.640  48.965  1.00  0.00     0.012 A 
HETATM   14  C6  UNL     1      26.229   6.552  48.474  1.00  0.00     0.001 A 
HETATM   15  C7  UNL     1      27.551   6.190  48.303  1.00  0.00     0.000 A 
HETATM   16  C8  UNL     1      27.910   4.906  48.639  1.00  0.00     0.001 A 
HETATM   17  C9  UNL     1      26.957   4.054  49.119  1.00  0.00     0.012 A 
ENDBRANCH   5  12
BRANCH  10  18
HETATM   18  C15 UNL     1      23.446   0.329  53.376  1.00  0.00    -0.045 A 
HETATM   19  C16 UNL     1      23.766  -0.862  53.705  1.00  0.00    -0.018 A 
HETATM   20  C17 UNL     1      22.462  -1.192  54.242  1.00  0.00     0.032 A 
HETATM   21  C18 UNL     1      22.078   0.196  53.861  1.00  0.00     0.043 A 
ENDBRANCH  10  18
TORSDOF 2
ENDMDL
MODEL 3
REMARK VINA RESULT:      -8.7      1.993      6.760
REMARK  2 active torsions:
REMARK  status: ('A' for Active; 'I' for Inactive)
REMARK    1  A    between atoms: C3_5  and  C4_6 
REMARK    2  A    between atoms: C14_16  and  C15_17 
ROOT
HETATM    1  O1  UNL     1      26.530   1.610  51.238  1.00  0.00    -0.268 OA
HETATM    2  C1  UNL     1      25.743   1.112  52.099  1.00  0.00     0.253 C 
HETATM    3  N1  UNL     1      24.303   1.146  52.315  1.00  0.00    -0.344 N 
HETATM    4  C2  UNL     1      24.113  -0.008  53.072  1.00  0.00     0.153 C 
HETATM    5  C3  UNL     1      22.825  -0.429  53.563  1.00  0.00    -0.021 C 
HETATM    6  C10 UNL     1      22.650  -1.066  54.709  1.00  0.00     0.010 C 
HETATM    7  C11 UNL     1      23.790  -1.350  55.547  1.00  0.00     0.001 C 
HETATM    8  C12 UNL     1      24.956  -0.908  55.126  1.00  0.00     0.011 C 
HETATM    9  C13 UNL     1      25.297  -0.152  53.954  1.00  0.00    -0.015 C 
HETATM   10  C14 UNL     1      26.288   0.282  53.197  1.00  0.00     0.046 C 
HETATM   11  H1  UNL     1      23.956   2.033  51.821  1.00  0.00     0.163 HD
ENDROOT
BRANCH   5  12
HETATM   12  C4  UNL     1      21.619  -0.167  52.806  1.00  0.00    -0.028 A 
HETATM   13  C5  UNL     1      20.363  -0.401  53.320  1.00  0.00     0.012 A 
HETATM   14  C6  UNL     1      19.185  -0.204  52.636  1.00  0.00     0.001 A 
HETATM   15  C7  UNL     1      19.210   0.262  51.335  1.00  0.00     0.000 A 
HETATM   16  C8  UNL     1      20.438   0.513  50.771  1.00  0.00     0.001 A 
HETATM   17  C9  UNL     1      21.566   0.294  51.509  1.00  0.00     0.012 A 
ENDBRANCH   5  12
BRANCH  10  18
HETATM   18  C15 UNL     1      27.686  -0.086  53.526  1.00  0.00    -0.045 A 
HETATM   19  C16 UNL     1      28.677   0.402  54.165  1.00  0.00    -0.018 A 
HETATM   20  C17 UNL     1      29.558  -0.715  53.891  1.00  0.00     0.032 A 
HETATM   21  C18 UNL     1      28.408  -1.294  53.143  1.00  0.00     0.043 A 
ENDBRANCH  10  18
TORSDOF 2
ENDMDL
MODEL 4
REMARK VINA RESULT:      -8.5      2.775      4.180
REMARK  2 active torsions:
REMARK  status: ('A' for Active; 'I' for Inactive)
REMARK    1  A    between atoms: C3_5  and  C4_6 
REMARK    2  A    between atoms: C14_16  and  C15_17 
ROOT
HETATM    1  O1  UNL     1      26.185   3.970  50.218  1.00  0.00    -0.268 OA
HETATM    2  C1  UNL     1      25.810   2.934  50.846  1.00  0.00     0.253 C 
HETATM    3  N1  UNL     1      26.431   1.664  51.196  1.00  0.00    -0.344 N 
HETATM    4  C2  UNL     1      25.665   1.280  52.295  1.00  0.00     0.153 C 
HETATM    5  C3  UNL     1      25.880   0.051  53.017  1.00  0.00    -0.021 C 
HETATM    6  C10 UNL     1      24.909  -0.643  53.586  1.00  0.00     0.010 C 
HETATM    7  C11 UNL     1      23.545  -0.183  53.475  1.00  0.00     0.001 C 
HETATM    8  C12 UNL     1      23.346   0.905  52.762  1.00  0.00     0.011 C 
HETATM    9  C13 UNL     1      24.274   1.723  52.035  1.00  0.00    -0.015 C 
HETATM   10  C14 UNL     1      24.440   2.872  51.404  1.00  0.00     0.046 C 
HETATM   11  H1  UNL     1      27.218   1.519  50.482  1.00  0.00     0.163 HD
ENDROOT
BRANCH   5  12
HETATM   12  C4  UNL     1      27.209  -0.505  53.160  1.00  0.00    -0.028 A 
HETATM   13  C5  UNL     1      27.499  -1.811  52.831  1.00  0.00     0.012 A 
HETATM   14  C6  UNL     1      28.732  -2.402  52.978  1.00  0.00     0.001 A 
HETATM   15  C7  UNL     1      29.791  -1.677  53.489  1.00  0.00     0.000 A 
HETATM   16  C8  UNL     1      29.559  -0.367  53.835  1.00  0.00     0.001 A 
HETATM   17  C9  UNL     1      28.309   0.155  53.662  1.00  0.00     0.012 A 
ENDBRANCH   5  12
BRANCH  10  18
HETATM   18  C15 UNL     1      23.327   3.850  51.342  1.00  0.00    -0.045 A 
HETATM   19  C16 UNL     1      22.454   4.252  50.502  1.00  0.00    -0.018 A 
HETATM   20  C17 UNL     1      21.854   5.213  51.405  1.00  0.00     0.032 A 
HETATM   21  C18 UNL     1      22.868   4.751  52.392  1.00  0.00     0.043 A 
ENDBRANCH  10  18
TORSDOF 2
ENDMDL
MODEL 5
REMARK VINA RESULT:      -8.4      2.428      3.287
REMARK  2 active torsions:
REMARK  status: ('A' for Active; 'I' for Inactive)
REMARK    1  A    between atoms: C3_5  and  C4_6 
REMARK    2  A    between atoms: C14_16  and  C15_17 
ROOT
HETATM    1  O1  UNL     1      24.155   3.243  50.452  1.00  0.00    -0.268 OA
HETATM    2  C1  UNL     1      24.097   2.259  51.250  1.00  0.00     0.253 C 
HETATM    3  N1  UNL     1      25.041   1.245  51.700  1.00  0.00    -0.344 N 
HETATM    4  C2  UNL     1      24.475   0.866  52.915  1.00  0.00     0.153 C 
HETATM    5  C3  UNL     1      25.041  -0.149  53.769  1.00  0.00    -0.021 C 
HETATM    6  C10 UNL     1      24.318  -0.957  54.525  1.00  0.00     0.010 C 
HETATM    7  C11 UNL     1      22.879  -0.859  54.499  1.00  0.00     0.001 C 
HETATM    8  C12 UNL     1      22.362   0.025  53.670  1.00  0.00     0.011 C 
HETATM    9  C13 UNL     1      23.002   0.918  52.746  1.00  0.00    -0.015 C 
HETATM   10  C14 UNL     1      22.829   1.959  51.952  1.00  0.00     0.046 C 
HETATM   11  H1  UNL     1      25.787   1.183  50.932  1.00  0.00     0.163 HD
ENDROOT
BRANCH   5  12
HETATM   12  C4  UNL     1      26.474  -0.342  53.843  1.00  0.00    -0.028 A 
HETATM   13  C5  UNL     1      27.265   0.355  54.730  1.00  0.00     0.012 A 
HETATM   14  C6  UNL     1      28.633   0.238  54.822  1.00  0.00     0.001 A 
HETATM   15  C7  UNL     1      29.311  -0.627  53.985  1.00  0.00     0.000 A 
HETATM   16  C8  UNL     1      28.572  -1.349  53.079  1.00  0.00     0.001 A 
HETATM   17  C9  UNL     1      27.217  -1.182  53.043  1.00  0.00     0.012 A 
ENDBRANCH   5  12
BRANCH  10  18
HETATM   18  C15 UNL     1      21.504   2.621  51.878  1.00  0.00    -0.045 A 
HETATM   19  C16 UNL     1      20.969   3.727  52.224  1.00  0.00    -0.018 A 
HETATM   20  C17 UNL     1      19.657   3.391  51.708  1.00  0.00     0.032 A 
HETATM   21  C18 UNL     1      20.272   2.097  51.301  1.00  0.00     0.043 A 
ENDBRANCH  10  18
TORSDOF 2
ENDMDL
MODEL 6
REMARK VINA RESULT:      -8.2      3.150      4.993
REMARK  2 active torsions:
REMARK  status: ('A' for Active; 'I' for Inactive)
REMARK    1  A    between atoms: C3_5  and  C4_6 
REMARK    2  A    between atoms: C14_16  and  C15_17 
ROOT
HETATM    1  O1  UNL     1      20.936   2.190  51.558  1.00  0.00    -0.268 OA
HETATM    2  C1  UNL     1      22.188   2.013  51.461  1.00  0.00     0.253 C 
HETATM    3  N1  UNL     1      23.244   2.575  50.631  1.00  0.00    -0.344 N 
HETATM    4  C2  UNL     1      24.369   2.330  51.416  1.00  0.00     0.153 C 
HETATM    5  C3  UNL     1      25.705   2.697  51.020  1.00  0.00    -0.021 C 
HETATM    6  C10 UNL     1      26.782   2.002  51.344  1.00  0.00     0.010 C 
HETATM    7  C11 UNL     1      26.642   0.791  52.116  1.00  0.00     0.001 C 
HETATM    8  C12 UNL     1      25.416   0.424  52.422  1.00  0.00     0.011 C 
HETATM    9  C13 UNL     1      24.155   1.027  52.091  1.00  0.00    -0.015 C 
HETATM   10  C14 UNL     1      22.858   1.029  52.342  1.00  0.00     0.046 C 
HETATM   11  H1  UNL     1      22.755   2.947  49.752  1.00  0.00     0.163 HD
ENDROOT
BRANCH   5  12
HETATM   12  C4  UNL     1      25.945   3.881  50.222  1.00  0.00    -0.028 A 
HETATM   13  C5  UNL     1      27.001   3.973  49.342  1.00  0.00     0.012 A 
HETATM   14  C6  UNL     1      27.298   5.083  48.585  1.00  0.00     0.001 A 
HETATM   15  C7  UNL     1      26.510   6.214  48.677  1.00  0.00     0.000 A 
HETATM   16  C8  UNL     1      25.441   6.179  49.540  1.00  0.00     0.001 A 
HETATM   17  C9  UNL     1      25.206   5.044  50.261  1.00  0.00     0.012 A 
ENDBRANCH   5  12
BRANCH  10  18
HETATM   18  C15 UNL     1      22.303   0.122  53.375  1.00  0.00    -0.045 A 
HETATM   19  C16 UNL     1      22.557  -1.024  53.876  1.00  0.00    -0.018 A 
HETATM   20  C17 UNL     1      21.440  -1.001  54.799  1.00  0.00     0.032 A 
HETATM   21  C18 UNL     1      21.135   0.338  54.221  1.00  0.00     0.043 A 
ENDBRANCH  10  18
TORSDOF 2
ENDMDL
MODEL 7
REMARK VINA RESULT:      -8.1      2.197      7.239
REMARK  2 active torsions:
REMARK  status: ('A' for Active; 'I' for Inactive)
REMARK    1  A    between atoms: C3_5  and  C4_6 
REMARK    2  A    between atoms: C14_16  and  C15_17 
ROOT
HETATM    1  O1  UNL     1      24.245   2.238  50.891  1.00  0.00    -0.268 OA
HETATM    2  C1  UNL     1      23.599   1.543  51.732  1.00  0.00     0.253 C 
HETATM    3  N1  UNL     1      22.188   1.361  52.047  1.00  0.00    -0.344 N 
HETATM    4  C2  UNL     1      22.206   0.111  52.663  1.00  0.00     0.153 C 
HETATM    5  C3  UNL     1      21.024  -0.531  53.183  1.00  0.00    -0.021 C 
HETATM    6  C10 UNL     1      21.024  -1.315  54.247  1.00  0.00     0.010 C 
HETATM    7  C11 UNL     1      22.256  -1.542  54.964  1.00  0.00     0.001 C 
HETATM    8  C12 UNL     1      23.321  -0.904  54.525  1.00  0.00     0.011 C 
HETATM    9  C13 UNL     1      23.467   0.022  53.438  1.00  0.00    -0.015 C 
HETATM   10  C14 UNL     1      24.332   0.669  52.677  1.00  0.00     0.046 C 
HETATM   11  H1  UNL     1      21.696   2.246  51.695  1.00  0.00     0.163 HD
ENDROOT
BRANCH   5  12
HETATM   12  C4  UNL     1      19.736  -0.343  52.548  1.00  0.00    -0.028 A 
HETATM   13  C5  UNL     1      18.567  -0.808  53.107  1.00  0.00     0.012 A 
HETATM   14  C6  UNL     1      17.321  -0.689  52.534  1.00  0.00     0.001 A 
HETATM   15  C7  UNL     1      17.180  -0.067  51.308  1.00  0.00     0.000 A 
HETATM   16  C8  UNL     1      18.315   0.416  50.703  1.00  0.00     0.001 A 
HETATM   17  C9  UNL     1      19.519   0.263  51.329  1.00  0.00     0.012 A 
ENDBRANCH   5  12
BRANCH  10  18
HETATM   18  C15 UNL     1      25.787   0.453  52.862  1.00  0.00    -0.045 A 
HETATM   19  C16 UNL     1      26.767  -0.048  52.216  1.00  0.00    -0.018 A 
HETATM   20  C17 UNL     1      27.744   0.226  53.250  1.00  0.00     0.032 A 
HETATM   21  C18 UNL     1      26.606   0.812  54.013  1.00  0.00     0.043 A 
ENDBRANCH  10  18
TORSDOF 2
ENDMDL
MODEL 8
REMARK VINA RESULT:      -8.0      3.789      5.564
REMARK  2 active torsions:
REMARK  status: ('A' for Active; 'I' for Inactive)
REMARK    1  A    between atoms: C3_5  and  C4_6 
REMARK    2  A    between atoms: C14_16  and  C15_17 
ROOT
HETATM    1  O1  UNL     1      27.055   4.783  48.729  1.00  0.00    -0.268 OA
HETATM    2  C1  UNL     1      26.407   3.910  49.381  1.00  0.00     0.253 C 
HETATM    3  N1  UNL     1      26.763   2.715  50.134  1.00  0.00    -0.344 N 
HETATM    4  C2  UNL     1      25.665   2.590  50.982  1.00  0.00     0.153 C 
HETATM    5  C3  UNL     1      25.526   1.525  51.944  1.00  0.00    -0.021 C 
HETATM    6  C10 UNL     1      24.365   0.996  52.290  1.00  0.00     0.010 C 
HETATM    7  C11 UNL     1      23.152   1.474  51.670  1.00  0.00     0.001 C 
HETATM    8  C12 UNL     1      23.288   2.402  50.746  1.00  0.00     0.011 C 
HETATM    9  C13 UNL     1      24.470   3.022  50.218  1.00  0.00    -0.015 C 
HETATM   10  C14 UNL     1      24.932   4.012  49.475  1.00  0.00     0.046 C 
HETATM   11  H1  UNL     1      27.712   2.400  49.746  1.00  0.00     0.163 HD
ENDROOT
BRANCH   5  12
HETATM   12  C4  UNL     1      26.687   0.961  52.601  1.00  0.00    -0.028 A 
HETATM   13  C5  UNL     1      26.995  -0.380  52.527  1.00  0.00     0.012 A 
HETATM   14  C6  UNL     1      28.062  -0.976  53.156  1.00  0.00     0.001 A 
HETATM   15  C7  UNL     1      28.919  -0.220  53.933  1.00  0.00     0.000 A 
HETATM   16  C8  UNL     1      28.660   1.125  54.042  1.00  0.00     0.001 A 
HETATM   17  C9  UNL     1      27.582   1.650  53.390  1.00  0.00     0.012 A 
ENDBRANCH   5  12
BRANCH  10  18
HETATM   18  C15 UNL     1      23.993   4.998  48.888  1.00  0.00    -0.045 A 
HETATM   19  C16 UNL     1      23.783   6.256  48.925  1.00  0.00    -0.018 A 
HETATM   20  C17 UNL     1      22.653   6.215  48.019  1.00  0.00     0.032 A 
HETATM   21  C18 UNL     1      22.890   4.745  47.969  1.00  0.00     0.043 A 
ENDBRANCH  10  18
TORSDOF 2
ENDMDL
MODEL 9
REMARK VINA RESULT:      -7.8      3.106      6.147
REMARK  2 active torsions:
REMARK  status: ('A' for Active; 'I' for Inactive)
REMARK    1  A    between atoms: C3_5  and  C4_6 
REMARK    2  A    between atoms: C14_16  and  C15_17 
ROOT
HETATM    1  O1  UNL     1      22.276   4.971  51.568  1.00  0.00    -0.268 OA
HETATM    2  C1  UNL     1      23.128   4.058  51.786  1.00  0.00     0.253 C 
HETATM    3  N1  UNL     1      23.197   2.910  52.680  1.00  0.00    -0.344 N 
HETATM    4  C2  UNL     1      24.113   2.100  52.013  1.00  0.00     0.153 C 
HETATM    5  C3  UNL     1      24.543   0.816  52.510  1.00  0.00    -0.021 C 
HETATM    6  C10 UNL     1      25.756   0.326  52.320  1.00  0.00     0.010 C 
HETATM    7  C11 UNL     1      26.734   1.105  51.600  1.00  0.00     0.001 C 
HETATM    8  C12 UNL     1      26.359   2.302  51.203  1.00  0.00     0.011 C 
HETATM    9  C13 UNL     1      25.116   2.996  51.387  1.00  0.00    -0.015 C 
HETATM   10  C14 UNL     1      24.396   4.041  51.020  1.00  0.00     0.046 C 
HETATM   11  H1  UNL     1      22.533   3.134  53.491  1.00  0.00     0.163 HD
ENDROOT
BRANCH   5  12
HETATM   12  C4  UNL     1      23.641  -0.027  53.266  1.00  0.00    -0.028 A 
HETATM   13  C5  UNL     1      22.358  -0.296  52.845  1.00  0.00     0.012 A 
HETATM   14  C6  UNL     1      21.448  -1.060  53.538  1.00  0.00     0.001 A 
HETATM   15  C7  UNL     1      21.796  -1.621  54.751  1.00  0.00     0.000 A 
HETATM   16  C8  UNL     1      23.066  -1.387  55.221  1.00  0.00     0.001 A 
HETATM   17  C9  UNL     1      23.918  -0.618  54.480  1.00  0.00     0.012 A 
ENDBRANCH   5  12
BRANCH  10  18
HETATM   18  C15 UNL     1      24.912   4.971  49.988  1.00  0.00    -0.045 A 
HETATM   19  C16 UNL     1      25.947   5.689  49.782  1.00  0.00    -0.018 A 
HETATM   20  C17 UNL     1      25.482   6.206  48.511  1.00  0.00     0.032 A 
HETATM   21  C18 UNL     1      24.270   5.372  48.742  1.00  0.00     0.043 A 
ENDBRANCH  10  18
TORSDOF 2
ENDMDL
