MODEL 1
REMARK VINA RESULT:      -8.6      0.000      0.000
REMARK  5 active torsions:
REMARK  status: ('A' for Active; 'I' for Inactive)
REMARK    1  A    between atoms: C2_3  and  C3_4 
REMARK       I    between atoms: C3_4  and  N2_6 
REMARK    2  A    between atoms: N2_6  and  C4_7 
REMARK    3  A    between atoms: C4_7  and  C5_8 
REMARK    4  A    between atoms: C14_17  and  O2_18 
REMARK    5  A    between atoms: C15_19  and  O3_20 
ROOT
HETATM    1  N1  UNL     1      22.718  -1.741  55.331  1.00  0.00    -0.191 NA
HETATM    2  C1  UNL     1      22.622  -0.911  54.483  1.00  0.00     0.105 C 
HETATM    3  C2  UNL     1      22.528   0.120  53.428  1.00  0.00     0.115 C 
HETATM    4  C11 UNL     1      23.713   0.534  52.964  1.00  0.00    -0.047 C 
HETATM    5  C12 UNL     1      23.662   1.554  51.920  1.00  0.00     0.066 C 
HETATM    6  C13 UNL     1      24.987   2.113  51.518  1.00  0.00     0.017 C 
HETATM    7  C14 UNL     1      26.170   2.318  52.082  1.00  0.00     0.095 C 
HETATM    8  C15 UNL     1      26.397   1.944  53.483  1.00  0.00     0.095 C 
HETATM    9  C16 UNL     1      25.859   0.900  54.137  1.00  0.00     0.017 C 
HETATM   10  C17 UNL     1      24.911  -0.098  53.558  1.00  0.00     0.066 C 
ENDROOT
BRANCH   3  11
HETATM   11  C3  UNL     1      21.078   0.340  53.233  1.00  0.00     0.262 C 
HETATM   12  O1  UNL     1      20.456   1.429  52.981  1.00  0.00    -0.267 OA
HETATM   13  N2  UNL     1      20.041  -0.604  53.283  1.00  0.00    -0.352 N 
HETATM   14  H1  UNL     1      20.266  -1.607  53.482  1.00  0.00     0.163 HD
BRANCH  13  15
HETATM   15  C4  UNL     1      18.645  -0.376  53.097  1.00  0.00     0.161 C 
BRANCH  15  16
HETATM   16  C5  UNL     1      17.801  -1.592  53.138  1.00  0.00    -0.041 A 
HETATM   17  C6  UNL     1      17.980  -2.827  53.721  1.00  0.00     0.009 A 
HETATM   18  C7  UNL     1      17.019  -3.789  53.590  1.00  0.00     0.001 A 
HETATM   19  C8  UNL     1      15.828  -3.648  52.900  1.00  0.00     0.000 A 
HETATM   20  C9  UNL     1      15.661  -2.388  52.314  1.00  0.00     0.001 A 
HETATM   21  C10 UNL     1      16.607  -1.401  52.427  1.00  0.00     0.009 A 
ENDBRANCH  15  16
ENDBRANCH  13  15
ENDBRANCH   3  11
BRANCH   7  22
HETATM   22  O2  UNL     1      27.283   2.882  51.455  1.00  0.00    -0.358 OA
HETATM   23  H12 UNL     1      27.090   3.428  50.622  1.00  0.00     0.217 HD
ENDBRANCH   7  22
BRANCH   8  24
HETATM   24  O3  UNL     1      27.271   2.772  54.201  1.00  0.00    -0.358 OA
HETATM   25  H13 UNL     1      27.732   3.555  53.789  1.00  0.00     0.217 HD
ENDBRANCH   8  24
TORSDOF 5
ENDMDL
MODEL 2
REMARK VINA RESULT:      -8.3      4.578      8.412
REMARK  5 active torsions:
REMARK  status: ('A' for Active; 'I' for Inactive)
REMARK    1  A    between atoms: C2_3  and  C3_4 
REMARK       I    between atoms: C3_4  and  N2_6 
REMARK    2  A    between atoms: N2_6  and  C4_7 
REMARK    3  A    between atoms: C4_7  and  C5_8 
REMARK    4  A    between atoms: C14_17  and  O2_18 
REMARK    5  A    between atoms: C15_19  and  O3_20 
ROOT
HETATM    1  N1  UNL     1      20.969   2.392  52.448  1.00  0.00    -0.191 NA
HETATM    2  C1  UNL     1      22.122   2.461  52.158  1.00  0.00     0.105 C 
HETATM    3  C2  UNL     1      23.557   2.521  51.807  1.00  0.00     0.115 C 
HETATM    4  C11 UNL     1      24.225   1.386  52.047  1.00  0.00    -0.047 C 
HETATM    5  C12 UNL     1      25.646   1.406  51.713  1.00  0.00     0.066 C 
HETATM    6  C13 UNL     1      26.409   0.190  52.122  1.00  0.00     0.017 C 
HETATM    7  C14 UNL     1      26.335  -0.733  53.073  1.00  0.00     0.095 C 
HETATM    8  C15 UNL     1      25.264  -0.679  54.076  1.00  0.00     0.095 C 
HETATM    9  C16 UNL     1      24.004  -0.250  53.888  1.00  0.00     0.017 C 
HETATM   10  C17 UNL     1      23.439   0.264  52.605  1.00  0.00     0.066 C 
ENDROOT
BRANCH   3  11
HETATM   11  C3  UNL     1      23.765   3.885  51.274  1.00  0.00     0.262 C 
HETATM   12  O1  UNL     1      23.500   5.011  51.819  1.00  0.00    -0.267 OA
HETATM   13  N2  UNL     1      24.305   4.261  50.034  1.00  0.00    -0.352 N 
HETATM   14  H1  UNL     1      24.615   3.521  49.361  1.00  0.00     0.163 HD
BRANCH  13  15
HETATM   15  C4  UNL     1      24.496   5.582  49.531  1.00  0.00     0.161 C 
BRANCH  15  16
HETATM   16  C5  UNL     1      25.868   5.880  49.060  1.00  0.00    -0.041 A 
HETATM   17  C6  UNL     1      26.480   7.050  48.666  1.00  0.00     0.009 A 
HETATM   18  C7  UNL     1      27.785   7.035  48.262  1.00  0.00     0.001 A 
HETATM   19  C8  UNL     1      28.595   5.915  48.203  1.00  0.00     0.000 A 
HETATM   20  C9  UNL     1      27.960   4.736  48.607  1.00  0.00     0.001 A 
HETATM   21  C10 UNL     1      26.651   4.719  49.018  1.00  0.00     0.009 A 
ENDBRANCH  15  16
ENDBRANCH  13  15
ENDBRANCH   3  11
BRANCH   7  22
HETATM   22  O2  UNL     1      27.213  -1.806  53.234  1.00  0.00    -0.358 OA
HETATM   23  H12 UNL     1      27.440  -2.321  52.389  1.00  0.00     0.217 HD
ENDBRANCH   7  22
BRANCH   8  24
HETATM   24  O3  UNL     1      25.607  -1.128  55.358  1.00  0.00    -0.358 OA
HETATM   25  H13 UNL     1      26.255  -0.645  55.943  1.00  0.00     0.217 HD
ENDBRANCH   8  24
TORSDOF 5
ENDMDL
MODEL 3
REMARK VINA RESULT:      -8.0      2.753      8.388
REMARK  5 active torsions:
REMARK  status: ('A' for Active; 'I' for Inactive)
REMARK    1  A    between atoms: C2_3  and  C3_4 
REMARK       I    between atoms: C3_4  and  N2_6 
REMARK    2  A    between atoms: N2_6  and  C4_7 
REMARK    3  A    between atoms: C4_7  and  C5_8 
REMARK    4  A    between atoms: C14_17  and  O2_18 
REMARK    5  A    between atoms: C15_19  and  O3_20 
ROOT
HETATM    1  N1  UNL     1      22.872   2.269  49.707  1.00  0.00    -0.191 NA
HETATM    2  C1  UNL     1      22.878   1.781  50.793  1.00  0.00     0.105 C 
HETATM    3  C2  UNL     1      22.865   1.162  52.135  1.00  0.00     0.115 C 
HETATM    4  C11 UNL     1      21.851   0.310  52.332  1.00  0.00    -0.047 C 
HETATM    5  C12 UNL     1      21.802  -0.322  53.647  1.00  0.00     0.066 C 
HETATM    6  C13 UNL     1      20.589  -1.152  53.906  1.00  0.00     0.017 C 
HETATM    7  C14 UNL     1      19.320  -1.172  53.514  1.00  0.00     0.095 C 
HETATM    8  C15 UNL     1      18.821  -0.167  52.568  1.00  0.00     0.095 C 
HETATM    9  C16 UNL     1      19.504   0.400  51.558  1.00  0.00     0.017 C 
HETATM   10  C17 UNL     1      20.924   0.115  51.196  1.00  0.00     0.066 C 
ENDROOT
BRANCH   3  11
HETATM   11  C3  UNL     1      24.046   1.720  52.828  1.00  0.00     0.262 C 
HETATM   12  O1  UNL     1      24.239   2.909  53.258  1.00  0.00    -0.267 OA
HETATM   13  N2  UNL     1      25.239   1.068  53.176  1.00  0.00    -0.352 N 
HETATM   14  H1  UNL     1      25.363   0.056  52.936  1.00  0.00     0.163 HD
BRANCH  13  15
HETATM   15  C4  UNL     1      26.373   1.621  53.842  1.00  0.00     0.161 C 
BRANCH  15  16
HETATM   16  C5  UNL     1      27.616   0.824  53.730  1.00  0.00    -0.041 A 
HETATM   17  C6  UNL     1      28.942   1.142  53.925  1.00  0.00     0.009 A 
HETATM   18  C7  UNL     1      29.906   0.191  53.740  1.00  0.00     0.001 A 
HETATM   19  C8  UNL     1      29.679  -1.119  53.358  1.00  0.00     0.000 A 
HETATM   20  C9  UNL     1      28.328  -1.426  53.164  1.00  0.00     0.001 A 
HETATM   21  C10 UNL     1      27.338  -0.493  53.341  1.00  0.00     0.009 A 
ENDBRANCH  15  16
ENDBRANCH  13  15
ENDBRANCH   3  11
BRANCH   7  22
HETATM   22  O2  UNL     1      18.357  -2.095  53.927  1.00  0.00    -0.358 OA
HETATM   23  H12 UNL     1      18.541  -3.063  53.683  1.00  0.00     0.217 HD
ENDBRANCH   7  22
BRANCH   8  24
HETATM   24  O3  UNL     1      17.490   0.231  52.749  1.00  0.00    -0.358 OA
HETATM   25  H13 UNL     1      16.727  -0.411  52.731  1.00  0.00     0.217 HD
ENDBRANCH   8  24
TORSDOF 5
ENDMDL
MODEL 4
REMARK VINA RESULT:      -8.0      3.907      9.129
REMARK  5 active torsions:
REMARK  status: ('A' for Active; 'I' for Inactive)
REMARK    1  A    between atoms: C2_3  and  C3_4 
REMARK       I    between atoms: C3_4  and  N2_6 
REMARK    2  A    between atoms: N2_6  and  C4_7 
REMARK    3  A    between atoms: C4_7  and  C5_8 
REMARK    4  A    between atoms: C14_17  and  O2_18 
REMARK    5  A    between atoms: C15_19  and  O3_20 
ROOT
HETATM    1  N1  UNL     1      22.081   3.219  49.642  1.00  0.00    -0.191 NA
HETATM    2  C1  UNL     1      22.856   2.657  50.351  1.00  0.00     0.105 C 
HETATM    3  C2  UNL     1      23.799   1.946  51.240  1.00  0.00     0.115 C 
HETATM    4  C11 UNL     1      23.231   0.986  51.980  1.00  0.00    -0.047 C 
HETATM    5  C12 UNL     1      24.130   0.260  52.872  1.00  0.00     0.066 C 
HETATM    6  C13 UNL     1      23.461  -0.702  53.797  1.00  0.00     0.017 C 
HETATM    7  C14 UNL     1      22.283  -0.820  54.396  1.00  0.00     0.095 C 
HETATM    8  C15 UNL     1      21.243   0.196  54.190  1.00  0.00     0.095 C 
HETATM    9  C16 UNL     1      21.012   0.898  53.067  1.00  0.00     0.017 C 
HETATM   10  C17 UNL     1      21.778   0.782  51.791  1.00  0.00     0.066 C 
ENDROOT
BRANCH   3  11
HETATM   11  C3  UNL     1      25.116   2.568  50.980  1.00  0.00     0.262 C 
HETATM   12  O1  UNL     1      26.137   2.637  51.747  1.00  0.00    -0.267 OA
HETATM   13  N2  UNL     1      25.550   3.233  49.824  1.00  0.00    -0.352 N 
HETATM   14  H1  UNL     1      24.899   3.332  49.010  1.00  0.00     0.163 HD
BRANCH  13  15
HETATM   15  C4  UNL     1      26.824   3.832  49.589  1.00  0.00     0.161 C 
BRANCH  15  16
HETATM   16  C5  UNL     1      26.781   5.156  48.927  1.00  0.00    -0.041 A 
HETATM   17  C6  UNL     1      25.757   6.050  48.706  1.00  0.00     0.009 A 
HETATM   18  C7  UNL     1      26.004   7.220  48.046  1.00  0.00     0.001 A 
HETATM   19  C8  UNL     1      27.232   7.621  47.551  1.00  0.00     0.000 A 
HETATM   20  C9  UNL     1      28.262   6.702  47.784  1.00  0.00     0.001 A 
HETATM   21  C10 UNL     1      28.046   5.519  48.443  1.00  0.00     0.009 A 
ENDBRANCH  15  16
ENDBRANCH  13  15
ENDBRANCH   3  11
BRANCH   7  22
HETATM   22  O2  UNL     1      21.903  -1.860  55.246  1.00  0.00    -0.358 OA
HETATM   23  H12 UNL     1      21.833  -2.778  54.817  1.00  0.00     0.217 HD
ENDBRANCH   7  22
BRANCH   8  24
HETATM   24  O3  UNL     1      20.411   0.447  55.290  1.00  0.00    -0.358 OA
HETATM   25  H13 UNL     1      20.123  -0.268  55.923  1.00  0.00     0.217 HD
ENDBRANCH   8  24
TORSDOF 5
ENDMDL
MODEL 5
REMARK VINA RESULT:      -7.8      6.904      9.710
REMARK  5 active torsions:
REMARK  status: ('A' for Active; 'I' for Inactive)
REMARK    1  A    between atoms: C2_3  and  C3_4 
REMARK       I    between atoms: C3_4  and  N2_6 
REMARK    2  A    between atoms: N2_6  and  C4_7 
REMARK    3  A    between atoms: C4_7  and  C5_8 
REMARK    4  A    between atoms: C14_17  and  O2_18 
REMARK    5  A    between atoms: C15_19  and  O3_20 
ROOT
HETATM    1  N1  UNL     1      29.405   4.938  48.115  1.00  0.00    -0.191 NA
HETATM    2  C1  UNL     1      28.334   5.343  48.440  1.00  0.00     0.105 C 
HETATM    3  C2  UNL     1      27.010   5.870  48.835  1.00  0.00     0.115 C 
HETATM    4  C11 UNL     1      26.833   7.166  48.551  1.00  0.00    -0.047 C 
HETATM    5  C12 UNL     1      25.537   7.724  48.927  1.00  0.00     0.066 C 
HETATM    6  C13 UNL     1      25.406   9.199  48.741  1.00  0.00     0.017 C 
HETATM    7  C14 UNL     1      26.206  10.258  48.757  1.00  0.00     0.095 C 
HETATM    8  C15 UNL     1      27.643  10.097  49.011  1.00  0.00     0.095 C 
HETATM    9  C16 UNL     1      28.417   9.062  48.642  1.00  0.00     0.017 C 
HETATM   10  C17 UNL     1      27.961   7.856  47.889  1.00  0.00     0.066 C 
ENDROOT
BRANCH   3  11
HETATM   11  C3  UNL     1      26.299   4.717  49.430  1.00  0.00     0.262 C 
HETATM   12  O1  UNL     1      25.138   4.258  49.153  1.00  0.00    -0.267 OA
HETATM   13  N2  UNL     1      26.739   3.855  50.446  1.00  0.00    -0.352 N 
HETATM   14  H1  UNL     1      27.683   4.001  50.874  1.00  0.00     0.163 HD
BRANCH  13  15
HETATM   15  C4  UNL     1      26.040   2.748  51.012  1.00  0.00     0.161 C 
BRANCH  15  16
HETATM   16  C5  UNL     1      26.839   1.908  51.935  1.00  0.00    -0.041 A 
HETATM   17  C6  UNL     1      27.816   2.213  52.856  1.00  0.00     0.009 A 
HETATM   18  C7  UNL     1      28.404   1.217  53.582  1.00  0.00     0.001 A 
HETATM   19  C8  UNL     1      28.108  -0.131  53.485  1.00  0.00     0.000 A 
HETATM   20  C9  UNL     1      27.113  -0.425  52.546  1.00  0.00     0.001 A 
HETATM   21  C10 UNL     1      26.505   0.553  51.801  1.00  0.00     0.009 A 
ENDBRANCH  15  16
ENDBRANCH  13  15
ENDBRANCH   3  11
BRANCH   7  22
HETATM   22  O2  UNL     1      25.809  11.580  48.545  1.00  0.00    -0.358 OA
HETATM   23  H12 UNL     1      26.503  12.187  48.122  1.00  0.00     0.217 HD
ENDBRANCH   7  22
BRANCH   8  24
HETATM   24  O3  UNL     1      28.257  11.143  49.714  1.00  0.00    -0.358 OA
HETATM   25  H13 UNL     1      27.747  11.912  50.093  1.00  0.00     0.217 HD
ENDBRANCH   8  24
TORSDOF 5
ENDMDL
MODEL 6
REMARK VINA RESULT:      -7.8      1.575      1.972
REMARK  5 active torsions:
REMARK  status: ('A' for Active; 'I' for Inactive)
REMARK    1  A    between atoms: C2_3  and  C3_4 
REMARK       I    between atoms: C3_4  and  N2_6 
REMARK    2  A    between atoms: N2_6  and  C4_7 
REMARK    3  A    between atoms: C4_7  and  C5_8 
REMARK    4  A    between atoms: C14_17  and  O2_18 
REMARK    5  A    between atoms: C15_19  and  O3_20 
ROOT
HETATM    1  N1  UNL     1      22.799  -1.546  55.353  1.00  0.00    -0.191 NA
HETATM    2  C1  UNL     1      23.197  -0.885  54.445  1.00  0.00     0.105 C 
HETATM    3  C2  UNL     1      23.715  -0.072  53.326  1.00  0.00     0.115 C 
HETATM    4  C11 UNL     1      25.051  -0.054  53.237  1.00  0.00    -0.047 C 
HETATM    5  C12 UNL     1      25.602   0.740  52.143  1.00  0.00     0.066 C 
HETATM    6  C13 UNL     1      27.089   0.872  52.144  1.00  0.00     0.017 C 
HETATM    7  C14 UNL     1      28.066   0.877  53.043  1.00  0.00     0.095 C 
HETATM    8  C15 UNL     1      27.761   0.717  54.470  1.00  0.00     0.095 C 
HETATM    9  C16 UNL     1      26.778  -0.025  55.007  1.00  0.00     0.017 C 
HETATM   10  C17 UNL     1      25.788  -0.845  54.246  1.00  0.00     0.066 C 
ENDROOT
BRANCH   3  11
HETATM   11  C3  UNL     1      22.513   0.461  52.649  1.00  0.00     0.262 C 
HETATM   12  O1  UNL     1      22.431   1.368  51.750  1.00  0.00    -0.267 OA
HETATM   13  N2  UNL     1      21.172   0.093  52.841  1.00  0.00    -0.352 N 
HETATM   14  H1  UNL     1      20.936  -0.647  53.542  1.00  0.00     0.163 HD
BRANCH  13  15
HETATM   15  C4  UNL     1      20.021   0.620  52.182  1.00  0.00     0.161 C 
BRANCH  15  16
HETATM   16  C5  UNL     1      18.795  -0.202  52.311  1.00  0.00    -0.041 A 
HETATM   17  C6  UNL     1      18.412  -1.158  53.225  1.00  0.00     0.009 A 
HETATM   18  C7  UNL     1      17.200  -1.776  53.097  1.00  0.00     0.001 A 
HETATM   19  C8  UNL     1      16.274  -1.532  52.099  1.00  0.00     0.000 A 
HETATM   20  C9  UNL     1      16.679  -0.558  51.179  1.00  0.00     0.001 A 
HETATM   21  C10 UNL     1      17.889   0.080  51.280  1.00  0.00     0.009 A 
ENDBRANCH  15  16
ENDBRANCH  13  15
ENDBRANCH   3  11
BRANCH   7  22
HETATM   22  O2  UNL     1      29.426   1.025  52.763  1.00  0.00    -0.358 OA
HETATM   23  H12 UNL     1      30.060   0.536  53.387  1.00  0.00     0.217 HD
ENDBRANCH   7  22
BRANCH   8  24
HETATM   24  O3  UNL     1      28.594   1.419  55.352  1.00  0.00    -0.358 OA
HETATM   25  H13 UNL     1      29.544   1.163  55.518  1.00  0.00     0.217 HD
ENDBRANCH   8  24
TORSDOF 5
ENDMDL
MODEL 7
REMARK VINA RESULT:      -7.7      4.129      9.203
REMARK  5 active torsions:
REMARK  status: ('A' for Active; 'I' for Inactive)
REMARK    1  A    between atoms: C2_3  and  C3_4 
REMARK       I    between atoms: C3_4  and  N2_6 
REMARK    2  A    between atoms: N2_6  and  C4_7 
REMARK    3  A    between atoms: C4_7  and  C5_8 
REMARK    4  A    between atoms: C14_17  and  O2_18 
REMARK    5  A    between atoms: C15_19  and  O3_20 
ROOT
HETATM    1  N1  UNL     1      27.139   1.523  52.003  1.00  0.00    -0.191 NA
HETATM    2  C1  UNL     1      26.017   1.877  51.820  1.00  0.00     0.105 C 
HETATM    3  C2  UNL     1      24.617   2.303  51.613  1.00  0.00     0.115 C 
HETATM    4  C11 UNL     1      23.751   1.769  52.483  1.00  0.00    -0.047 C 
HETATM    5  C12 UNL     1      22.356   2.165  52.311  1.00  0.00     0.066 C 
HETATM    6  C13 UNL     1      21.383   1.452  53.190  1.00  0.00     0.017 C 
HETATM    7  C14 UNL     1      21.289   0.265  53.778  1.00  0.00     0.095 C 
HETATM    8  C15 UNL     1      22.358  -0.728  53.616  1.00  0.00     0.095 C 
HETATM    9  C16 UNL     1      23.675  -0.485  53.496  1.00  0.00     0.017 C 
HETATM   10  C17 UNL     1      24.318   0.863  53.505  1.00  0.00     0.066 C 
ENDROOT
BRANCH   3  11
HETATM   11  C3  UNL     1      24.662   3.229  50.461  1.00  0.00     0.262 C 
HETATM   12  O1  UNL     1      24.107   3.115  49.315  1.00  0.00    -0.267 OA
HETATM   13  N2  UNL     1      25.335   4.456  50.358  1.00  0.00    -0.352 N 
HETATM   14  H1  UNL     1      25.893   4.809  51.171  1.00  0.00     0.163 HD
BRANCH  13  15
HETATM   15  C4  UNL     1      25.374   5.338  49.237  1.00  0.00     0.161 C 
BRANCH  15  16
HETATM   16  C5  UNL     1      26.729   5.633  48.718  1.00  0.00    -0.041 A 
HETATM   17  C6  UNL     1      27.890   4.893  48.684  1.00  0.00     0.009 A 
HETATM   18  C7  UNL     1      29.024   5.427  48.139  1.00  0.00     0.001 A 
HETATM   19  C8  UNL     1      29.133   6.693  47.592  1.00  0.00     0.000 A 
HETATM   20  C9  UNL     1      27.945   7.431  47.633  1.00  0.00     0.001 A 
HETATM   21  C10 UNL     1      26.791   6.923  48.174  1.00  0.00     0.009 A 
ENDBRANCH  15  16
ENDBRANCH  13  15
ENDBRANCH   3  11
BRANCH   7  22
HETATM   22  O2  UNL     1      20.228  -0.164  54.577  1.00  0.00    -0.358 OA
HETATM   23  H12 UNL     1      19.750   0.561  55.102  1.00  0.00     0.217 HD
ENDBRANCH   7  22
BRANCH   8  24
HETATM   24  O3  UNL     1      21.945  -2.067  53.586  1.00  0.00    -0.358 OA
HETATM   25  H13 UNL     1      20.984  -2.335  53.578  1.00  0.00     0.217 HD
ENDBRANCH   8  24
TORSDOF 5
ENDMDL
MODEL 8
REMARK VINA RESULT:      -7.6      2.714      3.800
REMARK  5 active torsions:
REMARK  status: ('A' for Active; 'I' for Inactive)
REMARK    1  A    between atoms: C2_3  and  C3_4 
REMARK       I    between atoms: C3_4  and  N2_6 
REMARK    2  A    between atoms: N2_6  and  C4_7 
REMARK    3  A    between atoms: C4_7  and  C5_8 
REMARK    4  A    between atoms: C14_17  and  O2_18 
REMARK    5  A    between atoms: C15_19  and  O3_20 
ROOT
HETATM    1  N1  UNL     1      24.221   3.267  50.072  1.00  0.00    -0.191 NA
HETATM    2  C1  UNL     1      23.591   2.411  50.607  1.00  0.00     0.105 C 
HETATM    3  C2  UNL     1      22.826   1.346  51.291  1.00  0.00     0.115 C 
HETATM    4  C11 UNL     1      23.397   0.903  52.417  1.00  0.00    -0.047 C 
HETATM    5  C12 UNL     1      22.671  -0.151  53.121  1.00  0.00     0.066 C 
HETATM    6  C13 UNL     1      23.388  -0.738  54.292  1.00  0.00     0.017 C 
HETATM    7  C14 UNL     1      24.646  -0.937  54.664  1.00  0.00     0.095 C 
HETATM    8  C15 UNL     1      25.752  -0.518  53.794  1.00  0.00     0.095 C 
HETATM    9  C16 UNL     1      25.778   0.553  52.982  1.00  0.00     0.017 C 
HETATM   10  C17 UNL     1      24.673   1.541  52.805  1.00  0.00     0.066 C 
ENDROOT
BRANCH   3  11
HETATM   11  C3  UNL     1      21.626   1.136  50.452  1.00  0.00     0.262 C 
HETATM   12  O1  UNL     1      21.549   0.699  49.252  1.00  0.00    -0.267 OA
HETATM   13  N2  UNL     1      20.283   1.372  50.782  1.00  0.00    -0.352 N 
HETATM   14  H1  UNL     1      20.043   1.747  51.729  1.00  0.00     0.163 HD
BRANCH  13  15
HETATM   15  C4  UNL     1      19.134   1.168  49.960  1.00  0.00     0.161 C 
BRANCH  15  16
HETATM   16  C5  UNL     1      18.085   0.307  50.552  1.00  0.00    -0.041 A 
HETATM   17  C6  UNL     1      16.844  -0.086  50.102  1.00  0.00     0.009 A 
HETATM   18  C7  UNL     1      16.063  -0.898  50.875  1.00  0.00     0.001 A 
HETATM   19  C8  UNL     1      16.403  -1.389  52.123  1.00  0.00     0.000 A 
HETATM   20  C9  UNL     1      17.666  -0.982  52.566  1.00  0.00     0.001 A 
HETATM   21  C10 UNL     1      18.473  -0.167  51.813  1.00  0.00     0.009 A 
ENDBRANCH  15  16
ENDBRANCH  13  15
ENDBRANCH   3  11
BRANCH   7  22
HETATM   22  O2  UNL     1      25.056  -1.534  55.858  1.00  0.00    -0.358 OA
HETATM   23  H12 UNL     1      24.446  -2.262  56.219  1.00  0.00     0.217 HD
ENDBRANCH   7  22
BRANCH   8  24
HETATM   24  O3  UNL     1      26.893  -1.332  53.825  1.00  0.00    -0.358 OA
HETATM   25  H13 UNL     1      26.929  -2.191  54.331  1.00  0.00     0.217 HD
ENDBRANCH   8  24
TORSDOF 5
ENDMDL
MODEL 9
REMARK VINA RESULT:      -7.4      4.499      7.464
REMARK  5 active torsions:
REMARK  status: ('A' for Active; 'I' for Inactive)
REMARK    1  A    between atoms: C2_3  and  C3_4 
REMARK       I    between atoms: C3_4  and  N2_6 
REMARK    2  A    between atoms: N2_6  and  C4_7 
REMARK    3  A    between atoms: C4_7  and  C5_8 
REMARK    4  A    between atoms: C14_17  and  O2_18 
REMARK    5  A    between atoms: C15_19  and  O3_20 
ROOT
HETATM    1  N1  UNL     1      21.468   0.597  49.950  1.00  0.00    -0.191 NA
HETATM    2  C1  UNL     1      22.132   1.128  50.783  1.00  0.00     0.105 C 
HETATM    3  C2  UNL     1      22.951   1.811  51.807  1.00  0.00     0.115 C 
HETATM    4  C11 UNL     1      22.934   3.146  51.717  1.00  0.00    -0.047 C 
HETATM    5  C12 UNL     1      23.732   3.858  52.711  1.00  0.00     0.066 C 
HETATM    6  C13 UNL     1      23.825   5.334  52.510  1.00  0.00     0.017 C 
HETATM    7  C14 UNL     1      23.789   6.182  51.489  1.00  0.00     0.095 C 
HETATM    8  C15 UNL     1      23.613   5.686  50.119  1.00  0.00     0.095 C 
HETATM    9  C16 UNL     1      22.888   4.621  49.733  1.00  0.00     0.017 C 
HETATM   10  C17 UNL     1      22.108   3.723  50.634  1.00  0.00     0.066 C 
ENDROOT
BRANCH   3  11
HETATM   11  C3  UNL     1      23.526   0.723  52.627  1.00  0.00     0.262 C 
HETATM   12  O1  UNL     1      22.935  -0.080  53.428  1.00  0.00    -0.267 OA
HETATM   13  N2  UNL     1      24.867   0.320  52.719  1.00  0.00    -0.352 N 
HETATM   14  H1  UNL     1      25.596   0.820  52.157  1.00  0.00     0.163 HD
BRANCH  13  15
HETATM   15  C4  UNL     1      25.409  -0.730  53.518  1.00  0.00     0.161 C 
BRANCH  15  16
HETATM   16  C5  UNL     1      26.888  -0.819  53.518  1.00  0.00    -0.041 A 
HETATM   17  C6  UNL     1      27.762  -1.732  52.972  1.00  0.00     0.009 A 
HETATM   18  C7  UNL     1      29.109  -1.570  53.136  1.00  0.00     0.001 A 
HETATM   19  C8  UNL     1      29.716  -0.536  53.827  1.00  0.00     0.000 A 
HETATM   20  C9  UNL     1      28.814   0.383  54.375  1.00  0.00     0.001 A 
HETATM   21  C10 UNL     1      27.457   0.247  54.228  1.00  0.00     0.009 A 
ENDBRANCH  15  16
ENDBRANCH  13  15
ENDBRANCH   3  11
BRANCH   7  22
HETATM   22  O2  UNL     1      23.905   7.570  51.582  1.00  0.00    -0.358 OA
HETATM   23  H12 UNL     1      24.840   7.944  51.449  1.00  0.00     0.217 HD
ENDBRANCH   7  22
BRANCH   8  24
HETATM   24  O3  UNL     1      24.278   6.409  49.120  1.00  0.00    -0.358 OA
HETATM   25  H13 UNL     1      24.117   7.381  48.959  1.00  0.00     0.217 HD
ENDBRANCH   8  24
TORSDOF 5
ENDMDL
