MODEL 1
REMARK VINA RESULT:      -7.6      0.000      0.000
REMARK  8 active torsions:
REMARK  status: ('A' for Active; 'I' for Inactive)
REMARK    1  A    between atoms: C2_2  and  N1_3 
REMARK    2  A    between atoms: N1_3  and  C3_4 
REMARK    3  A    between atoms: C3_4  and  C4_5 
REMARK    4  A    between atoms: N2_7  and  C6_8 
REMARK    5  A    between atoms: C6_8  and  C7_9 
REMARK    6  A    between atoms: C9_12  and  N4_13 
REMARK    7  A    between atoms: C10_14  and  O1_15 
REMARK    8  A    between atoms: O1_15  and  C11_16 
ROOT
HETATM    1  C7  UNL     1      23.965   0.667  53.090  1.00  0.00    -0.018 A 
HETATM    2  C8  UNL     1      22.590   0.632  53.321  1.00  0.00     0.128 A 
HETATM    3  N3  UNL     1      21.826   1.624  52.859  1.00  0.00    -0.240 NA
HETATM    4  C9  UNL     1      22.349   2.654  52.175  1.00  0.00     0.154 A 
HETATM    5  C10 UNL     1      23.673   2.799  51.886  1.00  0.00     0.116 A 
HETATM    6  C18 UNL     1      24.474   1.752  52.375  1.00  0.00     0.051 A 
ENDROOT
BRANCH   5   7
HETATM    7  O1  UNL     1      24.434   3.693  51.246  1.00  0.00    -0.329 OA
BRANCH   7   8
HETATM    8  C11 UNL     1      24.514   4.158  49.953  1.00  0.00     0.125 A 
HETATM    9  C12 UNL     1      23.809   3.183  49.008  1.00  0.00     0.055 C 
HETATM   10  C13 UNL     1      25.956   4.150  49.467  1.00  0.00     0.086 A 
HETATM   11 CL1  UNL     1      26.504   2.481  49.695  1.00  0.00    -0.082 Cl
HETATM   12  C14 UNL     1      26.922   4.921  48.947  1.00  0.00     0.137 A 
HETATM   13  F1  UNL     1      28.196   4.667  48.580  1.00  0.00    -0.205 F 
HETATM   14  C15 UNL     1      26.379   6.289  48.785  1.00  0.00     0.041 A 
HETATM   15  C16 UNL     1      25.124   6.372  49.187  1.00  0.00    -0.000 A 
HETATM   16  C17 UNL     1      24.024   5.562  49.761  1.00  0.00     0.145 A 
HETATM   17 CL2  UNL     1      23.716   6.284  51.385  1.00  0.00    -0.117 Cl
ENDBRANCH   7   8
ENDBRANCH   5   7
BRANCH   4  18
HETATM   18  N4  UNL     1      21.499   3.680  51.704  1.00  0.00    -0.382 N 
HETATM   19  H15 UNL     1      21.478   4.410  50.956  1.00  0.00     0.157 HD
HETATM   20  H16 UNL     1      20.603   3.817  52.203  1.00  0.00     0.157 HD
ENDBRANCH   4  18
BRANCH   1  21
HETATM   21  C6  UNL     1      24.745  -0.447  53.628  1.00  0.00     0.189 C 
BRANCH  21  22
HETATM   22  N2  UNL     1      26.057  -0.111  54.055  1.00  0.00    -0.292 NA
HETATM   23  C4  UNL     1      27.043  -0.726  53.508  1.00  0.00     0.031 C 
HETATM   24  C5  UNL     1      26.831  -1.772  52.447  1.00  0.00     0.067 C 
BRANCH  23  25
HETATM   25  C3  UNL     1      28.493  -0.483  53.850  1.00  0.00     0.323 C 
BRANCH  25  26
HETATM   26  N1  UNL     1      28.518   0.479  54.928  1.00  0.00     0.088 N 
HETATM   27  H6  UNL     1      28.836   0.062  55.833  1.00  0.00     0.316 HD
BRANCH  26  28
HETATM   28  C2  UNL     1      29.277   1.662  54.576  1.00  0.00     0.265 C 
HETATM   29  C1  UNL     1      28.633   2.521  53.532  1.00  0.00     0.037 C 
ENDBRANCH  26  28
ENDBRANCH  25  26
ENDBRANCH  23  25
ENDBRANCH  21  22
ENDBRANCH   1  21
TORSDOF 8
ENDMDL
MODEL 2
REMARK VINA RESULT:      -7.0      3.161      6.373
REMARK  8 active torsions:
REMARK  status: ('A' for Active; 'I' for Inactive)
REMARK    1  A    between atoms: C2_2  and  N1_3 
REMARK    2  A    between atoms: N1_3  and  C3_4 
REMARK    3  A    between atoms: C3_4  and  C4_5 
REMARK    4  A    between atoms: N2_7  and  C6_8 
REMARK    5  A    between atoms: C6_8  and  C7_9 
REMARK    6  A    between atoms: C9_12  and  N4_13 
REMARK    7  A    between atoms: C10_14  and  O1_15 
REMARK    8  A    between atoms: O1_15  and  C11_16 
ROOT
HETATM    1  C7  UNL     1      21.173  -0.529  53.624  1.00  0.00    -0.018 A 
HETATM    2  C8  UNL     1      21.641  -1.187  54.762  1.00  0.00     0.128 A 
HETATM    3  N3  UNL     1      22.951  -1.194  55.019  1.00  0.00    -0.240 NA
HETATM    4  C9  UNL     1      23.829  -0.582  54.209  1.00  0.00     0.154 A 
HETATM    5  C10 UNL     1      23.495   0.093  53.073  1.00  0.00     0.116 A 
HETATM    6  C18 UNL     1      22.114   0.098  52.806  1.00  0.00     0.051 A 
ENDROOT
BRANCH   5   7
HETATM    7  O1  UNL     1      24.145   0.768  52.119  1.00  0.00    -0.329 OA
BRANCH   7   8
HETATM    8  C11 UNL     1      24.756   1.998  52.039  1.00  0.00     0.125 A 
HETATM    9  C12 UNL     1      24.312   2.874  53.213  1.00  0.00     0.055 C 
HETATM   10  C13 UNL     1      24.267   2.762  50.817  1.00  0.00     0.086 A 
HETATM   11 CL1  UNL     1      22.505   2.813  50.986  1.00  0.00    -0.082 Cl
HETATM   12  C14 UNL     1      24.676   3.388  49.704  1.00  0.00     0.137 A 
HETATM   13  F1  UNL     1      24.010   4.026  48.717  1.00  0.00    -0.205 F 
HETATM   14  C15 UNL     1      26.153   3.303  49.645  1.00  0.00     0.041 A 
HETATM   15  C16 UNL     1      26.650   2.651  50.680  1.00  0.00    -0.000 A 
HETATM   16  C17 UNL     1      26.250   1.949  51.922  1.00  0.00     0.145 A 
HETATM   17 CL2  UNL     1      26.744   0.234  51.666  1.00  0.00    -0.117 Cl
ENDBRANCH   7   8
ENDBRANCH   5   7
BRANCH   4  18
HETATM   18  N4  UNL     1      25.206  -0.616  54.523  1.00  0.00    -0.382 N 
HETATM   19  H15 UNL     1      25.835  -0.470  55.346  1.00  0.00     0.157 HD
HETATM   20  H16 UNL     1      25.861  -0.845  53.754  1.00  0.00     0.157 HD
ENDBRANCH   4  18
BRANCH   1  21
HETATM   21  C6  UNL     1      19.729  -0.564  53.400  1.00  0.00     0.189 C 
BRANCH  21  22
HETATM   22  N2  UNL     1      19.310  -0.116  52.119  1.00  0.00    -0.292 NA
HETATM   23  C4  UNL     1      18.102  -0.364  51.760  1.00  0.00     0.031 C 
HETATM   24  C5  UNL     1      17.147  -1.104  52.657  1.00  0.00     0.067 C 
BRANCH  23  25
HETATM   25  C3  UNL     1      17.506   0.045  50.434  1.00  0.00     0.323 C 
BRANCH  25  26
HETATM   26  N1  UNL     1      18.528   0.774  49.719  1.00  0.00     0.088 N 
HETATM   27  H6  UNL     1      18.816   0.299  48.832  1.00  0.00     0.316 HD
BRANCH  26  28
HETATM   28  C2  UNL     1      18.149   2.155  49.497  1.00  0.00     0.265 C 
HETATM   29  C1  UNL     1      18.766   3.126  50.457  1.00  0.00     0.037 C 
ENDBRANCH  26  28
ENDBRANCH  25  26
ENDBRANCH  23  25
ENDBRANCH  21  22
ENDBRANCH   1  21
TORSDOF 8
ENDMDL
MODEL 3
REMARK VINA RESULT:      -6.7      3.598      5.385
REMARK  8 active torsions:
REMARK  status: ('A' for Active; 'I' for Inactive)
REMARK    1  A    between atoms: C2_2  and  N1_3 
REMARK    2  A    between atoms: N1_3  and  C3_4 
REMARK    3  A    between atoms: C3_4  and  C4_5 
REMARK    4  A    between atoms: N2_7  and  C6_8 
REMARK    5  A    between atoms: C6_8  and  C7_9 
REMARK    6  A    between atoms: C9_12  and  N4_13 
REMARK    7  A    between atoms: C10_14  and  O1_15 
REMARK    8  A    between atoms: O1_15  and  C11_16 
ROOT
HETATM    1  C7  UNL     1      25.317   2.854  50.787  1.00  0.00    -0.018 A 
HETATM    2  C8  UNL     1      25.355   4.085  50.132  1.00  0.00     0.128 A 
HETATM    3  N3  UNL     1      24.218   4.615  49.672  1.00  0.00    -0.240 NA
HETATM    4  C9  UNL     1      23.040   3.991  49.825  1.00  0.00     0.154 A 
HETATM    5  C10 UNL     1      22.875   2.789  50.446  1.00  0.00     0.116 A 
HETATM    6  C18 UNL     1      24.074   2.235  50.929  1.00  0.00     0.051 A 
ENDROOT
BRANCH   5   7
HETATM    7  O1  UNL     1      21.853   1.974  50.725  1.00  0.00    -0.329 OA
BRANCH   7   8
HETATM    8  C11 UNL     1      20.723   2.059  51.506  1.00  0.00     0.125 A 
HETATM    9  C12 UNL     1      20.855   3.231  52.481  1.00  0.00     0.055 C 
HETATM   10  C13 UNL     1      20.607   0.846  52.418  1.00  0.00     0.086 A 
HETATM   11 CL1  UNL     1      22.134   0.803  53.315  1.00  0.00    -0.082 Cl
HETATM   12  C14 UNL     1      19.796  -0.161  52.773  1.00  0.00     0.137 A 
HETATM   13  F1  UNL     1      19.927  -1.172  53.659  1.00  0.00    -0.205 F 
HETATM   14  C15 UNL     1      18.548  -0.046  51.984  1.00  0.00     0.041 A 
HETATM   15  C16 UNL     1      18.576   0.992  51.168  1.00  0.00    -0.000 A 
HETATM   16  C17 UNL     1      19.435   2.121  50.741  1.00  0.00     0.145 A 
HETATM   17 CL2  UNL     1      19.791   1.802  49.002  1.00  0.00    -0.117 Cl
ENDBRANCH   7   8
ENDBRANCH   5   7
BRANCH   4  18
HETATM   18  N4  UNL     1      21.864   4.591  49.322  1.00  0.00    -0.382 N 
HETATM   19  H15 UNL     1      21.269   5.434  49.493  1.00  0.00     0.157 HD
HETATM   20  H16 UNL     1      21.381   4.106  48.545  1.00  0.00     0.157 HD
ENDBRANCH   4  18
BRANCH   1  21
HETATM   21  C6  UNL     1      26.596   2.329  51.260  1.00  0.00     0.189 C 
BRANCH  21  22
HETATM   22  N2  UNL     1      26.671   2.104  52.660  1.00  0.00    -0.292 NA
HETATM   23  C4  UNL     1      26.648   0.889  53.077  1.00  0.00     0.031 C 
HETATM   24  C5  UNL     1      26.546  -0.271  52.123  1.00  0.00     0.067 C 
BRANCH  23  25
HETATM   25  C3  UNL     1      26.718   0.485  54.530  1.00  0.00     0.323 C 
BRANCH  25  26
HETATM   26  N1  UNL     1      27.739  -0.533  54.636  1.00  0.00     0.088 N 
HETATM   27  H6  UNL     1      27.584  -1.329  53.975  1.00  0.00     0.316 HD
BRANCH  26  28
HETATM   28  C2  UNL     1      29.071   0.025  54.515  1.00  0.00     0.265 C 
HETATM   29  C1  UNL     1      29.979  -0.740  53.602  1.00  0.00     0.037 C 
ENDBRANCH  26  28
ENDBRANCH  25  26
ENDBRANCH  23  25
ENDBRANCH  21  22
ENDBRANCH   1  21
TORSDOF 8
ENDMDL
MODEL 4
REMARK VINA RESULT:      -6.7      3.843      6.834
REMARK  8 active torsions:
REMARK  status: ('A' for Active; 'I' for Inactive)
REMARK    1  A    between atoms: C2_2  and  N1_3 
REMARK    2  A    between atoms: N1_3  and  C3_4 
REMARK    3  A    between atoms: C3_4  and  C4_5 
REMARK    4  A    between atoms: N2_7  and  C6_8 
REMARK    5  A    between atoms: C6_8  and  C7_9 
REMARK    6  A    between atoms: C9_12  and  N4_13 
REMARK    7  A    between atoms: C10_14  and  O1_15 
REMARK    8  A    between atoms: O1_15  and  C11_16 
ROOT
HETATM    1  C7  UNL     1      26.261   4.733  49.165  1.00  0.00    -0.018 A 
HETATM    2  C8  UNL     1      25.379   5.797  48.980  1.00  0.00     0.128 A 
HETATM    3  N3  UNL     1      24.140   5.711  49.470  1.00  0.00    -0.240 NA
HETATM    4  C9  UNL     1      23.724   4.623  50.138  1.00  0.00     0.154 A 
HETATM    5  C10 UNL     1      24.491   3.523  50.382  1.00  0.00     0.116 A 
HETATM    6  C18 UNL     1      25.795   3.619  49.864  1.00  0.00     0.051 A 
ENDROOT
BRANCH   5   7
HETATM    7  O1  UNL     1      24.331   2.347  50.998  1.00  0.00    -0.329 OA
BRANCH   7   8
HETATM    8  C11 UNL     1      24.099   1.949  52.294  1.00  0.00     0.125 A 
HETATM    9  C12 UNL     1      24.460   3.082  53.257  1.00  0.00     0.055 C 
HETATM   10  C13 UNL     1      25.049   0.828  52.690  1.00  0.00     0.086 A 
HETATM   11 CL1  UNL     1      26.670   1.475  52.387  1.00  0.00    -0.082 Cl
HETATM   12  C14 UNL     1      25.098  -0.424  53.169  1.00  0.00     0.137 A 
HETATM   13  F1  UNL     1      26.124  -1.256  53.450  1.00  0.00    -0.205 F 
HETATM   14  C15 UNL     1      23.709  -0.882  53.399  1.00  0.00     0.041 A 
HETATM   15  C16 UNL     1      22.825   0.045  53.077  1.00  0.00    -0.000 A 
HETATM   16  C17 UNL     1      22.718   1.426  52.551  1.00  0.00     0.145 A 
HETATM   17 CL2  UNL     1      21.871   1.255  50.969  1.00  0.00    -0.117 Cl
ENDBRANCH   7   8
ENDBRANCH   5   7
BRANCH   4  18
HETATM   18  N4  UNL     1      22.404   4.578  50.640  1.00  0.00    -0.382 N 
HETATM   19  H15 UNL     1      21.618   3.896  50.742  1.00  0.00     0.157 HD
HETATM   20  H16 UNL     1      22.023   5.452  51.045  1.00  0.00     0.157 HD
ENDBRANCH   4  18
BRANCH   1  21
HETATM   21  C6  UNL     1      27.600   4.891  48.598  1.00  0.00     0.189 C 
BRANCH  21  22
HETATM   22  N2  UNL     1      28.026   6.235  48.430  1.00  0.00    -0.292 NA
HETATM   23  C4  UNL     1      29.272   6.447  48.202  1.00  0.00     0.031 C 
HETATM   24  C5  UNL     1      30.262   5.318  48.112  1.00  0.00     0.067 C 
BRANCH  23  25
HETATM   25  C3  UNL     1      29.880   7.815  48.001  1.00  0.00     0.323 C 
BRANCH  25  26
HETATM   26  N1  UNL     1      30.144   8.357  49.314  1.00  0.00     0.088 N 
HETATM   27  H6  UNL     1      31.088   8.089  49.678  1.00  0.00     0.316 HD
BRANCH  26  28
HETATM   28  C2  UNL     1      29.930   9.789  49.358  1.00  0.00     0.265 C 
HETATM   29  C1  UNL     1      30.970  10.591  48.638  1.00  0.00     0.037 C 
ENDBRANCH  26  28
ENDBRANCH  25  26
ENDBRANCH  23  25
ENDBRANCH  21  22
ENDBRANCH   1  21
TORSDOF 8
ENDMDL
MODEL 5
REMARK VINA RESULT:      -6.5      3.955      6.873
REMARK  8 active torsions:
REMARK  status: ('A' for Active; 'I' for Inactive)
REMARK    1  A    between atoms: C2_2  and  N1_3 
REMARK    2  A    between atoms: N1_3  and  C3_4 
REMARK    3  A    between atoms: C3_4  and  C4_5 
REMARK    4  A    between atoms: N2_7  and  C6_8 
REMARK    5  A    between atoms: C6_8  and  C7_9 
REMARK    6  A    between atoms: C9_12  and  N4_13 
REMARK    7  A    between atoms: C10_14  and  O1_15 
REMARK    8  A    between atoms: O1_15  and  C11_16 
ROOT
HETATM    1  C7  UNL     1      25.471   5.431  49.663  1.00  0.00    -0.018 A 
HETATM    2  C8  UNL     1      24.637   6.547  49.592  1.00  0.00     0.128 A 
HETATM    3  N3  UNL     1      23.542   6.592  50.355  1.00  0.00    -0.240 NA
HETATM    4  C9  UNL     1      23.226   5.589  51.190  1.00  0.00     0.154 A 
HETATM    5  C10 UNL     1      23.960   4.452  51.348  1.00  0.00     0.116 A 
HETATM    6  C18 UNL     1      25.112   4.409  50.542  1.00  0.00     0.051 A 
ENDROOT
BRANCH   5   7
HETATM    7  O1  UNL     1      23.876   3.338  52.082  1.00  0.00    -0.329 OA
BRANCH   7   8
HETATM    8  C11 UNL     1      23.619   2.012  51.816  1.00  0.00     0.125 A 
HETATM    9  C12 UNL     1      23.020   1.872  50.415  1.00  0.00     0.055 C 
HETATM   10  C13 UNL     1      22.521   1.485  52.729  1.00  0.00     0.086 A 
HETATM   11 CL1  UNL     1      21.151   2.577  52.473  1.00  0.00    -0.082 Cl
HETATM   12  C14 UNL     1      22.230   0.527  53.620  1.00  0.00     0.137 A 
HETATM   13  F1  UNL     1      21.119   0.253  54.338  1.00  0.00    -0.205 F 
HETATM   14  C15 UNL     1      23.421  -0.341  53.768  1.00  0.00     0.041 A 
HETATM   15  C16 UNL     1      24.419   0.058  53.000  1.00  0.00    -0.000 A 
HETATM   16  C17 UNL     1      24.789   1.096  52.009  1.00  0.00     0.145 A 
HETATM   17 CL2  UNL     1      26.119   2.029  52.791  1.00  0.00    -0.117 Cl
ENDBRANCH   7   8
ENDBRANCH   5   7
BRANCH   4  18
HETATM   18  N4  UNL     1      22.058   5.684  51.979  1.00  0.00    -0.382 N 
HETATM   19  H15 UNL     1      21.779   5.927  52.957  1.00  0.00     0.157 HD
HETATM   20  H16 UNL     1      21.159   5.452  51.521  1.00  0.00     0.157 HD
ENDBRANCH   4  18
BRANCH   1  21
HETATM   21  C6  UNL     1      26.650   5.443  48.797  1.00  0.00     0.189 C 
BRANCH  21  22
HETATM   22  N2  UNL     1      27.248   6.718  48.616  1.00  0.00    -0.292 NA
HETATM   23  C4  UNL     1      28.500   6.760  48.331  1.00  0.00     0.031 C 
HETATM   24  C5  UNL     1      29.320   5.507  48.187  1.00  0.00     0.067 C 
BRANCH  23  25
HETATM   25  C3  UNL     1      29.281   8.033  48.108  1.00  0.00     0.323 C 
BRANCH  25  26
HETATM   26  N1  UNL     1      29.715   8.495  49.407  1.00  0.00     0.088 N 
HETATM   27  H6  UNL     1      29.543   7.792  50.163  1.00  0.00     0.316 HD
BRANCH  26  28
HETATM   28  C2  UNL     1      31.091   8.947  49.386  1.00  0.00     0.265 C 
HETATM   29  C1  UNL     1      32.100   7.848  49.254  1.00  0.00     0.037 C 
ENDBRANCH  26  28
ENDBRANCH  25  26
ENDBRANCH  23  25
ENDBRANCH  21  22
ENDBRANCH   1  21
TORSDOF 8
ENDMDL
MODEL 6
REMARK VINA RESULT:      -6.4      4.284      7.076
REMARK  8 active torsions:
REMARK  status: ('A' for Active; 'I' for Inactive)
REMARK    1  A    between atoms: C2_2  and  N1_3 
REMARK    2  A    between atoms: N1_3  and  C3_4 
REMARK    3  A    between atoms: C3_4  and  C4_5 
REMARK    4  A    between atoms: N2_7  and  C6_8 
REMARK    5  A    between atoms: C6_8  and  C7_9 
REMARK    6  A    between atoms: C9_12  and  N4_13 
REMARK    7  A    between atoms: C10_14  and  O1_15 
REMARK    8  A    between atoms: O1_15  and  C11_16 
ROOT
HETATM    1  C7  UNL     1      24.779   2.570  51.028  1.00  0.00    -0.018 A 
HETATM    2  C8  UNL     1      25.640   2.186  52.056  1.00  0.00     0.128 A 
HETATM    3  N3  UNL     1      25.237   1.264  52.934  1.00  0.00    -0.240 NA
HETATM    4  C9  UNL     1      24.023   0.697  52.850  1.00  0.00     0.154 A 
HETATM    5  C10 UNL     1      23.097   0.989  51.894  1.00  0.00     0.116 A 
HETATM    6  C18 UNL     1      23.525   1.960  50.971  1.00  0.00     0.051 A 
ENDROOT
BRANCH   5   7
HETATM    7  O1  UNL     1      21.858   0.588  51.590  1.00  0.00    -0.329 OA
BRANCH   7   8
HETATM    8  C11 UNL     1      20.605   1.155  51.659  1.00  0.00     0.125 A 
HETATM    9  C12 UNL     1      20.611   2.300  52.674  1.00  0.00     0.055 C 
HETATM   10  C13 UNL     1      19.601   0.169  52.238  1.00  0.00     0.086 A 
HETATM   11 CL1  UNL     1      20.287  -0.319  53.796  1.00  0.00    -0.082 Cl
HETATM   12  C14 UNL     1      18.429  -0.438  52.001  1.00  0.00     0.137 A 
HETATM   13  F1  UNL     1      17.700  -1.327  52.710  1.00  0.00    -0.205 F 
HETATM   14  C15 UNL     1      17.926   0.029  50.689  1.00  0.00     0.041 A 
HETATM   15  C16 UNL     1      18.751   0.894  50.126  1.00  0.00    -0.000 A 
HETATM   16  C17 UNL     1      20.041   1.589  50.340  1.00  0.00     0.145 A 
HETATM   17 CL2  UNL     1      21.120   0.979  49.031  1.00  0.00    -0.117 Cl
ENDBRANCH   7   8
ENDBRANCH   5   7
BRANCH   4  18
HETATM   18  N4  UNL     1      23.642  -0.275  53.802  1.00  0.00    -0.382 N 
HETATM   19  H15 UNL     1      24.085  -0.955  54.460  1.00  0.00     0.157 HD
HETATM   20  H16 UNL     1      22.627  -0.420  53.948  1.00  0.00     0.157 HD
ENDBRANCH   4  18
BRANCH   1  21
HETATM   21  C6  UNL     1      25.280   3.588  50.105  1.00  0.00     0.189 C 
BRANCH  21  22
HETATM   22  N2  UNL     1      24.951   4.925  50.451  1.00  0.00    -0.292 NA
HETATM   23  C4  UNL     1      25.611   5.872  49.887  1.00  0.00     0.031 C 
HETATM   24  C5  UNL     1      26.701   5.590  48.888  1.00  0.00     0.067 C 
BRANCH  23  25
HETATM   25  C3  UNL     1      25.383   7.342  50.146  1.00  0.00     0.323 C 
BRANCH  25  26
HETATM   26  N1  UNL     1      26.657   7.908  50.522  1.00  0.00     0.088 N 
HETATM   27  H6  UNL     1      27.433   7.206  50.499  1.00  0.00     0.316 HD
BRANCH  26  28
HETATM   28  C2  UNL     1      26.971   9.092  49.748  1.00  0.00     0.265 C 
HETATM   29  C1  UNL     1      28.433   9.412  49.674  1.00  0.00     0.037 C 
ENDBRANCH  26  28
ENDBRANCH  25  26
ENDBRANCH  23  25
ENDBRANCH  21  22
ENDBRANCH   1  21
TORSDOF 8
ENDMDL
MODEL 7
REMARK VINA RESULT:      -6.4      5.523      9.283
REMARK  8 active torsions:
REMARK  status: ('A' for Active; 'I' for Inactive)
REMARK    1  A    between atoms: C2_2  and  N1_3 
REMARK    2  A    between atoms: N1_3  and  C3_4 
REMARK    3  A    between atoms: C3_4  and  C4_5 
REMARK    4  A    between atoms: N2_7  and  C6_8 
REMARK    5  A    between atoms: C6_8  and  C7_9 
REMARK    6  A    between atoms: C9_12  and  N4_13 
REMARK    7  A    between atoms: C10_14  and  O1_15 
REMARK    8  A    between atoms: O1_15  and  C11_16 
ROOT
HETATM    1  C7  UNL     1      18.771   4.263  50.751  1.00  0.00    -0.018 A 
HETATM    2  C8  UNL     1      19.488   5.128  49.924  1.00  0.00     0.128 A 
HETATM    3  N3  UNL     1      20.818   5.020  49.864  1.00  0.00    -0.240 NA
HETATM    4  C9  UNL     1      21.481   4.098  50.580  1.00  0.00     0.154 A 
HETATM    5  C10 UNL     1      20.894   3.200  51.420  1.00  0.00     0.116 A 
HETATM    6  C18 UNL     1      19.493   3.317  51.480  1.00  0.00     0.051 A 
ENDROOT
BRANCH   5   7
HETATM    7  O1  UNL     1      21.302   2.212  52.223  1.00  0.00    -0.329 OA
BRANCH   7   8
HETATM    8  C11 UNL     1      21.839   0.959  52.033  1.00  0.00     0.125 A 
HETATM    9  C12 UNL     1      21.519   0.469  50.620  1.00  0.00     0.055 C 
HETATM   10  C13 UNL     1      21.152  -0.061  52.930  1.00  0.00     0.086 A 
HETATM   11 CL1  UNL     1      19.429   0.081  52.545  1.00  0.00    -0.082 Cl
HETATM   12  C14 UNL     1      21.375  -0.992  53.869  1.00  0.00     0.137 A 
HETATM   13  F1  UNL     1      20.551  -1.814  54.555  1.00  0.00    -0.205 F 
HETATM   14  C15 UNL     1      22.832  -1.048  54.123  1.00  0.00     0.041 A 
HETATM   15  C16 UNL     1      23.497  -0.186  53.374  1.00  0.00    -0.000 A 
HETATM   16  C17 UNL     1      23.303   0.852  52.335  1.00  0.00     0.145 A 
HETATM   17 CL2  UNL     1      23.837   2.390  53.111  1.00  0.00    -0.117 Cl
ENDBRANCH   7   8
ENDBRANCH   5   7
BRANCH   4  18
HETATM   18  N4  UNL     1      22.889   4.022  50.482  1.00  0.00    -0.382 N 
HETATM   19  H15 UNL     1      23.618   3.540  49.908  1.00  0.00     0.157 HD
HETATM   20  H16 UNL     1      23.440   4.585  51.154  1.00  0.00     0.157 HD
ENDBRANCH   4  18
BRANCH   1  21
HETATM   21  C6  UNL     1      17.320   4.439  50.774  1.00  0.00     0.189 C 
BRANCH  21  22
HETATM   22  N2  UNL     1      16.681   3.992  51.961  1.00  0.00    -0.292 NA
HETATM   23  C4  UNL     1      15.521   3.450  51.852  1.00  0.00     0.031 C 
HETATM   24  C5  UNL     1      14.848   3.285  50.517  1.00  0.00     0.067 C 
BRANCH  23  25
HETATM   25  C3  UNL     1      14.713   2.926  53.015  1.00  0.00     0.323 C 
BRANCH  25  26
HETATM   26  N1  UNL     1      14.396   4.059  53.854  1.00  0.00     0.088 N 
HETATM   27  H6  UNL     1      15.104   4.826  53.781  1.00  0.00     0.316 HD
BRANCH  26  28
HETATM   28  C2  UNL     1      13.048   4.538  53.625  1.00  0.00     0.265 C 
HETATM   29  C1  UNL     1      12.042   4.051  54.623  1.00  0.00     0.037 C 
ENDBRANCH  26  28
ENDBRANCH  25  26
ENDBRANCH  23  25
ENDBRANCH  21  22
ENDBRANCH   1  21
TORSDOF 8
ENDMDL
MODEL 8
REMARK VINA RESULT:      -6.3      1.600      2.042
REMARK  8 active torsions:
REMARK  status: ('A' for Active; 'I' for Inactive)
REMARK    1  A    between atoms: C2_2  and  N1_3 
REMARK    2  A    between atoms: N1_3  and  C3_4 
REMARK    3  A    between atoms: C3_4  and  C4_5 
REMARK    4  A    between atoms: N2_7  and  C6_8 
REMARK    5  A    between atoms: C6_8  and  C7_9 
REMARK    6  A    between atoms: C9_12  and  N4_13 
REMARK    7  A    between atoms: C10_14  and  O1_15 
REMARK    8  A    between atoms: O1_15  and  C11_16 
ROOT
HETATM    1  C7  UNL     1      22.927   1.556  52.656  1.00  0.00    -0.018 A 
HETATM    2  C8  UNL     1      21.582   1.290  52.912  1.00  0.00     0.128 A 
HETATM    3  N3  UNL     1      20.654   2.146  52.480  1.00  0.00    -0.240 NA
HETATM    4  C9  UNL     1      20.984   3.258  51.804  1.00  0.00     0.154 A 
HETATM    5  C10 UNL     1      22.259   3.626  51.493  1.00  0.00     0.116 A 
HETATM    6  C18 UNL     1      23.233   2.721  51.950  1.00  0.00     0.051 A 
ENDROOT
BRANCH   5   7
HETATM    7  O1  UNL     1      22.846   4.643  50.854  1.00  0.00    -0.329 OA
BRANCH   7   8
HETATM    8  C11 UNL     1      22.899   5.074  49.548  1.00  0.00     0.125 A 
HETATM    9  C12 UNL     1      22.388   3.972  48.618  1.00  0.00     0.055 C 
HETATM   10  C13 UNL     1      24.342   5.275  49.107  1.00  0.00     0.086 A 
HETATM   11 CL1  UNL     1      25.133   3.720  49.413  1.00  0.00    -0.082 Cl
HETATM   12  C14 UNL     1      25.195   6.170  48.589  1.00  0.00     0.137 A 
HETATM   13  F1  UNL     1      26.506   6.107  48.270  1.00  0.00    -0.205 F 
HETATM   14  C15 UNL     1      24.453   7.432  48.360  1.00  0.00     0.041 A 
HETATM   15  C16 UNL     1      23.187   7.330  48.720  1.00  0.00    -0.000 A 
HETATM   16  C17 UNL     1      22.206   6.378  49.290  1.00  0.00     0.145 A 
HETATM   17 CL2  UNL     1      21.732   7.093  50.876  1.00  0.00    -0.117 Cl
ENDBRANCH   7   8
ENDBRANCH   5   7
BRANCH   4  18
HETATM   18  N4  UNL     1      19.965   4.134  51.366  1.00  0.00    -0.382 N 
HETATM   19  H15 UNL     1      18.922   4.168  51.304  1.00  0.00     0.157 HD
HETATM   20  H16 UNL     1      20.263   5.042  50.966  1.00  0.00     0.157 HD
ENDBRANCH   4  18
BRANCH   1  21
HETATM   21  C6  UNL     1      23.892   0.581  53.161  1.00  0.00     0.189 C 
BRANCH  21  22
HETATM   22  N2  UNL     1      25.250   0.992  53.098  1.00  0.00    -0.292 NA
HETATM   23  C4  UNL     1      26.075   0.476  53.937  1.00  0.00     0.031 C 
HETATM   24  C5  UNL     1      25.632  -0.535  54.960  1.00  0.00     0.067 C 
BRANCH  23  25
HETATM   25  C3  UNL     1      27.546   0.808  53.999  1.00  0.00     0.323 C 
BRANCH  25  26
HETATM   26  N1  UNL     1      28.192  -0.268  54.715  1.00  0.00     0.088 N 
HETATM   27  H6  UNL     1      27.555  -1.081  54.881  1.00  0.00     0.316 HD
BRANCH  26  28
HETATM   28  C2  UNL     1      29.432  -0.668  54.081  1.00  0.00     0.265 C 
HETATM   29  C1  UNL     1      29.339  -1.935  53.288  1.00  0.00     0.037 C 
ENDBRANCH  26  28
ENDBRANCH  25  26
ENDBRANCH  23  25
ENDBRANCH  21  22
ENDBRANCH   1  21
TORSDOF 8
ENDMDL
MODEL 9
REMARK VINA RESULT:      -6.2      1.956      2.891
REMARK  8 active torsions:
REMARK  status: ('A' for Active; 'I' for Inactive)
REMARK    1  A    between atoms: C2_2  and  N1_3 
REMARK    2  A    between atoms: N1_3  and  C3_4 
REMARK    3  A    between atoms: C3_4  and  C4_5 
REMARK    4  A    between atoms: N2_7  and  C6_8 
REMARK    5  A    between atoms: C6_8  and  C7_9 
REMARK    6  A    between atoms: C9_12  and  N4_13 
REMARK    7  A    between atoms: C10_14  and  O1_15 
REMARK    8  A    between atoms: O1_15  and  C11_16 
ROOT
HETATM    1  C7  UNL     1      22.325   0.821  52.962  1.00  0.00    -0.018 A 
HETATM    2  C8  UNL     1      20.984   0.810  53.346  1.00  0.00     0.128 A 
HETATM    3  N3  UNL     1      20.175   1.782  52.919  1.00  0.00    -0.240 NA
HETATM    4  C9  UNL     1      20.621   2.771  52.127  1.00  0.00     0.154 A 
HETATM    5  C10 UNL     1      21.905   2.889  51.686  1.00  0.00     0.116 A 
HETATM    6  C18 UNL     1      22.754   1.863  52.138  1.00  0.00     0.051 A 
ENDROOT
BRANCH   5   7
HETATM    7  O1  UNL     1      22.592   3.742  50.919  1.00  0.00    -0.329 OA
BRANCH   7   8
HETATM    8  C11 UNL     1      23.545   4.709  51.146  1.00  0.00     0.125 A 
HETATM    9  C12 UNL     1      23.626   5.012  52.644  1.00  0.00     0.055 C 
HETATM   10  C13 UNL     1      23.119   6.036  50.536  1.00  0.00     0.086 A 
HETATM   11 CL1  UNL     1      21.530   6.374  51.239  1.00  0.00    -0.082 Cl
HETATM   12  C14 UNL     1      23.502   7.005  49.691  1.00  0.00     0.137 A 
HETATM   13  F1  UNL     1      22.914   8.152  49.289  1.00  0.00    -0.205 F 
HETATM   14  C15 UNL     1      24.836   6.647  49.156  1.00  0.00     0.041 A 
HETATM   15  C16 UNL     1      25.272   5.501  49.647  1.00  0.00    -0.000 A 
HETATM   16  C17 UNL     1      24.895   4.406  50.571  1.00  0.00     0.145 A 
HETATM   17 CL2  UNL     1      24.752   2.945  49.524  1.00  0.00    -0.117 Cl
ENDBRANCH   7   8
ENDBRANCH   5   7
BRANCH   4  18
HETATM   18  N4  UNL     1      19.727   3.777  51.700  1.00  0.00    -0.382 N 
HETATM   19  H15 UNL     1      19.548   4.373  50.859  1.00  0.00     0.157 HD
HETATM   20  H16 UNL     1      18.995   4.074  52.369  1.00  0.00     0.157 HD
ENDBRANCH   4  18
BRANCH   1  21
HETATM   21  C6  UNL     1      23.157  -0.270  53.469  1.00  0.00     0.189 C 
BRANCH  21  22
HETATM   22  N2  UNL     1      24.488  -0.287  52.976  1.00  0.00    -0.292 NA
HETATM   23  C4  UNL     1      25.432  -0.566  53.802  1.00  0.00     0.031 C 
HETATM   24  C5  UNL     1      25.151  -0.868  55.249  1.00  0.00     0.067 C 
BRANCH  23  25
HETATM   25  C3  UNL     1      26.895  -0.626  53.435  1.00  0.00     0.323 C 
BRANCH  25  26
HETATM   26  N1  UNL     1      27.550   0.456  54.133  1.00  0.00     0.088 N 
HETATM   27  H6  UNL     1      26.940   0.893  54.862  1.00  0.00     0.316 HD
BRANCH  26  28
HETATM   28  C2  UNL     1      28.835   0.053  54.668  1.00  0.00     0.265 C 
HETATM   29  C1  UNL     1      29.635  -0.826  53.756  1.00  0.00     0.037 C 
ENDBRANCH  26  28
ENDBRANCH  25  26
ENDBRANCH  23  25
ENDBRANCH  21  22
ENDBRANCH   1  21
TORSDOF 8
ENDMDL
