MODEL 1
REMARK VINA RESULT:      -6.9      0.000      0.000
REMARK  8 active torsions:
REMARK  status: ('A' for Active; 'I' for Inactive)
REMARK    1  A    between atoms: O1_2  and  C2_3 
REMARK    2  A    between atoms: C2_3  and  C10_13 
REMARK    3  A    between atoms: C3_4  and  C4_5 
REMARK    4  A    between atoms: C4_5  and  C5_6 
REMARK    5  A    between atoms: C6_7  and  O2_8 
REMARK    6  A    between atoms: C6_7  and  C7_9 
REMARK    7  A    between atoms: C10_13  and  N2_14 
REMARK    8  A    between atoms: N2_14  and  C11_15 
ROOT
HETATM    1  C2  UNL     1      24.693   2.677  51.931  1.00  0.00     0.070 C 
HETATM    2  C3  UNL     1      25.728   2.145  52.536  1.00  0.00     0.011 C 
ENDROOT
BRANCH   1   3
HETATM    3  O1  UNL     1      24.872   3.280  50.702  1.00  0.00    -0.359 OA
HETATM    4  C1  UNL     1      24.545   4.626  50.442  1.00  0.00     0.209 C 
ENDBRANCH   1   3
BRANCH   1   5
HETATM    5  C10 UNL     1      23.326   2.653  52.533  1.00  0.00     0.334 C 
BRANCH   5   6
HETATM    6  N2  UNL     1      22.522   1.640  51.895  1.00  0.00     0.094 N 
HETATM    7  H13 UNL     1      23.155   1.133  51.232  1.00  0.00     0.316 HD
BRANCH   6   8
HETATM    8  C11 UNL     1      22.029   0.719  52.853  1.00  0.00     0.221 C 
HETATM    9  C12 UNL     1      22.965  -0.409  53.198  1.00  0.00     0.035 C 
HETATM   10  C13 UNL     1      22.455  -0.929  54.552  1.00  0.00     0.002 C 
HETATM   11  C14 UNL     1      21.122  -1.553  54.309  1.00  0.00     0.000 C 
HETATM   12  C15 UNL     1      20.142  -0.595  53.668  1.00  0.00     0.002 C 
HETATM   13  C16 UNL     1      20.717   0.076  52.450  1.00  0.00     0.035 C 
ENDBRANCH   6   8
ENDBRANCH   5   6
ENDBRANCH   1   5
BRANCH   2  14
HETATM   14  C4  UNL     1      27.134   2.056  52.138  1.00  0.00     0.059 C 
BRANCH  14  15
HETATM   15  C5  UNL     1      28.066   2.403  53.234  1.00  0.00     0.016 C 
HETATM   16  C6  UNL     1      28.962   1.728  53.974  1.00  0.00     0.090 C 
BRANCH  16  17
HETATM   17  O2  UNL     1      29.745   2.309  54.985  1.00  0.00    -0.359 OA
HETATM   18  H8  UNL     1      30.060   1.679  55.735  1.00  0.00     0.217 HD
ENDBRANCH  16  17
BRANCH  16  19
HETATM   19  C7  UNL     1      29.178   0.283  53.754  1.00  0.00     0.090 A 
HETATM   20  C8  UNL     1      30.194  -0.533  53.432  1.00  0.00     0.053 A 
HETATM   21  C9  UNL     1      29.313  -1.692  53.488  1.00  0.00     0.120 A 
HETATM   22  N1  UNL     1      28.349  -0.892  53.795  1.00  0.00    -0.258 NA
ENDBRANCH  16  19
ENDBRANCH  14  15
ENDBRANCH   2  14
TORSDOF 8
ENDMDL
MODEL 2
REMARK VINA RESULT:      -6.7      3.066      6.388
REMARK  8 active torsions:
REMARK  status: ('A' for Active; 'I' for Inactive)
REMARK    1  A    between atoms: O1_2  and  C2_3 
REMARK    2  A    between atoms: C2_3  and  C10_13 
REMARK    3  A    between atoms: C3_4  and  C4_5 
REMARK    4  A    between atoms: C4_5  and  C5_6 
REMARK    5  A    between atoms: C6_7  and  O2_8 
REMARK    6  A    between atoms: C6_7  and  C7_9 
REMARK    7  A    between atoms: C10_13  and  N2_14 
REMARK    8  A    between atoms: N2_14  and  C11_15 
ROOT
HETATM    1  C2  UNL     1      25.585   3.334  50.528  1.00  0.00     0.070 C 
HETATM    2  C3  UNL     1      26.689   2.824  51.017  1.00  0.00     0.011 C 
ENDROOT
BRANCH   1   3
HETATM    3  O1  UNL     1      24.370   2.900  51.021  1.00  0.00    -0.359 OA
HETATM    4  C1  UNL     1      23.650   3.583  52.021  1.00  0.00     0.209 C 
ENDBRANCH   1   3
BRANCH   1   5
HETATM    5  C10 UNL     1      25.601   4.369  49.450  1.00  0.00     0.334 C 
BRANCH   5   6
HETATM    6  N2  UNL     1      25.876   5.667  50.015  1.00  0.00     0.094 N 
HETATM    7  H13 UNL     1      26.413   5.499  50.899  1.00  0.00     0.316 HD
BRANCH   6   8
HETATM    8  C11 UNL     1      26.675   6.435  49.133  1.00  0.00     0.221 C 
HETATM    9  C12 UNL     1      25.928   7.102  48.008  1.00  0.00     0.035 C 
HETATM   10  C13 UNL     1      26.865   8.227  47.539  1.00  0.00     0.002 C 
HETATM   11  C14 UNL     1      28.057   7.576  46.920  1.00  0.00     0.000 C 
HETATM   12  C15 UNL     1      28.752   6.621  47.866  1.00  0.00     0.002 C 
HETATM   13  C16 UNL     1      27.795   5.641  48.489  1.00  0.00     0.035 C 
ENDBRANCH   6   8
ENDBRANCH   5   6
ENDBRANCH   1   5
BRANCH   2  14
HETATM   14  C4  UNL     1      26.905   1.816  52.056  1.00  0.00     0.059 C 
BRANCH  14  15
HETATM   15  C5  UNL     1      27.861   2.256  53.097  1.00  0.00     0.016 C 
HETATM   16  C6  UNL     1      28.816   1.659  53.829  1.00  0.00     0.090 C 
BRANCH  16  17
HETATM   17  O2  UNL     1      29.609   2.323  54.780  1.00  0.00    -0.359 OA
HETATM   18  H8  UNL     1      30.400   2.869  54.413  1.00  0.00     0.217 HD
ENDBRANCH  16  17
BRANCH  16  19
HETATM   19  C7  UNL     1      29.094   0.217  53.665  1.00  0.00     0.090 A 
HETATM   20  C8  UNL     1      30.144  -0.567  53.377  1.00  0.00     0.053 A 
HETATM   21  C9  UNL     1      29.312  -1.759  53.476  1.00  0.00     0.120 A 
HETATM   22  N1  UNL     1      28.315  -0.990  53.750  1.00  0.00    -0.258 NA
ENDBRANCH  16  19
ENDBRANCH  14  15
ENDBRANCH   2  14
TORSDOF 8
ENDMDL
MODEL 3
REMARK VINA RESULT:      -6.6      2.433      4.155
REMARK  8 active torsions:
REMARK  status: ('A' for Active; 'I' for Inactive)
REMARK    1  A    between atoms: O1_2  and  C2_3 
REMARK    2  A    between atoms: C2_3  and  C10_13 
REMARK    3  A    between atoms: C3_4  and  C4_5 
REMARK    4  A    between atoms: C4_5  and  C5_6 
REMARK    5  A    between atoms: C6_7  and  O2_8 
REMARK    6  A    between atoms: C6_7  and  C7_9 
REMARK    7  A    between atoms: C10_13  and  N2_14 
REMARK    8  A    between atoms: N2_14  and  C11_15 
ROOT
HETATM    1  C2  UNL     1      22.775   0.070  53.186  1.00  0.00     0.070 C 
HETATM    2  C3  UNL     1      24.054   0.263  52.970  1.00  0.00     0.011 C 
ENDROOT
BRANCH   1   3
HETATM    3  O1  UNL     1      22.370  -0.431  54.407  1.00  0.00    -0.359 OA
HETATM    4  C1  UNL     1      21.790  -1.705  54.570  1.00  0.00     0.209 C 
ENDBRANCH   1   3
BRANCH   1   5
HETATM    5  C10 UNL     1      21.742   0.375  52.150  1.00  0.00     0.334 C 
BRANCH   5   6
HETATM    6  N2  UNL     1      21.668   1.798  51.928  1.00  0.00     0.094 N 
HETATM    7  H13 UNL     1      22.462   2.224  52.464  1.00  0.00     0.316 HD
BRANCH   6   8
HETATM    8  C11 UNL     1      21.832   2.097  50.553  1.00  0.00     0.221 C 
HETATM    9  C12 UNL     1      21.471   0.982  49.607  1.00  0.00     0.035 C 
HETATM   10  C13 UNL     1      21.240   1.684  48.259  1.00  0.00     0.002 C 
HETATM   11  C14 UNL     1      22.563   2.204  47.803  1.00  0.00     0.000 C 
HETATM   12  C15 UNL     1      23.202   3.128  48.817  1.00  0.00     0.002 C 
HETATM   13  C16 UNL     1      23.243   2.520  50.193  1.00  0.00     0.035 C 
ENDBRANCH   6   8
ENDBRANCH   5   6
ENDBRANCH   1   5
BRANCH   2  14
HETATM   14  C4  UNL     1      25.219   0.036  53.827  1.00  0.00     0.059 C 
BRANCH  14  15
HETATM   15  C5  UNL     1      26.086   1.230  53.948  1.00  0.00     0.016 C 
HETATM   16  C6  UNL     1      27.411   1.453  53.931  1.00  0.00     0.090 C 
BRANCH  16  17
HETATM   17  O2  UNL     1      27.997   2.722  54.071  1.00  0.00    -0.359 OA
HETATM   18  H8  UNL     1      28.752   2.949  53.409  1.00  0.00     0.217 HD
ENDBRANCH  16  17
BRANCH  16  19
HETATM   19  C7  UNL     1      28.356   0.330  53.759  1.00  0.00     0.090 A 
HETATM   20  C8  UNL     1      29.678   0.159  53.602  1.00  0.00     0.053 A 
HETATM   21  C9  UNL     1      29.507  -1.287  53.535  1.00  0.00     0.120 A 
HETATM   22  N1  UNL     1      28.240  -1.102  53.687  1.00  0.00    -0.258 NA
ENDBRANCH  16  19
ENDBRANCH  14  15
ENDBRANCH   2  14
TORSDOF 8
ENDMDL
MODEL 4
REMARK VINA RESULT:      -6.4      4.783      7.005
REMARK  8 active torsions:
REMARK  status: ('A' for Active; 'I' for Inactive)
REMARK    1  A    between atoms: O1_2  and  C2_3 
REMARK    2  A    between atoms: C2_3  and  C10_13 
REMARK    3  A    between atoms: C3_4  and  C4_5 
REMARK    4  A    between atoms: C4_5  and  C5_6 
REMARK    5  A    between atoms: C6_7  and  O2_8 
REMARK    6  A    between atoms: C6_7  and  C7_9 
REMARK    7  A    between atoms: C10_13  and  N2_14 
REMARK    8  A    between atoms: N2_14  and  C11_15 
ROOT
HETATM    1  C2  UNL     1      26.082   4.915  49.478  1.00  0.00     0.070 C 
HETATM    2  C3  UNL     1      26.783   5.779  48.785  1.00  0.00     0.011 C 
ENDROOT
BRANCH   1   3
HETATM    3  O1  UNL     1      24.878   5.312  50.024  1.00  0.00    -0.359 OA
HETATM    4  C1  UNL     1      23.658   4.650  49.777  1.00  0.00     0.209 C 
ENDBRANCH   1   3
BRANCH   1   5
HETATM    5  C10 UNL     1      26.549   3.512  49.697  1.00  0.00     0.334 C 
BRANCH   5   6
HETATM    6  N2  UNL     1      26.803   3.288  51.099  1.00  0.00     0.094 N 
HETATM    7  H13 UNL     1      26.425   4.124  51.606  1.00  0.00     0.316 HD
BRANCH   6   8
HETATM    8  C11 UNL     1      26.119   2.131  51.550  1.00  0.00     0.221 C 
HETATM    9  C12 UNL     1      25.000   2.387  52.523  1.00  0.00     0.035 C 
HETATM   10  C13 UNL     1      24.133   1.119  52.453  1.00  0.00     0.002 C 
HETATM   11  C14 UNL     1      24.940   0.004  53.029  1.00  0.00     0.000 C 
HETATM   12  C15 UNL     1      26.264  -0.179  52.321  1.00  0.00     0.002 C 
HETATM   13  C16 UNL     1      27.030   1.111  52.205  1.00  0.00     0.035 C 
ENDBRANCH   6   8
ENDBRANCH   5   6
ENDBRANCH   1   5
BRANCH   2  14
HETATM   14  C4  UNL     1      26.522   7.181  48.451  1.00  0.00     0.059 C 
BRANCH  14  15
HETATM   15  C5  UNL     1      26.711   8.092  49.602  1.00  0.00     0.016 C 
HETATM   16  C6  UNL     1      27.655   8.969  49.980  1.00  0.00     0.090 C 
BRANCH  16  17
HETATM   17  O2  UNL     1      27.594   9.734  51.157  1.00  0.00    -0.359 OA
HETATM   18  H8  UNL     1      27.786   9.234  52.036  1.00  0.00     0.217 HD
ENDBRANCH  16  17
BRANCH  16  19
HETATM   19  C7  UNL     1      28.856   9.182  49.145  1.00  0.00     0.090 A 
HETATM   20  C8  UNL     1      30.021   8.562  48.903  1.00  0.00     0.053 A 
HETATM   21  C9  UNL     1      30.409   9.606  47.963  1.00  0.00     0.120 A 
HETATM   22  N1  UNL     1      29.285  10.187  48.210  1.00  0.00    -0.258 NA
ENDBRANCH  16  19
ENDBRANCH  14  15
ENDBRANCH   2  14
TORSDOF 8
ENDMDL
MODEL 5
REMARK VINA RESULT:      -6.4      2.386      7.125
REMARK  8 active torsions:
REMARK  status: ('A' for Active; 'I' for Inactive)
REMARK    1  A    between atoms: O1_2  and  C2_3 
REMARK    2  A    between atoms: C2_3  and  C10_13 
REMARK    3  A    between atoms: C3_4  and  C4_5 
REMARK    4  A    between atoms: C4_5  and  C5_6 
REMARK    5  A    between atoms: C6_7  and  O2_8 
REMARK    6  A    between atoms: C6_7  and  C7_9 
REMARK    7  A    between atoms: C10_13  and  N2_14 
REMARK    8  A    between atoms: N2_14  and  C11_15 
ROOT
HETATM    1  C2  UNL     1      24.207   2.333  51.878  1.00  0.00     0.070 C 
HETATM    2  C3  UNL     1      23.579   1.552  52.723  1.00  0.00     0.011 C 
ENDROOT
BRANCH   1   3
HETATM    3  O1  UNL     1      23.470   3.107  51.005  1.00  0.00    -0.359 OA
HETATM    4  C1  UNL     1      23.687   4.487  50.817  1.00  0.00     0.209 C 
ENDBRANCH   1   3
BRANCH   1   5
HETATM    5  C10 UNL     1      25.699   2.410  51.831  1.00  0.00     0.334 C 
BRANCH   5   6
HETATM    6  N2  UNL     1      26.220   2.721  53.139  1.00  0.00     0.094 N 
HETATM    7  H13 UNL     1      25.416   2.643  53.806  1.00  0.00     0.316 HD
BRANCH   6   8
HETATM    8  C11 UNL     1      27.217   1.786  53.513  1.00  0.00     0.221 C 
HETATM    9  C12 UNL     1      28.617   2.335  53.581  1.00  0.00     0.035 C 
HETATM   10  C13 UNL     1      29.380   1.333  54.463  1.00  0.00     0.002 C 
HETATM   11  C14 UNL     1      29.470   0.055  53.698  1.00  0.00     0.000 C 
HETATM   12  C15 UNL     1      28.112  -0.473  53.289  1.00  0.00     0.002 C 
HETATM   13  C16 UNL     1      27.278   0.575  52.603  1.00  0.00     0.035 C 
ENDBRANCH   6   8
ENDBRANCH   5   6
ENDBRANCH   1   5
BRANCH   2  14
HETATM   14  C4  UNL     1      22.149   1.323  52.939  1.00  0.00     0.059 C 
BRANCH  14  15
HETATM   15  C5  UNL     1      21.878   0.166  53.822  1.00  0.00     0.016 C 
HETATM   16  C6  UNL     1      20.863  -0.701  53.975  1.00  0.00     0.090 C 
BRANCH  16  17
HETATM   17  O2  UNL     1      20.853  -1.743  54.918  1.00  0.00    -0.359 OA
HETATM   18  H8  UNL     1      20.733  -1.466  55.901  1.00  0.00     0.217 HD
ENDBRANCH  16  17
BRANCH  16  19
HETATM   19  C7  UNL     1      19.657  -0.599  53.127  1.00  0.00     0.090 A 
HETATM   20  C8  UNL     1      18.367  -0.966  53.183  1.00  0.00     0.053 A 
HETATM   21  C9  UNL     1      18.118  -0.382  51.872  1.00  0.00     0.120 A 
HETATM   22  N1  UNL     1      19.361  -0.038  51.836  1.00  0.00    -0.258 NA
ENDBRANCH  16  19
ENDBRANCH  14  15
ENDBRANCH   2  14
TORSDOF 8
ENDMDL
MODEL 6
REMARK VINA RESULT:      -6.4      2.989      5.966
REMARK  8 active torsions:
REMARK  status: ('A' for Active; 'I' for Inactive)
REMARK    1  A    between atoms: O1_2  and  C2_3 
REMARK    2  A    between atoms: C2_3  and  C10_13 
REMARK    3  A    between atoms: C3_4  and  C4_5 
REMARK    4  A    between atoms: C4_5  and  C5_6 
REMARK    5  A    between atoms: C6_7  and  O2_8 
REMARK    6  A    between atoms: C6_7  and  C7_9 
REMARK    7  A    between atoms: C10_13  and  N2_14 
REMARK    8  A    between atoms: N2_14  and  C11_15 
ROOT
HETATM    1  C2  UNL     1      24.779   2.457  51.278  1.00  0.00     0.070 C 
HETATM    2  C3  UNL     1      25.421   1.417  51.754  1.00  0.00     0.011 C 
ENDROOT
BRANCH   1   3
HETATM    3  O1  UNL     1      23.634   2.888  51.917  1.00  0.00    -0.359 OA
HETATM    4  C1  UNL     1      23.529   4.135  52.566  1.00  0.00     0.209 C 
ENDBRANCH   1   3
BRANCH   1   5
HETATM    5  C10 UNL     1      25.250   3.189  50.063  1.00  0.00     0.334 C 
BRANCH   5   6
HETATM    6  N2  UNL     1      26.417   3.976  50.380  1.00  0.00     0.094 N 
HETATM    7  H13 UNL     1      27.246   3.410  50.082  1.00  0.00     0.316 HD
BRANCH   6   8
HETATM    8  C11 UNL     1      26.408   5.193  49.656  1.00  0.00     0.221 C 
HETATM    9  C12 UNL     1      25.120   5.504  48.940  1.00  0.00     0.035 C 
HETATM   10  C13 UNL     1      25.177   7.020  48.690  1.00  0.00     0.002 C 
HETATM   11  C14 UNL     1      26.271   7.261  47.703  1.00  0.00     0.000 C 
HETATM   12  C15 UNL     1      27.603   6.716  48.171  1.00  0.00     0.002 C 
HETATM   13  C16 UNL     1      27.506   5.282  48.614  1.00  0.00     0.035 C 
ENDBRANCH   6   8
ENDBRANCH   5   6
ENDBRANCH   1   5
BRANCH   2  14
HETATM   14  C4  UNL     1      25.143   0.563  52.910  1.00  0.00     0.059 C 
BRANCH  14  15
HETATM   15  C5  UNL     1      25.867  -0.728  52.860  1.00  0.00     0.016 C 
HETATM   16  C6  UNL     1      27.106  -1.140  53.175  1.00  0.00     0.090 C 
BRANCH  16  17
HETATM   17  O2  UNL     1      27.557  -2.463  53.028  1.00  0.00    -0.359 OA
HETATM   18  H8  UNL     1      28.436  -2.700  53.508  1.00  0.00     0.217 HD
ENDBRANCH  16  17
BRANCH  16  19
HETATM   19  C7  UNL     1      28.098  -0.186  53.713  1.00  0.00     0.090 A 
HETATM   20  C8  UNL     1      29.408   0.071  53.574  1.00  0.00     0.053 A 
HETATM   21  C9  UNL     1      29.319   1.168  54.528  1.00  0.00     0.120 A 
HETATM   22  N1  UNL     1      28.062   0.906  54.649  1.00  0.00    -0.258 NA
ENDBRANCH  16  19
ENDBRANCH  14  15
ENDBRANCH   2  14
TORSDOF 8
ENDMDL
MODEL 7
REMARK VINA RESULT:      -6.4      3.694      6.957
REMARK  8 active torsions:
REMARK  status: ('A' for Active; 'I' for Inactive)
REMARK    1  A    between atoms: O1_2  and  C2_3 
REMARK    2  A    between atoms: C2_3  and  C10_13 
REMARK    3  A    between atoms: C3_4  and  C4_5 
REMARK    4  A    between atoms: C4_5  and  C5_6 
REMARK    5  A    between atoms: C6_7  and  O2_8 
REMARK    6  A    between atoms: C6_7  and  C7_9 
REMARK    7  A    between atoms: C10_13  and  N2_14 
REMARK    8  A    between atoms: N2_14  and  C11_15 
ROOT
HETATM    1  C2  UNL     1      26.248   4.674  49.275  1.00  0.00     0.070 C 
HETATM    2  C3  UNL     1      27.145   5.449  48.716  1.00  0.00     0.011 C 
ENDROOT
BRANCH   1   3
HETATM    3  O1  UNL     1      24.963   5.149  49.442  1.00  0.00    -0.359 OA
HETATM    4  C1  UNL     1      23.825   4.520  48.897  1.00  0.00     0.209 C 
ENDBRANCH   1   3
BRANCH   1   5
HETATM    5  C10 UNL     1      26.575   3.291  49.737  1.00  0.00     0.334 C 
BRANCH   5   6
HETATM    6  N2  UNL     1      26.612   3.246  51.178  1.00  0.00     0.094 N 
HETATM    7  H13 UNL     1      26.031   4.051  51.515  1.00  0.00     0.316 HD
BRANCH   6   8
HETATM    8  C11 UNL     1      26.043   2.039  51.654  1.00  0.00     0.221 C 
HETATM    9  C12 UNL     1      25.022   2.200  52.749  1.00  0.00     0.035 C 
HETATM   10  C13 UNL     1      24.221   0.888  52.721  1.00  0.00     0.002 C 
HETATM   11  C14 UNL     1      25.143  -0.198  53.167  1.00  0.00     0.000 C 
HETATM   12  C15 UNL     1      26.392  -0.282  52.318  1.00  0.00     0.002 C 
HETATM   13  C16 UNL     1      27.071   1.052  52.172  1.00  0.00     0.035 C 
ENDBRANCH   6   8
ENDBRANCH   5   6
ENDBRANCH   1   5
BRANCH   2  14
HETATM   14  C4  UNL     1      27.047   6.815  48.198  1.00  0.00     0.059 C 
BRANCH  14  15
HETATM   15  C5  UNL     1      27.307   7.843  49.232  1.00  0.00     0.016 C 
HETATM   16  C6  UNL     1      26.544   8.609  50.029  1.00  0.00     0.090 C 
BRANCH  16  17
HETATM   17  O2  UNL     1      27.054   9.536  50.953  1.00  0.00    -0.359 OA
HETATM   18  H8  UNL     1      27.236  10.484  50.594  1.00  0.00     0.217 HD
ENDBRANCH  16  17
BRANCH  16  19
HETATM   19  C7  UNL     1      25.071   8.511  49.973  1.00  0.00     0.090 A 
HETATM   20  C8  UNL     1      24.072   8.085  50.762  1.00  0.00     0.053 A 
HETATM   21  C9  UNL     1      23.087   8.444  49.750  1.00  0.00     0.120 A 
HETATM   22  N1  UNL     1      24.060   8.848  49.006  1.00  0.00    -0.258 NA
ENDBRANCH  16  19
ENDBRANCH  14  15
ENDBRANCH   2  14
TORSDOF 8
ENDMDL
MODEL 8
REMARK VINA RESULT:      -6.2      2.849      7.457
REMARK  8 active torsions:
REMARK  status: ('A' for Active; 'I' for Inactive)
REMARK    1  A    between atoms: O1_2  and  C2_3 
REMARK    2  A    between atoms: C2_3  and  C10_13 
REMARK    3  A    between atoms: C3_4  and  C4_5 
REMARK    4  A    between atoms: C4_5  and  C5_6 
REMARK    5  A    between atoms: C6_7  and  O2_8 
REMARK    6  A    between atoms: C6_7  and  C7_9 
REMARK    7  A    between atoms: C10_13  and  N2_14 
REMARK    8  A    between atoms: N2_14  and  C11_15 
ROOT
HETATM    1  C2  UNL     1      23.794  -0.122  53.120  1.00  0.00     0.070 C 
HETATM    2  C3  UNL     1      23.849   0.794  52.183  1.00  0.00     0.011 C 
ENDROOT
BRANCH   1   3
HETATM    3  O1  UNL     1      22.603  -0.782  53.342  1.00  0.00    -0.359 OA
HETATM    4  C1  UNL     1      22.198  -1.250  54.609  1.00  0.00     0.209 C 
ENDBRANCH   1   3
BRANCH   1   5
HETATM    5  C10 UNL     1      24.983  -0.471  53.956  1.00  0.00     0.334 C 
BRANCH   5   6
HETATM    6  N2  UNL     1      25.818   0.690  54.139  1.00  0.00     0.094 N 
HETATM    7  H13 UNL     1      25.594   1.069  55.090  1.00  0.00     0.316 HD
BRANCH   6   8
HETATM    8  C11 UNL     1      27.187   0.330  54.099  1.00  0.00     0.221 C 
HETATM    9  C12 UNL     1      28.138   1.459  53.801  1.00  0.00     0.035 C 
HETATM   10  C13 UNL     1      29.500   0.956  54.306  1.00  0.00     0.002 C 
HETATM   11  C14 UNL     1      29.906  -0.176  53.423  1.00  0.00     0.000 C 
HETATM   12  C15 UNL     1      28.874  -1.282  53.388  1.00  0.00     0.002 C 
HETATM   13  C16 UNL     1      27.493  -0.763  53.094  1.00  0.00     0.035 C 
ENDBRANCH   6   8
ENDBRANCH   5   6
ENDBRANCH   1   5
BRANCH   2  14
HETATM   14  C4  UNL     1      22.825   1.290  51.262  1.00  0.00     0.059 C 
BRANCH  14  15
HETATM   15  C5  UNL     1      21.929   2.292  51.881  1.00  0.00     0.016 C 
HETATM   16  C6  UNL     1      20.625   2.338  52.201  1.00  0.00     0.090 C 
BRANCH  16  17
HETATM   17  O2  UNL     1      20.000   3.445  52.800  1.00  0.00    -0.359 OA
HETATM   18  H8  UNL     1      19.157   3.245  53.356  1.00  0.00     0.217 HD
ENDBRANCH  16  17
BRANCH  16  19
HETATM   19  C7  UNL     1      19.747   1.182  51.928  1.00  0.00     0.090 A 
HETATM   20  C8  UNL     1      19.076   0.666  50.887  1.00  0.00     0.053 A 
HETATM   21  C9  UNL     1      18.577  -0.424  51.715  1.00  0.00     0.120 A 
HETATM   22  N1  UNL     1      19.228   0.087  52.705  1.00  0.00    -0.258 NA
ENDBRANCH  16  19
ENDBRANCH  14  15
ENDBRANCH   2  14
TORSDOF 8
ENDMDL
MODEL 9
REMARK VINA RESULT:      -6.2      2.126      6.221
REMARK  8 active torsions:
REMARK  status: ('A' for Active; 'I' for Inactive)
REMARK    1  A    between atoms: O1_2  and  C2_3 
REMARK    2  A    between atoms: C2_3  and  C10_13 
REMARK    3  A    between atoms: C3_4  and  C4_5 
REMARK    4  A    between atoms: C4_5  and  C5_6 
REMARK    5  A    between atoms: C6_7  and  O2_8 
REMARK    6  A    between atoms: C6_7  and  C7_9 
REMARK    7  A    between atoms: C10_13  and  N2_14 
REMARK    8  A    between atoms: N2_14  and  C11_15 
ROOT
HETATM    1  C2  UNL     1      24.998   3.012  51.552  1.00  0.00     0.070 C 
HETATM    2  C3  UNL     1      24.039   2.576  52.333  1.00  0.00     0.011 C 
ENDROOT
BRANCH   1   3
HETATM    3  O1  UNL     1      24.723   4.021  50.652  1.00  0.00    -0.359 OA
HETATM    4  C1  UNL     1      25.649   4.482  49.694  1.00  0.00     0.209 C 
ENDBRANCH   1   3
BRANCH   1   5
HETATM    5  C10 UNL     1      26.381   2.447  51.607  1.00  0.00     0.334 C 
BRANCH   5   6
HETATM    6  N2  UNL     1      26.844   2.403  52.972  1.00  0.00     0.094 N 
HETATM    7  H13 UNL     1      26.003   2.567  53.576  1.00  0.00     0.316 HD
BRANCH   6   8
HETATM    8  C11 UNL     1      27.383   1.128  53.273  1.00  0.00     0.221 C 
HETATM    9  C12 UNL     1      28.885   1.072  53.365  1.00  0.00     0.035 C 
HETATM   10  C13 UNL     1      29.172  -0.205  54.171  1.00  0.00     0.002 C 
HETATM   11  C14 UNL     1      28.764  -1.361  53.322  1.00  0.00     0.000 C 
HETATM   12  C15 UNL     1      27.316  -1.281  52.891  1.00  0.00     0.002 C 
HETATM   13  C16 UNL     1      26.977   0.053  52.284  1.00  0.00     0.035 C 
ENDBRANCH   6   8
ENDBRANCH   5   6
ENDBRANCH   1   5
BRANCH   2  14
HETATM   14  C4  UNL     1      22.635   2.976  52.447  1.00  0.00     0.059 C 
BRANCH  14  15
HETATM   15  C5  UNL     1      21.719   2.081  51.705  1.00  0.00     0.016 C 
HETATM   16  C6  UNL     1      21.184   0.868  51.923  1.00  0.00     0.090 C 
BRANCH  16  17
HETATM   17  O2  UNL     1      20.315   0.219  51.032  1.00  0.00    -0.359 OA
HETATM   18  H8  UNL     1      20.754  -0.253  50.229  1.00  0.00     0.217 HD
ENDBRANCH  16  17
BRANCH  16  19
HETATM   19  C7  UNL     1      21.496   0.125  53.162  1.00  0.00     0.090 A 
HETATM   20  C8  UNL     1      22.351  -0.830  53.560  1.00  0.00     0.053 A 
HETATM   21  C9  UNL     1      21.802  -0.794  54.909  1.00  0.00     0.120 A 
HETATM   22  N1  UNL     1      20.988   0.123  54.508  1.00  0.00    -0.258 NA
ENDBRANCH  16  19
ENDBRANCH  14  15
ENDBRANCH   2  14
TORSDOF 8
ENDMDL
