MODEL 1
REMARK VINA RESULT:      -8.2      0.000      0.000
REMARK  3 active torsions:
REMARK  status: ('A' for Active; 'I' for Inactive)
REMARK    1  A    between atoms: O1_2  and  C2_3 
REMARK    2  A    between atoms: C10_13  and  C11_14 
REMARK    3  A    between atoms: C14_17  and  C16_19 
ROOT
HETATM    1  C2  UNL     1      19.999  -0.288  53.044  1.00  0.00     0.070 A 
HETATM    2  C3  UNL     1      20.753   0.187  51.994  1.00  0.00     0.038 A 
HETATM    3  C4  UNL     1      22.105   0.112  52.160  1.00  0.00     0.017 A 
HETATM    4  C5  UNL     1      22.761  -0.394  53.279  1.00  0.00     0.006 A 
HETATM    5  C6  UNL     1      22.005  -0.865  54.319  1.00  0.00     0.049 A 
HETATM    6  C7  UNL     1      20.638  -0.791  54.157  1.00  0.00     0.067 A 
HETATM    7  N1  UNL     1      22.811  -1.344  55.378  1.00  0.00    -0.322 N 
HETATM    8  C8  UNL     1      24.122  -1.141  54.931  1.00  0.00     0.257 A 
HETATM    9  O2  UNL     1      25.039  -1.487  55.694  1.00  0.00    -0.267 OA
HETATM   10  C9  UNL     1      24.200  -0.543  53.607  1.00  0.00     0.045 A 
HETATM   11  C10 UNL     1      25.208  -0.191  52.840  1.00  0.00     0.025 C 
HETATM   12  H7  UNL     1      22.421  -1.742  56.260  1.00  0.00     0.169 HD
ENDROOT
BRANCH  11  13
HETATM   13  C11 UNL     1      26.612  -0.311  53.102  1.00  0.00    -0.050 A 
HETATM   14  C12 UNL     1      27.314  -1.376  52.713  1.00  0.00    -0.018 A 
HETATM   15  C13 UNL     1      28.572  -0.914  53.241  1.00  0.00     0.044 A 
HETATM   16  C14 UNL     1      27.815   0.285  53.701  1.00  0.00     0.017 A 
HETATM   17  C15 UNL     1      27.689   0.346  55.216  1.00  0.00     0.023 C 
BRANCH  16  18
HETATM   18  C16 UNL     1      28.336   1.529  53.065  1.00  0.00     0.405 C 
HETATM   19  O3  UNL     1      28.779   2.664  53.141  1.00  0.00    -0.429 OA
ENDBRANCH  16  18
ENDBRANCH  11  13
BRANCH   1  20
HETATM   20  O1  UNL     1      18.614  -0.277  53.020  1.00  0.00    -0.356 OA
HETATM   21  C1  UNL     1      17.828  -1.442  53.045  1.00  0.00     0.210 C 
ENDBRANCH   1  20
TORSDOF 3
ENDMDL
MODEL 2
REMARK VINA RESULT:      -7.5      1.942      2.718
REMARK  3 active torsions:
REMARK  status: ('A' for Active; 'I' for Inactive)
REMARK    1  A    between atoms: O1_2  and  C2_3 
REMARK    2  A    between atoms: C10_13  and  C11_14 
REMARK    3  A    between atoms: C14_17  and  C16_19 
ROOT
HETATM    1  C2  UNL     1      19.391  -0.644  53.315  1.00  0.00     0.070 A 
HETATM    2  C3  UNL     1      20.145  -1.665  53.850  1.00  0.00     0.038 A 
HETATM    3  C4  UNL     1      21.488  -1.433  53.910  1.00  0.00     0.017 A 
HETATM    4  C5  UNL     1      22.135  -0.276  53.482  1.00  0.00     0.006 A 
HETATM    5  C6  UNL     1      21.378   0.734  52.951  1.00  0.00     0.049 A 
HETATM    6  C7  UNL     1      20.020   0.506  52.888  1.00  0.00     0.067 A 
HETATM    7  N1  UNL     1      22.175   1.837  52.565  1.00  0.00    -0.322 N 
HETATM    8  C8  UNL     1      23.481   1.449  52.890  1.00  0.00     0.257 A 
HETATM    9  O2  UNL     1      24.388   2.260  52.645  1.00  0.00    -0.267 OA
HETATM   10  C9  UNL     1      23.564   0.121  53.480  1.00  0.00     0.045 A 
HETATM   11  C10 UNL     1      24.570  -0.606  53.913  1.00  0.00     0.025 C 
HETATM   12  H7  UNL     1      21.784   2.704  52.139  1.00  0.00     0.169 HD
ENDROOT
BRANCH  11  13
HETATM   13  C11 UNL     1      25.964  -0.274  53.936  1.00  0.00    -0.050 A 
HETATM   14  C12 UNL     1      26.522   0.357  54.970  1.00  0.00    -0.018 A 
HETATM   15  C13 UNL     1      27.850   0.389  54.412  1.00  0.00     0.044 A 
HETATM   16  C14 UNL     1      27.256  -0.306  53.236  1.00  0.00     0.017 A 
HETATM   17  C15 UNL     1      27.220   0.576  51.997  1.00  0.00     0.023 C 
BRANCH  16  18
HETATM   18  C16 UNL     1      27.877  -1.648  53.032  1.00  0.00     0.405 C 
HETATM   19  O3  UNL     1      27.795  -2.830  52.741  1.00  0.00    -0.429 OA
ENDBRANCH  16  18
ENDBRANCH  11  13
BRANCH   1  20
HETATM   20  O1  UNL     1      18.014  -0.734  53.189  1.00  0.00    -0.356 OA
HETATM   21  C1  UNL     1      17.344  -0.707  51.953  1.00  0.00     0.210 C 
ENDBRANCH   1  20
TORSDOF 3
ENDMDL
MODEL 3
REMARK VINA RESULT:      -7.4      2.586      7.337
REMARK  3 active torsions:
REMARK  status: ('A' for Active; 'I' for Inactive)
REMARK    1  A    between atoms: O1_2  and  C2_3 
REMARK    2  A    between atoms: C10_13  and  C11_14 
REMARK    3  A    between atoms: C14_17  and  C16_19 
ROOT
HETATM    1  C2  UNL     1      26.711   0.765  54.299  1.00  0.00     0.070 A 
HETATM    2  C3  UNL     1      26.003  -0.379  54.004  1.00  0.00     0.038 A 
HETATM    3  C4  UNL     1      24.832  -0.187  53.330  1.00  0.00     0.017 A 
HETATM    4  C5  UNL     1      24.315   1.043  52.930  1.00  0.00     0.006 A 
HETATM    5  C6  UNL     1      25.025   2.175  53.227  1.00  0.00     0.049 A 
HETATM    6  C7  UNL     1      26.209   1.988  53.908  1.00  0.00     0.067 A 
HETATM    7  N1  UNL     1      24.374   3.340  52.758  1.00  0.00    -0.322 N 
HETATM    8  C8  UNL     1      23.208   2.860  52.147  1.00  0.00     0.257 A 
HETATM    9  O2  UNL     1      22.447   3.702  51.644  1.00  0.00    -0.267 OA
HETATM   10  C9  UNL     1      23.076   1.412  52.202  1.00  0.00     0.045 A 
HETATM   11  C10 UNL     1      22.158   0.578  51.767  1.00  0.00     0.025 C 
HETATM   12  H7  UNL     1      24.756   4.301  52.887  1.00  0.00     0.169 HD
ENDROOT
BRANCH  11  13
HETATM   13  C11 UNL     1      20.947   0.877  51.060  1.00  0.00    -0.050 A 
HETATM   14  C12 UNL     1      20.928   1.059  49.739  1.00  0.00    -0.018 A 
HETATM   15  C13 UNL     1      19.511   1.305  49.653  1.00  0.00     0.044 A 
HETATM   16  C14 UNL     1      19.499   1.119  51.131  1.00  0.00     0.017 A 
HETATM   17  C15 UNL     1      19.205   2.412  51.877  1.00  0.00     0.023 C 
BRANCH  16  18
HETATM   18  C16 UNL     1      18.642  -0.039  51.522  1.00  0.00     0.405 C 
HETATM   19  O3  UNL     1      18.229  -0.829  52.354  1.00  0.00    -0.429 OA
ENDBRANCH  16  18
ENDBRANCH  11  13
BRANCH   1  20
HETATM   20  O1  UNL     1      27.918   0.729  54.979  1.00  0.00    -0.356 OA
HETATM   21  C1  UNL     1      29.031  -0.011  54.545  1.00  0.00     0.210 C 
ENDBRANCH   1  20
TORSDOF 3
ENDMDL
MODEL 4
REMARK VINA RESULT:      -7.4      2.034      3.016
REMARK  3 active torsions:
REMARK  status: ('A' for Active; 'I' for Inactive)
REMARK    1  A    between atoms: O1_2  and  C2_3 
REMARK    2  A    between atoms: C10_13  and  C11_14 
REMARK    3  A    between atoms: C14_17  and  C16_19 
ROOT
HETATM    1  C2  UNL     1      17.948  -0.399  51.685  1.00  0.00     0.070 A 
HETATM    2  C3  UNL     1      18.737   0.299  50.798  1.00  0.00     0.038 A 
HETATM    3  C4  UNL     1      20.015   0.537  51.211  1.00  0.00     0.017 A 
HETATM    4  C5  UNL     1      20.565   0.139  52.427  1.00  0.00     0.006 A 
HETATM    5  C6  UNL     1      19.774  -0.554  53.304  1.00  0.00     0.049 A 
HETATM    6  C7  UNL     1      18.481  -0.798  52.892  1.00  0.00     0.067 A 
HETATM    7  N1  UNL     1      20.471  -0.886  54.488  1.00  0.00    -0.322 N 
HETATM    8  C8  UNL     1      21.752  -0.354  54.295  1.00  0.00     0.257 A 
HETATM    9  O2  UNL     1      22.575  -0.514  55.211  1.00  0.00    -0.267 OA
HETATM   10  C9  UNL     1      21.915   0.319  53.015  1.00  0.00     0.045 A 
HETATM   11  C10 UNL     1      22.927   0.941  52.452  1.00  0.00     0.025 C 
HETATM   12  H7  UNL     1      20.041  -1.414  55.278  1.00  0.00     0.169 HD
ENDROOT
BRANCH  11  13
HETATM   13  C11 UNL     1      24.248   1.143  52.969  1.00  0.00    -0.050 A 
HETATM   14  C12 UNL     1      24.656   2.331  53.419  1.00  0.00    -0.018 A 
HETATM   15  C13 UNL     1      25.983   1.895  53.776  1.00  0.00     0.044 A 
HETATM   16  C14 UNL     1      25.563   0.558  53.271  1.00  0.00     0.017 A 
HETATM   17  C15 UNL     1      26.285   0.168  51.990  1.00  0.00     0.023 C 
BRANCH  16  18
HETATM   18  C16 UNL     1      25.609  -0.467  54.354  1.00  0.00     0.405 C 
HETATM   19  O3  UNL     1      25.855  -0.797  55.503  1.00  0.00    -0.429 OA
ENDBRANCH  16  18
ENDBRANCH  11  13
BRANCH   1  20
HETATM   20  O1  UNL     1      16.628  -0.716  51.404  1.00  0.00    -0.356 OA
HETATM   21  C1  UNL     1      15.611  -0.730  52.375  1.00  0.00     0.210 C 
ENDBRANCH   1  20
TORSDOF 3
ENDMDL
MODEL 5
REMARK VINA RESULT:      -7.3      2.421      6.823
REMARK  3 active torsions:
REMARK  status: ('A' for Active; 'I' for Inactive)
REMARK    1  A    between atoms: O1_2  and  C2_3 
REMARK    2  A    between atoms: C10_13  and  C11_14 
REMARK    3  A    between atoms: C14_17  and  C16_19 
ROOT
HETATM    1  C2  UNL     1      27.278  -0.088  53.769  1.00  0.00     0.070 A 
HETATM    2  C3  UNL     1      27.359   0.692  52.637  1.00  0.00     0.038 A 
HETATM    3  C4  UNL     1      26.166   1.014  52.060  1.00  0.00     0.017 A 
HETATM    4  C5  UNL     1      24.909   0.624  52.516  1.00  0.00     0.006 A 
HETATM    5  C6  UNL     1      24.837  -0.151  53.642  1.00  0.00     0.049 A 
HETATM    6  C7  UNL     1      26.039  -0.479  54.230  1.00  0.00     0.067 A 
HETATM    7  N1  UNL     1      23.499  -0.463  53.978  1.00  0.00    -0.322 N 
HETATM    8  C8  UNL     1      22.738   0.168  52.986  1.00  0.00     0.257 A 
HETATM    9  O2  UNL     1      21.505   0.045  53.056  1.00  0.00    -0.267 OA
HETATM   10  C9  UNL     1      23.540   0.888  52.008  1.00  0.00     0.045 A 
HETATM   11  C10 UNL     1      23.233   1.593  50.942  1.00  0.00     0.025 C 
HETATM   12  H7  UNL     1      23.236  -1.045  54.803  1.00  0.00     0.169 HD
ENDROOT
BRANCH  11  13
HETATM   13  C11 UNL     1      21.935   1.881  50.407  1.00  0.00    -0.050 A 
HETATM   14  C12 UNL     1      21.315   1.045  49.574  1.00  0.00    -0.018 A 
HETATM   15  C13 UNL     1      20.134   1.857  49.417  1.00  0.00     0.044 A 
HETATM   16  C14 UNL     1      20.804   2.818  50.337  1.00  0.00     0.017 A 
HETATM   17  C15 UNL     1      21.214   4.104  49.636  1.00  0.00     0.023 C 
BRANCH  16  18
HETATM   18  C16 UNL     1      20.012   3.010  51.587  1.00  0.00     0.405 C 
HETATM   19  O3  UNL     1      19.944   3.190  52.792  1.00  0.00    -0.429 OA
ENDBRANCH  16  18
ENDBRANCH  11  13
BRANCH   1  20
HETATM   20  O1  UNL     1      28.405  -0.495  54.465  1.00  0.00    -0.356 OA
HETATM   21  C1  UNL     1      29.611  -0.861  53.842  1.00  0.00     0.210 C 
ENDBRANCH   1  20
TORSDOF 3
ENDMDL
MODEL 6
REMARK VINA RESULT:      -7.3      4.432      6.093
REMARK  3 active torsions:
REMARK  status: ('A' for Active; 'I' for Inactive)
REMARK    1  A    between atoms: O1_2  and  C2_3 
REMARK    2  A    between atoms: C10_13  and  C11_14 
REMARK    3  A    between atoms: C14_17  and  C16_19 
ROOT
HETATM    1  C2  UNL     1      25.272   5.734  49.015  1.00  0.00     0.070 A 
HETATM    2  C3  UNL     1      26.492   5.116  48.849  1.00  0.00     0.038 A 
HETATM    3  C4  UNL     1      26.690   3.996  49.603  1.00  0.00     0.017 A 
HETATM    4  C5  UNL     1      25.777   3.447  50.501  1.00  0.00     0.006 A 
HETATM    5  C6  UNL     1      24.567   4.067  50.660  1.00  0.00     0.049 A 
HETATM    6  C7  UNL     1      24.362   5.199  49.901  1.00  0.00     0.067 A 
HETATM    7  N1  UNL     1      23.754   3.394  51.601  1.00  0.00    -0.322 N 
HETATM    8  C8  UNL     1      24.537   2.311  52.021  1.00  0.00     0.257 A 
HETATM    9  O2  UNL     1      24.039   1.548  52.865  1.00  0.00    -0.267 OA
HETATM   10  C9  UNL     1      25.842   2.255  51.380  1.00  0.00     0.045 A 
HETATM   11  C10 UNL     1      26.858   1.427  51.488  1.00  0.00     0.025 C 
HETATM   12  H7  UNL     1      22.795   3.712  51.860  1.00  0.00     0.169 HD
ENDROOT
BRANCH  11  13
HETATM   13  C11 UNL     1      26.975   0.263  52.316  1.00  0.00    -0.050 A 
HETATM   14  C12 UNL     1      26.409  -0.898  51.985  1.00  0.00    -0.018 A 
HETATM   15  C13 UNL     1      26.869  -1.613  53.148  1.00  0.00     0.044 A 
HETATM   16  C14 UNL     1      27.505  -0.328  53.554  1.00  0.00     0.017 A 
HETATM   17  C15 UNL     1      26.839   0.290  54.774  1.00  0.00     0.023 C 
BRANCH  16  18
HETATM   18  C16 UNL     1      28.987  -0.466  53.651  1.00  0.00     0.405 C 
HETATM   19  O3  UNL     1      30.108   0.014  53.634  1.00  0.00    -0.429 OA
ENDBRANCH  16  18
ENDBRANCH  11  13
BRANCH   1  20
HETATM   20  O1  UNL     1      24.927   6.881  48.317  1.00  0.00    -0.356 OA
HETATM   21  C1  UNL     1      25.744   8.023  48.250  1.00  0.00     0.210 C 
ENDBRANCH   1  20
TORSDOF 3
ENDMDL
MODEL 7
REMARK VINA RESULT:      -7.0      5.488      8.520
REMARK  3 active torsions:
REMARK  status: ('A' for Active; 'I' for Inactive)
REMARK    1  A    between atoms: O1_2  and  C2_3 
REMARK    2  A    between atoms: C10_13  and  C11_14 
REMARK    3  A    between atoms: C14_17  and  C16_19 
ROOT
HETATM    1  C2  UNL     1      26.649   7.379  49.163  1.00  0.00     0.070 A 
HETATM    2  C3  UNL     1      26.722   6.154  48.537  1.00  0.00     0.038 A 
HETATM    3  C4  UNL     1      25.938   5.174  49.071  1.00  0.00     0.017 A 
HETATM    4  C5  UNL     1      25.095   5.314  50.171  1.00  0.00     0.006 A 
HETATM    5  C6  UNL     1      25.027   6.535  50.788  1.00  0.00     0.049 A 
HETATM    6  C7  UNL     1      25.817   7.529  50.252  1.00  0.00     0.067 A 
HETATM    7  N1  UNL     1      24.132   6.520  51.882  1.00  0.00    -0.322 N 
HETATM    8  C8  UNL     1      23.643   5.207  51.909  1.00  0.00     0.257 A 
HETATM    9  O2  UNL     1      22.821   4.928  52.797  1.00  0.00    -0.267 OA
HETATM   10  C9  UNL     1      24.193   4.360  50.861  1.00  0.00     0.045 A 
HETATM   11  C10 UNL     1      24.011   3.098  50.541  1.00  0.00     0.025 C 
HETATM   12  H7  UNL     1      23.943   7.353  52.480  1.00  0.00     0.169 HD
ENDROOT
BRANCH  11  13
HETATM   13  C11 UNL     1      23.156   2.134  51.168  1.00  0.00    -0.050 A 
HETATM   14  C12 UNL     1      23.607   1.289  52.096  1.00  0.00    -0.018 A 
HETATM   15  C13 UNL     1      22.342   0.632  52.312  1.00  0.00     0.044 A 
HETATM   16  C14 UNL     1      21.808   1.555  51.270  1.00  0.00     0.017 A 
HETATM   17  C15 UNL     1      21.436   0.828  49.987  1.00  0.00     0.023 C 
BRANCH  16  18
HETATM   18  C16 UNL     1      20.739   2.434  51.826  1.00  0.00     0.405 C 
HETATM   19  O3  UNL     1      20.130   2.910  52.770  1.00  0.00    -0.429 OA
ENDBRANCH  16  18
ENDBRANCH  11  13
BRANCH   1  20
HETATM   20  O1  UNL     1      27.387   8.471  48.734  1.00  0.00    -0.356 OA
HETATM   21  C1  UNL     1      28.265   9.189  49.565  1.00  0.00     0.210 C 
ENDBRANCH   1  20
TORSDOF 3
ENDMDL
MODEL 8
REMARK VINA RESULT:      -6.8      2.414      3.464
REMARK  3 active torsions:
REMARK  status: ('A' for Active; 'I' for Inactive)
REMARK    1  A    between atoms: O1_2  and  C2_3 
REMARK    2  A    between atoms: C10_13  and  C11_14 
REMARK    3  A    between atoms: C14_17  and  C16_19 
ROOT
HETATM    1  C2  UNL     1      18.550  -0.230  52.071  1.00  0.00     0.070 A 
HETATM    2  C3  UNL     1      19.214  -0.568  53.230  1.00  0.00     0.038 A 
HETATM    3  C4  UNL     1      20.527  -0.201  53.283  1.00  0.00     0.017 A 
HETATM    4  C5  UNL     1      21.226   0.469  52.282  1.00  0.00     0.006 A 
HETATM    5  C6  UNL     1      20.560   0.802  51.134  1.00  0.00     0.049 A 
HETATM    6  C7  UNL     1      19.232   0.434  51.074  1.00  0.00     0.067 A 
HETATM    7  N1  UNL     1      21.400   1.476  50.217  1.00  0.00    -0.322 N 
HETATM    8  C8  UNL     1      22.638   1.542  50.869  1.00  0.00     0.257 A 
HETATM    9  O2  UNL     1      23.566   2.100  50.263  1.00  0.00    -0.267 OA
HETATM   10  C9  UNL     1      22.633   0.931  52.190  1.00  0.00     0.045 A 
HETATM   11  C10 UNL     1      23.559   0.777  53.109  1.00  0.00     0.025 C 
HETATM   12  H7  UNL     1      21.078   1.811  49.284  1.00  0.00     0.169 HD
ENDROOT
BRANCH  11  13
HETATM   13  C11 UNL     1      24.928   1.201  53.075  1.00  0.00    -0.050 A 
HETATM   14  C12 UNL     1      25.266   2.476  52.881  1.00  0.00    -0.018 A 
HETATM   15  C13 UNL     1      26.688   2.255  52.953  1.00  0.00     0.044 A 
HETATM   16  C14 UNL     1      26.345   0.820  53.160  1.00  0.00     0.017 A 
HETATM   17  C15 UNL     1      26.741  -0.049  51.976  1.00  0.00     0.023 C 
BRANCH  16  18
HETATM   18  C16 UNL     1      26.832   0.334  54.485  1.00  0.00     0.405 C 
HETATM   19  O3  UNL     1      27.390  -0.501  55.177  1.00  0.00    -0.429 OA
ENDBRANCH  16  18
ENDBRANCH  11  13
BRANCH   1  20
HETATM   20  O1  UNL     1      17.213  -0.536  51.872  1.00  0.00    -0.356 OA
HETATM   21  C1  UNL     1      16.528  -1.526  52.597  1.00  0.00     0.210 C 
ENDBRANCH   1  20
TORSDOF 3
ENDMDL
MODEL 9
REMARK VINA RESULT:      -6.8      8.621     10.730
REMARK  3 active torsions:
REMARK  status: ('A' for Active; 'I' for Inactive)
REMARK    1  A    between atoms: O1_2  and  C2_3 
REMARK    2  A    between atoms: C10_13  and  C11_14 
REMARK    3  A    between atoms: C14_17  and  C16_19 
ROOT
HETATM    1  C2  UNL     1      26.494   6.621  49.038  1.00  0.00     0.070 A 
HETATM    2  C3  UNL     1      26.805   5.290  48.873  1.00  0.00     0.038 A 
HETATM    3  C4  UNL     1      28.080   5.032  48.461  1.00  0.00     0.017 A 
HETATM    4  C5  UNL     1      29.061   5.986  48.201  1.00  0.00     0.006 A 
HETATM    5  C6  UNL     1      28.743   7.307  48.367  1.00  0.00     0.049 A 
HETATM    6  C7  UNL     1      27.457   7.574  48.783  1.00  0.00     0.067 A 
HETATM    7  N1  UNL     1      29.838   8.151  48.066  1.00  0.00    -0.322 N 
HETATM    8  C8  UNL     1      30.862   7.268  47.700  1.00  0.00     0.257 A 
HETATM    9  O2  UNL     1      31.953   7.769  47.383  1.00  0.00    -0.267 OA
HETATM   10  C9  UNL     1      30.470   5.868  47.753  1.00  0.00     0.045 A 
HETATM   11  C10 UNL     1      31.107   4.748  47.493  1.00  0.00     0.025 C 
HETATM   12  H7  UNL     1      29.795   9.190  48.131  1.00  0.00     0.169 HD
ENDROOT
BRANCH  11  13
HETATM   13  C11 UNL     1      32.462   4.574  47.060  1.00  0.00    -0.050 A 
HETATM   14  C12 UNL     1      32.820   4.722  45.784  1.00  0.00    -0.018 A 
HETATM   15  C13 UNL     1      34.216   4.435  45.998  1.00  0.00     0.044 A 
HETATM   16  C14 UNL     1      33.848   4.251  47.430  1.00  0.00     0.017 A 
HETATM   17  C15 UNL     1      33.963   2.801  47.877  1.00  0.00     0.023 C 
BRANCH  16  18
HETATM   18  C16 UNL     1      34.558   5.233  48.300  1.00  0.00     0.405 C 
HETATM   19  O3  UNL     1      35.425   5.509  49.113  1.00  0.00    -0.429 OA
ENDBRANCH  16  18
ENDBRANCH  11  13
BRANCH   1  20
HETATM   20  O1  UNL     1      25.239   7.038  49.452  1.00  0.00    -0.356 OA
HETATM   21  C1  UNL     1      24.651   6.642  50.666  1.00  0.00     0.210 C 
ENDBRANCH   1  20
TORSDOF 3
ENDMDL
